data_image0
_chemical_formula_structural       Al4H48C64N12O20
_chemical_formula_sum              "Al4 H48 C64 N12 O20"
_cell_length_a       6.648251393239667
_cell_length_b       22.417491748263036
_cell_length_c       26.770251029061942
_cell_angle_alpha    100.62887172047489
_cell_angle_beta     89.99974791441348
_cell_angle_gamma    89.99814362400355

_space_group_name_H-M_alt    "P 1"
_space_group_IT_number       1

loop_
  _space_group_symop_operation_xyz
  'x, y, z'

loop_
  _atom_site_type_symbol
  _atom_site_label
  _atom_site_symmetry_multiplicity
  _atom_site_fract_x
  _atom_site_fract_y
  _atom_site_fract_z
  _atom_site_occupancy
  Al  Al1       1.0  0.7714138355654753  0.7500224569096049  0.2494477135571103  1.0000
  Al  Al2       1.0  0.2285728803828988  0.24996675151182757  0.7505488309924501  1.0000
  Al  Al3       1.0  0.2714162005291101  0.749964468952527  0.2505460853906456  1.0000
  Al  Al4       1.0  0.7285735234638224  0.25002778274605214  0.7494500905981241  1.0000
  H   H1        1.0  0.7287722423600299  0.008941638789103456  0.5637926900823799  1.0000
  H   H2        1.0  0.2712219940689522  0.9910509025145443  0.436206904854103  1.0000
  H   H3        1.0  0.2287712576223839  0.49106158473905026  0.9362093010900095  1.0000
  H   H4        1.0  0.771275623243291  0.5089424175600284  0.0637751453759492  1.0000
  H   H5        1.0  0.2683606061364188  0.1132360803264163  0.8323558895908718  1.0000
  H   H6        1.0  0.7316246051367868  0.8867590578430505  0.16764333515711624  1.0000
  H   H7        1.0  0.768367625605066  0.3867615714534551  0.667647871550713  1.0000
  H   H8        1.0  0.23162360213743938  0.6132352023767565  0.3323589545182769  1.0000
  H   H9        1.0  0.2836922454943505  0.045990940512140734  0.8972273078215591  1.0000
  H   H10       1.0  0.7163034947627622  0.9540053358613817  0.1027730603998478  1.0000
  H   H11       1.0  0.7837042008102414  0.45400639737624  0.602775270909717  1.0000
  H   H12       1.0  0.21628100916547063  0.5460034184483931  0.3972403378026996  1.0000
  H   H13       1.0  0.7001749958696167  0.11081144286783476  0.9514266999106766  1.0000
  H   H14       1.0  0.29983428110834615  0.8891924739336543  0.048580152441609  1.0000
  H   H15       1.0  0.20018955866352428  0.389198165329013  0.5485795704235129  1.0000
  H   H16       1.0  0.7997851216165444  0.610818705002707  0.4514315071024697  1.0000
  H   H17       1.0  0.5620613544214024  0.9329635427275919  0.515540855478072  1.0000
  H   H18       1.0  0.558768431102031  0.9206854321368851  0.41096335500526476  1.0000
  H   H19       1.0  0.4237564181562306  0.8751261275397153  0.4473865037619901  1.0000
  H   H20       1.0  0.6633749181966735  0.8512477596783372  0.4217309147873607  1.0000
  H   H21       1.0  0.43794942773695317  0.06702867814860268  0.4844613966123744  1.0000
  H   H22       1.0  0.44122881353767696  0.0793082098679463  0.5890392821030517  1.0000
  H   H23       1.0  0.3366298471533185  0.1487466491383955  0.5782690667781267  1.0000
  H   H24       1.0  0.5762528599326728  0.12486511867967205  0.5526153649755441  1.0000
  H   H25       1.0  0.0620515681696929  0.5670354618040747  0.9844700264545876  1.0000
  H   H26       1.0  0.0587933902352091  0.57930331974665  0.0890454635747773  1.0000
  H   H27       1.0  0.9237552367478941  0.6248662819432553  0.052629304684224096  1.0000
  H   H28       1.0  0.16336972657531848  0.6487456058349395  0.07828257154133669  1.0000
  H   H29       1.0  0.9379742555295036  0.4329569841565686  0.015520833486767999  1.0000
  H   H30       1.0  0.9412595082811349  0.420688836538325  0.910941977375387  1.0000
  H   H31       1.0  0.8366560966548633  0.351252234904095  0.9217064094430539  1.0000
  H   H32       1.0  0.0762735953630127  0.37512498826340834  0.9473623104531439  1.0000
  H   H33       1.0  0.672183764240465  0.23683654023206907  0.892858666465109  1.0000
  H   H34       1.0  0.5437040031558098  0.17826885140649293  0.8532584394290125  1.0000
  H   H35       1.0  0.5297298488883229  0.1838602390681458  0.9205502886325403  1.0000
  H   H36       1.0  0.3278435629594583  0.7631632700569855  0.10714361355495329  1.0000
  H   H37       1.0  0.4702779238567842  0.8161445706131616  0.0794565670103324  1.0000
  H   H38       1.0  0.4562947448922472  0.8217333171853057  0.1467465076726668  1.0000
  H   H39       1.0  0.17218711995810307  0.26316765879015236  0.6071385461880752  1.0000
  H   H40       1.0  0.0437000640179193  0.32173401685436426  0.6467406389510655  1.0000
  H   H41       1.0  0.029745069165642197  0.3161504446288035  0.5794496162737984  1.0000
  H   H42       1.0  0.8277860570851346  0.7368388414489644  0.39285958112779434  1.0000
  H   H43       1.0  0.9702416448383957  0.6838609731448952  0.4205527065528755  1.0000
  H   H44       1.0  0.9562821381209545  0.6782705407886098  0.3532608990850149  1.0000
  H   H45       1.0  0.5213804319495026  0.8271449772510665  0.27502218948606577  1.0000
  H   H46       1.0  0.47860929252134804  0.17284176036572763  0.7249773840812707  1.0000
  H   H47       1.0  0.0213963117733016  0.672837753185064  0.22497455674525207  1.0000
  H   H48       1.0  0.9785964207181762  0.3271523105796916  0.7750238897726118  1.0000
  C   C1        1.0  0.522465275310978  0.6848670330986336  0.3131943501656877  1.0000
  C   C2        1.0  0.4775169273734789  0.31513127440917543  0.6868071648507765  1.0000
  C   C3        1.0  0.022463913012821  0.8151280359742684  0.1868058564519544  1.0000
  C   C4        1.0  0.9775288189508728  0.1848680393188786  0.8131956503287299  1.0000
  C   C5        1.0  0.5212211549075435  0.6713334040921595  0.17416789430325957  1.0000
  C   C6        1.0  0.47876706506855277  0.3286573004636465  0.825825237867349  1.0000
  C   C7        1.0  0.0212081285221473  0.8286551683371286  0.3258269750935838  1.0000
  C   C8        1.0  0.9787891162138962  0.17133744799916428  0.6741688224626258  1.0000
  C   C9        1.0  0.8473843147583439  0.004313229294027109  0.5351677647939823  1.0000
  C   C10       1.0  0.1526234591052216  0.995678828021468  0.46483372716767235  1.0000
  C   C11       1.0  0.3473869776070798  0.4956880362111917  0.9648293374225146  1.0000
  C   C12       1.0  0.6526674239148704  0.5043173429054306  0.03515321527780909  1.0000
  C   C13       1.0  0.0122063205610559  0.044290465928284596  0.5448892683747459  1.0000
  C   C14       1.0  0.9878044615644654  0.9557021571220972  0.45511070660543135  1.0000
  C   C15       1.0  0.5122097552507086  0.4557147618068028  0.9551015500364457  1.0000
  C   C16       1.0  0.4878356214121807  0.5442898062372521  0.044881379454245994  1.0000
  C   C17       1.0  0.17263385673457068  0.04023925904469648  0.5086813604033368  1.0000
  C   C18       1.0  0.8273709088342045  0.9597526347101065  0.491319371429526  1.0000
  C   C19       1.0  0.6726620831803842  0.45975996933690055  0.9913051992500641  1.0000
  C   C20       1.0  0.32738329356183016  0.540243668311021  0.0086796256401769  1.0000
  C   C21       1.0  0.0043612432044711  0.08866300367184718  0.5897047443701027  1.0000
  C   C22       1.0  0.9956405138329245  0.9113314801909668  0.4102914398233962  1.0000
  C   C23       1.0  0.5043619838013456  0.4113490682675972  0.9102804242399853  1.0000
  C   C24       1.0  0.4956833930290826  0.5886535196808039  0.0897078146713994  1.0000
  C   C25       1.0  0.016136661169795702  0.8736103016320059  0.37144893582802035  1.0000
  C   C26       1.0  0.9838515584973064  0.12638389939025527  0.6285480068727763  1.0000
  C   C27       1.0  0.5161771808279525  0.6263741494124914  0.12854327387212547  1.0000
  C   C28       1.0  0.48382908886825493  0.37361824558346507  0.8714411298990186  1.0000
  C   C29       1.0  0.1439670961452393  0.11177548412036485  0.8585658755467875  1.0000
  C   C30       1.0  0.8560226275072508  0.8882206286991803  0.14143373254997016  1.0000
  C   C31       1.0  0.6439694003010601  0.38822345299298183  0.641437471180751  1.0000
  C   C32       1.0  0.35601280180438266  0.6117814010095017  0.3585716632518441  1.0000
  C   C33       1.0  0.153192281569055  0.07457041831835193  0.8945403323723154  1.0000
  C   C34       1.0  0.8468049627185437  0.925427279150192  0.10546042084626349  1.0000
  C   C35       1.0  0.6532016998338577  0.4254283957606689  0.605462608884366  1.0000
  C   C36       1.0  0.3467789977057976  0.5745811304588884  0.39454958088034425  1.0000
  C   C37       1.0  0.9908621865096165  0.07399410865039606  0.9280505875484053  1.0000
  C   C38       1.0  0.009135057653551798  0.9260050099165371  0.0719505506694134  1.0000
  C   C39       1.0  0.4908717801651505  0.4260084340671781  0.5719529625408768  1.0000
  C   C40       1.0  0.5091089168843154  0.5740066947622253  0.4280603871543249  1.0000
  C   C41       1.0  0.8237172344833111  0.11135753237487479  0.9247356022526816  1.0000
  C   C42       1.0  0.1762830179685153  0.8886417940167846  0.075268574848451  1.0000
  C   C43       1.0  0.32373484823086335  0.388646203867232  0.5752684095776033  1.0000
  C   C44       1.0  0.6762488574210079  0.6113656295760919  0.424739991028126  1.0000
  C   C45       1.0  0.8111302370123568  0.14886140696645359  0.8884933767596692  1.0000
  C   C46       1.0  0.18886851155595963  0.8511348318806636  0.1115088901456573  1.0000
  C   C47       1.0  0.3111392843183935  0.35114027266839537  0.6115091428883304  1.0000
  C   C48       1.0  0.6888444216513746  0.6488679450050866  0.38849696580879817  1.0000
  C   C49       1.0  0.9751915044872488  0.14830105142394243  0.8545586835970339  1.0000
  C   C50       1.0  0.024796715073229298  0.8516943320899343  0.14544168134621316  1.0000
  C   C51       1.0  0.4751928657047628  0.3516988827274615  0.6454448997754553  1.0000
  C   C52       1.0  0.5247848238955797  0.6483064552430093  0.35456233761954076  1.0000
  C   C53       1.0  0.0042988190708826  0.9652669766820596  0.033625321321658  1.0000
  C   C54       1.0  0.9957014334335668  0.03473177722363362  0.9663761953142255  1.0000
  C   C55       1.0  0.5042794558265413  0.5347466171351769  0.46638601644918504  1.0000
  C   C56       1.0  0.4956997367501188  0.4652721274674291  0.5336296251566779  1.0000
  C   C57       1.0  0.5742231955494788  0.890793825483634  0.439173855096776  1.0000
  C   C58       1.0  0.42578156995025296  0.10919884184422558  0.5608283986462084  1.0000
  C   C59       1.0  0.0742294548611255  0.6091993284886286  0.0608391148511203  1.0000
  C   C60       1.0  0.9258038893398605  0.39079624252278927  0.9391517565896875  1.0000
  C   C61       1.0  0.6290247290449996  0.18883142492465763  0.8888398348186967  1.0000
  C   C62       1.0  0.3709815398945365  0.8111694043356578  0.11116510733985757  1.0000
  C   C63       1.0  0.129034737704167  0.3111749605792369  0.6111605420957317  1.0000
  C   C64       1.0  0.8709489683482943  0.6888323574734443  0.38884138587029327  1.0000
  N   N1        1.0  0.8401173351269833  0.03814131643574104  0.9995379148781324  1.0000
  N   N2        1.0  0.15989043800505698  0.9618591039026609  0.0004651269460253992  1.0000
  N   N3        1.0  0.3401102827212554  0.4618673459048992  0.5004706274366697  1.0000
  N   N4        1.0  0.6598689096933936  0.5381532287146414  0.49954729950075455  1.0000
  N   N5        1.0  0.8444518400946419  0.0028511694267549983  0.03368958644895769  1.0000
  N   N6        1.0  0.15555593299090734  0.9971497791335793  0.9663138370859269  1.0000
  N   N7        1.0  0.3444361936527828  0.4971642219305181  0.4663233902554254  1.0000
  N   N8        1.0  0.6555399901491797  0.502859804898165  0.5336960684618077  1.0000
  N   N9        1.0  0.6619111604331421  0.9218986497495011  0.4867274317941223  1.0000
  N   N10       1.0  0.338093605245021  0.07809198647433388  0.5132736751724281  1.0000
  N   N11       1.0  0.16191542363071676  0.5780967841647069  0.0132811291966846  1.0000
  N   N12       1.0  0.8381224328688502  0.4219007294125987  0.9867063315052816  1.0000
  O   O1        1.0  0.35067994684087017  0.6897722373095476  0.19287947460124139  1.0000
  O   O2        1.0  0.6493067690281862  0.31021790150801104  0.8071151745487768  1.0000
  O   O3        1.0  0.8506865123927058  0.8102217091136978  0.30710691776351234  1.0000
  O   O4        1.0  0.1493092284147366  0.18976831038030179  0.6928892499956802  1.0000
  O   O5        1.0  0.6911370318700135  0.6984372627197217  0.2957859110283749  1.0000
  O   O6        1.0  0.3088481792801474  0.3015592590284584  0.7042155974069146  1.0000
  O   O7        1.0  0.19113499466687497  0.8015679064798177  0.20422488444788195  1.0000
  O   O8        1.0  0.8088607453728328  0.198430847435958  0.7957766321942046  1.0000
  O   O9        1.0  0.6930888472016222  0.6890062504902731  0.19223134356769828  1.0000
  O   O10       1.0  0.3069038853274435  0.3109834043559373  0.8077652026178439  1.0000
  O   O11       1.0  0.1930834551724558  0.810974424185119  0.3077713812874023  1.0000
  O   O12       1.0  0.8069152937588554  0.18901770818990118  0.6922263133105487  1.0000
  O   O13       1.0  0.8505053770420756  0.8014761585727398  0.20273268604970696  1.0000
  O   O14       1.0  0.1494858509301054  0.19851804918715735  0.7972684340895525  1.0000
  O   O15       1.0  0.35050459875537143  0.6985031379694605  0.29725403261164723  1.0000
  O   O16       1.0  0.6494776043474672  0.3014904155409254  0.7027440470083092  1.0000
  O   O17       1.0  0.5213373189790289  0.7871078510460947  0.25382244380846686  1.0000
  O   O18       1.0  0.4786539093862174  0.2128819231068632  0.7461725837575485  1.0000
  O   O19       1.0  0.02134165440633499  0.7128779979317699  0.2461701366246274  1.0000
  O   O20       1.0  0.9786465655096207  0.2871133608937129  0.7538260360776903  1.0000
