data_image0
_chemical_formula_structural       Zn4H44C92N12O16F8
_chemical_formula_sum              "Zn4 H44 C92 N12 O16 F8"
_cell_length_a       21.58210566350948
_cell_length_b       21.5944798660609
_cell_length_c       21.554164278690276
_cell_angle_alpha    59.98069255892857
_cell_angle_beta     63.22809225807122
_cell_angle_gamma    89.99880911769624

_space_group_name_H-M_alt    "P 1"
_space_group_IT_number       1

loop_
  _space_group_symop_operation_xyz
  'x, y, z'

loop_
  _atom_site_type_symbol
  _atom_site_label
  _atom_site_symmetry_multiplicity
  _atom_site_fract_x
  _atom_site_fract_y
  _atom_site_fract_z
  _atom_site_occupancy
  Zn  Zn1       1.0  0.5413665209055835  0.0468878662072285  0.9095174111876287  1.0000
  Zn  Zn2       1.0  0.4587642776671783  0.956751689847955  0.09000378567407114  1.0000
  Zn  Zn3       1.0  0.9585771681521604  0.4564576715795212  0.09053482420283403  1.0000
  Zn  Zn4       1.0  0.041171967843908384  0.5467167781042832  0.9099770099961543  1.0000
  H   H1        1.0  0.8084584782918113  0.3913649380195566  0.2193362648728935  1.0000
  H   H2        1.0  0.7278929514129758  0.3140455641150126  0.37679988108259715  1.0000
  H   H3        1.0  0.9217288718982458  0.3062847609796506  0.38952213881682957  1.0000
  H   H4        1.0  0.5783222184461607  0.19638241648785734  0.6104975334520119  1.0000
  H   H5        1.0  0.7721267164989812  0.19043916754927892  0.6232874384746833  1.0000
  H   H6        1.0  0.6915323284733575  0.11023321093522752  0.7807430875061383  1.0000
  H   H7        1.0  0.1912442925557797  0.6108319771037215  0.7809635230398866  1.0000
  H   H8        1.0  0.2720991352723061  0.6911208428613379  0.6233212717367562  1.0000
  H   H9        1.0  0.07845434544611148  0.6955853003356367  0.6102522730519836  1.0000
  H   H10       1.0  0.4217525653507721  0.8060397786136946  0.38957805721172173  1.0000
  H   H11       1.0  0.2279790569377411  0.8143431609637588  0.3767692534774836  1.0000
  H   H12       1.0  0.3087350697883195  0.8917329242181964  0.21911938736131015  1.0000
  H   H13       1.0  0.5777046618784922  0.0744194076862996  0.13114814096751085  1.0000
  H   H14       1.0  0.6125018895058929  0.10490027143017498  0.21248367537523896  1.0000
  H   H15       1.0  0.7032991345043129  0.2063500403297596  0.8621348263259848  1.0000
  H   H16       1.0  0.9218484334018413  0.42986690825550516  0.8656526730214578  1.0000
  H   H17       1.0  0.8886482164157317  0.39816489940177757  0.7843485386555282  1.0000
  H   H18       1.0  0.8003436531761847  0.29392547985662526  0.13495323872746928  1.0000
  H   H19       1.0  0.30150022029128815  0.7926362611087187  0.13488066970822377  1.0000
  H   H20       1.0  0.1941139528057576  0.6813631540380456  0.2138757564050806  1.0000
  H   H21       1.0  0.42136390324125006  0.9307947275303613  0.8656645746158136  1.0000
  H   H22       1.0  0.20310799426642484  0.706947514064737  0.8622523142951973  1.0000
  H   H23       1.0  0.30922502335894103  0.8196229296353222  0.7832055982004745  1.0000
  H   H24       1.0  0.07884783969292641  0.5728375663752845  0.13130841112154443  1.0000
  H   H25       1.0  0.29678089135670394  0.06938067074958809  0.13778299380577147  1.0000
  H   H26       1.0  0.19041882095484647  0.1028709738722497  0.21677710784805976  1.0000
  H   H27       1.0  0.42172013867156016  0.20452774571152327  0.8687399475511338  1.0000
  H   H28       1.0  0.1988541776107837  0.42773431728175376  0.864979045218497  1.0000
  H   H29       1.0  0.3065736226354899  0.3956544781740304  0.7860312029405276  1.0000
  H   H30       1.0  0.07820378320206339  0.2962945689584942  0.13420099455786524  1.0000
  H   H31       1.0  0.5770899262876981  0.7947941966962659  0.13430593939500565  1.0000
  H   H32       1.0  0.6098802346915518  0.6814705539400165  0.2156688131851111  1.0000
  H   H33       1.0  0.6987321366322516  0.9278138768739833  0.8650209685108545  1.0000
  H   H34       1.0  0.9217401500700929  0.7048838436050816  0.8689130799588933  1.0000
  H   H35       1.0  0.8864599883307277  0.8160733284446877  0.7875203608904252  1.0000
  H   H36       1.0  0.7960577906748725  0.5681287152879192  0.1379137784828329  1.0000
  H   H37       1.0  0.03875839132547297  0.4019055462674358  0.16065360539766257  1.0000
  H   H38       1.0  0.0353818574628662  0.36350009616250395  0.255465787170884  1.0000
  H   H39       1.0  0.4611670501745309  0.06309152504594812  0.8393097788716299  1.0000
  H   H40       1.0  0.46461452923786345  0.11974267932445308  0.7444996268715866  1.0000
  H   H41       1.0  0.9613573673178378  0.5620189063534651  0.8393593719246224  1.0000
  H   H42       1.0  0.9645943884601778  0.6185773006240536  0.7444758559413668  1.0000
  H   H43       1.0  0.5387243053880368  0.9015692128425672  0.16042501564790948  1.0000
  H   H44       1.0  0.5355758593443909  0.863334577698687  0.2552474799677356  1.0000
  C   C1        1.0  0.4130660266734339  0.9150282598485905  0.002080539005468655  1.0000
  C   C2        1.0  0.41225006642493867  0.08339540171830608  0.004545106044829978  1.0000
  C   C3        1.0  0.5874028572266214  0.08729714289081875  0.9963062964828564  1.0000
  C   C4        1.0  0.5860932127211312  0.9161798333152404  0.9985562701189749  1.0000
  C   C5        1.0  0.08676504444453309  0.41698857597234  0.9977833767320232  1.0000
  C   C6        1.0  0.08789295913155117  0.5876535097936821  0.9955400058733657  1.0000
  C   C7        1.0  0.912443399556814  0.5835239080847073  0.0038317236192354793  1.0000
  C   C8        1.0  0.9133726199085146  0.4152858572784269  0.0013635417027729917  1.0000
  C   C9        1.0  0.8309006862899296  0.3707646888055861  0.2599139486297659  1.0000
  C   C10       1.0  0.7866244576409896  0.3288520442658935  0.3460344791164261  1.0000
  C   C11       1.0  0.8207896248566584  0.30570769908362655  0.3931713183955239  1.0000
  C   C12       1.0  0.8958242268227536  0.3248090655586965  0.35262157330325283  1.0000
  C   C13       1.0  0.9376327144487603  0.366779241282444  0.2639054560217744  1.0000
  C   C14       1.0  0.6042044648192544  0.1777626570074702  0.6474249159146194  1.0000
  C   C15       1.0  0.6792362845059968  0.19894655752537466  0.6068856621121907  1.0000
  C   C16       1.0  0.7133840963410734  0.17465016457005328  0.654062939429593  1.0000
  C   C17       1.0  0.6690904114625694  0.13042438746277443  0.7401715784476648  1.0000
  C   C18       1.0  0.5623784803658651  0.1309611171779608  0.7361313162836962  1.0000
  C   C19       1.0  0.1689690163584743  0.6307043070889833  0.7402161559675233  1.0000
  C   C20       1.0  0.21336143374907118  0.6749765946994728  0.6540639383406415  1.0000
  C   C21       1.0  0.17927712062487433  0.6988692178744741  0.6068201049264842  1.0000
  C   C22       1.0  0.104243340014122  0.6772646283690092  0.6472919206004659  1.0000
  C   C23       1.0  0.06238690202227556  0.6304274539000757  0.7360161812564879  1.0000
  C   C24       1.0  0.39590759005245246  0.8247018963863865  0.35260238893887663  1.0000
  C   C25       1.0  0.320862643953653  0.8057626619273109  0.3931336581724592  1.0000
  C   C26       1.0  0.2867135792718115  0.8290275824948805  0.3459827865989667  1.0000
  C   C27       1.0  0.33106569752089837  0.870934773172081  0.25982537555102414  1.0000
  C   C28       1.0  0.43772153816301074  0.8665845259264771  0.26387650495077253  1.0000
  C   C29       1.0  0.6235899863352686  0.12145486644850222  0.07313655619480383  1.0000
  C   C30       1.0  0.6686676823986417  0.16610744653967655  0.07537291863857132  1.0000
  C   C31       1.0  0.6572029808379014  0.1517233186651552  0.15283095537723304  1.0000
  C   C32       1.0  0.6943958467742348  0.19615542211626288  0.9207299133342556  1.0000
  C   C33       1.0  0.7398626496630172  0.2425838915738011  0.9205436656295729  1.0000
  C   C34       1.0  0.7995223825068082  0.3055430301735953  0.8452184640162126  1.0000
  C   C35       1.0  0.8767532555327548  0.38222790890727515  0.9239127049943432  1.0000
  C   C36       1.0  0.8324871415516029  0.3369515694803979  0.9214875974869937  1.0000
  C   C37       1.0  0.8441391624657938  0.35115313749962246  0.8440276623260841  1.0000
  C   C38       1.0  0.8081068169919378  0.3053688287298471  0.07629853594528414  1.0000
  C   C39       1.0  0.7620730851542774  0.25963407533675564  0.07635034154209558  1.0000
  C   C40       1.0  0.7022949347786068  0.19677124426297612  0.1517016752794475  1.0000
  C   C41       1.0  0.6364360709051269  0.13618702107734754  0.9967249053511363  1.0000
  C   C42       1.0  0.7277388638107001  0.22807594059584352  0.9981383703210011  1.0000
  C   C43       1.0  0.8648539734219796  0.3665730685897516  0.00036159146090146253  1.0000
  C   C44       1.0  0.7737510563117382  0.27459939577342846  0.998736389494155  1.0000
  C   C45       1.0  0.30876437376196014  0.8043343341484218  0.07624533308211291  1.0000
  C   C46       1.0  0.26255705580742017  0.7579112415265283  0.07705063003155047  1.0000
  C   C47       1.0  0.20396408985974548  0.6946666204911054  0.1537101595601058  1.0000
  C   C48       1.0  0.37683912327054253  0.8828247189144703  0.9239026255131434  1.0000
  C   C49       1.0  0.3323933954871308  0.8371499453793234  0.9222238567575327  1.0000
  C   C50       1.0  0.3417807325400872  0.8503215840012855  0.8460624020412622  1.0000
  C   C51       1.0  0.19471459180815026  0.696375062249821  0.9209037846940827  1.0000
  C   C52       1.0  0.24056576140407762  0.7431774378486649  0.9200834889530962  1.0000
  C   C53       1.0  0.2991082467017065  0.8064944043157993  0.8434025605556666  1.0000
  C   C54       1.0  0.12432806748839195  0.6200760592693655  0.07332178025389884  1.0000
  C   C55       1.0  0.16979975627497618  0.6648062820898345  0.07491884241711938  1.0000
  C   C56       1.0  0.16067028687561444  0.651433480766265  0.15106282893039236  1.0000
  C   C57       1.0  0.36497537878963016  0.8662747238523422  0.0006737542918459888  1.0000
  C   C58       1.0  0.2742366396252791  0.7739462387896906  0.9990290263106655  1.0000
  C   C59       1.0  0.1370208604688301  0.6359187679002432  0.9965188950184749  1.0000
  C   C60       1.0  0.2284434427920843  0.7275160995475645  0.9981026354494626  1.0000
  C   C61       1.0  0.3053525123844096  0.1175337170078166  0.07911561566673701  1.0000
  C   C62       1.0  0.25946267382132493  0.1634802407347848  0.07989316954125053  1.0000
  C   C63       1.0  0.2006575447156607  0.14996106550299967  0.15656464338143644  1.0000
  C   C64       1.0  0.3761109457103515  0.19377601102006284  0.9266979856749981  1.0000
  C   C65       1.0  0.33061176287597505  0.2400902649511991  0.925043059116106  1.0000
  C   C66       1.0  0.33991602811769894  0.3029335786029108  0.8488892593599002  1.0000
  C   C67       1.0  0.19144084238354253  0.38072141599814563  0.9236365368225207  1.0000
  C   C68       1.0  0.2377530814913769  0.3352094431048442  0.9228741338904382  1.0000
  C   C69       1.0  0.2965672490729077  0.3487647176158291  0.8462163039870275  1.0000
  C   C70       1.0  0.12293712609513821  0.306673374658132  0.07598911197108282  1.0000
  C   C71       1.0  0.16748187402615858  0.2594329950313465  0.07768489854399266  1.0000
  C   C72       1.0  0.15792023238085307  0.19639743477038252  0.15385274570097346  1.0000
  C   C73       1.0  0.3632319643141173  0.1327512816206919  0.0035161823854394786  1.0000
  C   C74       1.0  0.2717594912548194  0.22588505948678514  0.0018501534637281377  1.0000
  C   C75       1.0  0.13496326623261717  0.3669205063697021  0.9991964554495918  1.0000
  C   C76       1.0  0.2259139428344383  0.2731853571617436  0.0008934901025768003  1.0000
  C   C77       1.0  0.622163994683504  0.8052526233986725  0.07607222908964674  1.0000
  C   C78       1.0  0.6663258623846673  0.7574528228793582  0.07850594449124063  1.0000
  C   C79       1.0  0.6545319399402345  0.6941868209466051  0.15597628088677604  1.0000
  C   C80       1.0  0.6909120026192638  0.8806103478090249  0.9236616406077615  1.0000
  C   C81       1.0  0.7368088308877461  0.834801342543983  0.9236296349074062  1.0000
  C   C82       1.0  0.7965500288911685  0.8471685648196329  0.8483093816062417  1.0000
  C   C83       1.0  0.8757177187537337  0.6938586102353241  0.9269092222409152  1.0000
  C   C84       1.0  0.8303685635256457  0.7404722460526328  0.9246236986182974  1.0000
  C   C85       1.0  0.8417269450722741  0.8033286647700989  0.8471587334394286  1.0000
  C   C86       1.0  0.8048595465093625  0.6163419868203094  0.07931629379483236  1.0000
  C   C87       1.0  0.7591019429568888  0.6623094995950539  0.07947669085341147  1.0000
  C   C88       1.0  0.6992302186312713  0.649840288739064  0.15478235354353836  1.0000
  C   C89       1.0  0.6342258157890726  0.8660570710197248  0.9996041434447347  1.0000
  C   C90       1.0  0.7250829260542488  0.7722555740661932  0.0012426483316971642  1.0000
  C   C91       1.0  0.8630253754345887  0.632462867337672  0.0033371129061877335  1.0000
  C   C92       1.0  0.7711842737034189  0.7252231516277658  0.0018589860505501266  1.0000
  N   N1        1.0  0.9044138136242452  0.38988434239785624  0.21896352295460275  1.0000
  N   N2        1.0  0.7841804366346493  0.26177987095291394  0.4821361753262605  1.0000
  N   N3        1.0  0.715860060225026  0.24402979062313077  0.5179286751979504  1.0000
  N   N4        1.0  0.5955741251281735  0.1088368542138483  0.7810935362414708  1.0000
  N   N5        1.0  0.09552702828820968  0.6087446753682287  0.7810104819999492  1.0000
  N   N6        1.0  0.2159339091390251  0.7439355705691285  0.5178739553051485  1.0000
  N   N7        1.0  0.2842534550522799  0.7618610747061468  0.4820847697947311  1.0000
  N   N8        1.0  0.4045094509400969  0.8898327078358652  0.2189521650319929  1.0000
  N   N9        1.0  0.011026216630625602  0.3854417105623256  0.22200756631882254  1.0000
  N   N10       1.0  0.4889777887149478  0.10796125776349898  0.7779951136969243  1.0000
  N   N11       1.0  0.9890200669422383  0.6068614057871571  0.7778955306433204  1.0000
  N   N12       1.0  0.5110932184072183  0.8849781963610396  0.22190365605628387  1.0000
  O   O1        1.0  0.454596871347931  0.9778736334993353  0.933164679816315  1.0000
  O   O2        1.0  0.4095567098566449  0.8907724180382319  0.07108842358548607  1.0000
  O   O3        1.0  0.3911516005216171  0.0216823255882943  0.0745221283830162  1.0000
  O   O4        1.0  0.47085900405721043  0.10699603249133108  0.9356097950810988  1.0000
  O   O5        1.0  0.5289239783764046  0.0419247485458456  0.0655487289501338  1.0000
  O   O6        1.0  0.6083370502893147  0.09502022260029722  0.9266482018646722  1.0000
  O   O7        1.0  0.5893689974420582  0.960951024674472  0.9298203767848959  1.0000
  O   O8        1.0  0.544663065549834  0.9099944941026196  0.06773236887931218  1.0000
  O   O9        1.0  0.04512640349106791  0.4108771525671103  0.0667602095086649  1.0000
  O   O10       1.0  0.09030416333940387  0.46172099024431656  0.9287728709251507  1.0000
  O   O11       1.0  0.10890104671119609  0.5958893592864454  0.9255440571779798  1.0000
  O   O12       1.0  0.02930337933388221  0.5424229416765557  0.06449521583287057  1.0000
  O   O13       1.0  0.9710409549499488  0.6074770372404927  0.9346290237463459  1.0000
  O   O14       1.0  0.8916741775709127  0.5217821902757507  0.07351724792044217  1.0000
  O   O15       1.0  0.9101530349717777  0.39121581714805126  0.07009518617449123  1.0000
  O   O16       1.0  0.9550998002529028  0.47805939732693037  0.932153370735484  1.0000
  F   F1        1.0  0.6910016568598678  0.1825097728478369  0.22585368700413955  1.0000
  F   F2        1.0  0.8112654282720441  0.31954043462277326  0.7710260610273634  1.0000
  F   F3        1.0  0.10491477108361376  0.5914071958660115  0.2244931756988109  1.0000
  F   F4        1.0  0.39711062458682267  0.910939509164933  0.7726303228981378  1.0000
  F   F5        1.0  0.1023158184395569  0.1834633375581518  0.22726535811769813  1.0000
  F   F6        1.0  0.39591378506661107  0.3164312885531118  0.7754736080845317  1.0000
  F   F7        1.0  0.6873770471465832  0.5896359835741052  0.2289586937739612  1.0000
  F   F8        1.0  0.8077828858048336  0.9069013514988387  0.7741658009933161  1.0000
