data_image0
_chemical_formula_structural       Cs4H28C60N16O4
_chemical_formula_sum              "Cs4 H28 C60 N16 O4"
_cell_length_a       8.88456182641186
_cell_length_b       10.19649059117816
_cell_length_c       16.366445086741432
_cell_angle_alpha    90.00052090288096
_cell_angle_beta     98.75413640274243
_cell_angle_gamma    90.00034697063263

_space_group_name_H-M_alt    "P 1"
_space_group_IT_number       1

loop_
  _space_group_symop_operation_xyz
  'x, y, z'

loop_
  _atom_site_type_symbol
  _atom_site_label
  _atom_site_symmetry_multiplicity
  _atom_site_fract_x
  _atom_site_fract_y
  _atom_site_fract_z
  _atom_site_occupancy
  Cs  Cs1       1.0  0.8536475168215674  0.8750146869018566  0.08249032556702927  1.0000
  Cs  Cs2       1.0  0.6463507458341838  0.37502172883077384  0.9175092935783621  1.0000
  Cs  Cs3       1.0  0.14635200066767598  0.12498144441657641  0.9175101820080581  1.0000
  Cs  Cs4       1.0  0.3536510421743202  0.6249783254178496  0.08249202019121066  1.0000
  H   H1        1.0  0.7525098877225178  0.7948833217976844  0.2708646728465992  1.0000
  H   H2        1.0  0.747494462857219  0.2948910915356749  0.7291386837584353  1.0000
  H   H3        1.0  0.24749305322272624  0.2051118287978539  0.7291355179751802  1.0000
  H   H4        1.0  0.25250506880207274  0.7051060205034788  0.2708606030013101  1.0000
  H   H5        1.0  0.9240963735485015  0.9227402815426518  0.3742690212173939  1.0000
  H   H6        1.0  0.5759068129957825  0.4227456412351243  0.6257355674640903  1.0000
  H   H7        1.0  0.07590544987437652  0.07725977268381712  0.6257292405059969  1.0000
  H   H8        1.0  0.4240972455276903  0.5772573552141084  0.37426655249682733  1.0000
  H   H9        1.0  0.16131486896110667  0.568197309641036  0.4600617272556489  1.0000
  H   H10       1.0  0.3386865161534445  0.06819789701273751  0.5399418452500483  1.0000
  H   H11       1.0  0.8386880720099229  0.43180372533202427  0.5399384635849385  1.0000
  H   H12       1.0  0.661310752129623  0.9318090223060056  0.46005602494987113  1.0000
  H   H13       1.0  0.9978121030079026  0.44058717429927446  0.3527684522652023  1.0000
  H   H14       1.0  0.5021935317069649  0.9405914210455822  0.647235225470254  1.0000
  H   H15       1.0  0.0021908167016065024  0.5594109184983154  0.6472335697936912  1.0000
  H   H16       1.0  0.4978014660525361  0.05941059461337521  0.3527618385320465  1.0000
  H   H17       1.0  0.1265609496300897  0.8166460944579158  0.549241684790928  1.0000
  H   H18       1.0  0.37344491190425094  0.31664164153222885  0.4507618406896014  1.0000
  H   H19       1.0  0.8734385749850093  0.18335984415194417  0.4507582124062706  1.0000
  H   H20       1.0  0.6265546056322722  0.6833652778116531  0.5492386669199687  1.0000
  H   H21       1.0  0.14537275923041196  0.9379294803017115  0.47387624424366226  1.0000
  H   H22       1.0  0.3546319231816851  0.4379299501072751  0.5261248088535024  1.0000
  H   H23       1.0  0.8546245232012099  0.062073516089824886  0.5261204051252475  1.0000
  H   H24       1.0  0.645372149524732  0.5620769692514428  0.4738760903014876  1.0000
  H   H25       1.0  0.27669712113234374  0.8034621083892477  0.48983280634960363  1.0000
  H   H26       1.0  0.22330977780102051  0.30345675120540244  0.5101695119047063  1.0000
  H   H27       1.0  0.7233058269473461  0.19654481095690102  0.510166774100554  1.0000
  H   H28       1.0  0.776692017316151  0.6965491874163092  0.4898311914744367  1.0000
  C   C1        1.0  0.7701045822773055  0.5413046891773517  0.23570486156012987  1.0000
  C   C2        1.0  0.7298975740309076  0.041305033107768514  0.7642944321408363  1.0000
  C   C3        1.0  0.2298926434870268  0.4586973265200457  0.7642966710795347  1.0000
  C   C4        1.0  0.27010313892240134  0.9586930596380939  0.23570129005298662  1.0000
  C   C5        1.0  0.8643826600064416  0.6095553838903953  0.3034900343353683  1.0000
  C   C6        1.0  0.6356257884797216  0.1095581666301015  0.6965101851628572  1.0000
  C   C7        1.0  0.13562255145806293  0.3904436896353404  0.6965109626808966  1.0000
  C   C8        1.0  0.3643703338979094  0.8904418875822555  0.3034881975380016  1.0000
  C   C9        1.0  0.8431532030552945  0.7455963128007214  0.3118433407479627  1.0000
  C   C10       1.0  0.6568552777593696  0.24559810470386625  0.6881594818599124  1.0000
  C   C11       1.0  0.1568497308242698  0.2544027607175964  0.6881574604955957  1.0000
  C   C12       1.0  0.34314423265988847  0.754400968807758  0.31184163613382043  1.0000
  C   C13       1.0  0.9383767701070271  0.8167695179840707  0.37054940984441487  1.0000
  C   C14       1.0  0.5616266122451776  0.3167738760716574  0.6294558200194657  1.0000
  C   C15       1.0  0.061620476893033106  0.1832295555112751  0.6294502915581359  1.0000
  C   C16       1.0  0.43837289818697667  0.6832281396287244  0.37054529798366775  1.0000
  C   C17       1.0  0.0549667178771713  0.754535393169924  0.424640464809549  1.0000
  C   C18       1.0  0.4450363358800973  0.2545380370346564  0.5753612470005647  1.0000
  C   C19       1.0  0.9450316891682888  0.24546466104541761  0.5753575032547855  1.0000
  C   C20       1.0  0.5549666263524529  0.7454659401138669  0.424637112621724  1.0000
  C   C21       1.0  0.07215776663222331  0.6176990953243761  0.41812258613374087  1.0000
  C   C22       1.0  0.42784635119476633  0.11770076307362133  0.5818796674078113  1.0000
  C   C23       1.0  0.9278463202055603  0.3822999781887831  0.5818770921776916  1.0000
  C   C24       1.0  0.5721520416935422  0.8823012526097572  0.4181195214812589  1.0000
  C   C25       1.0  0.9800631052671067  0.5459567521139378  0.3579441467529206  1.0000
  C   C26       1.0  0.519945896273569  0.0459649976343073  0.6420582056711195  1.0000
  C   C27       1.0  0.019944383760865506  0.45403741777128187  0.642057046020376  1.0000
  C   C28       1.0  0.48004908024161363  0.954037998767532  0.3579406895620209  1.0000
  C   C29       1.0  0.8056818061307923  0.39954899891917256  0.21530984133561046  1.0000
  C   C30       1.0  0.6943121163947908  0.8995562601964695  0.7846895431240737  1.0000
  C   C31       1.0  0.19431201738748172  0.6004451709215459  0.7846901768014402  1.0000
  C   C32       1.0  0.30568399181279204  0.10044281329516741  0.21531006039212022  1.0000
  C   C33       1.0  0.8885261561577878  0.38580969039168883  0.14869252424310278  1.0000
  C   C34       1.0  0.6114733399142835  0.8858184679194847  0.8513072618115556  1.0000
  C   C35       1.0  0.11147107666363348  0.6141864409237527  0.8513083979685161  1.0000
  C   C36       1.0  0.3885216649366897  0.11418550919421482  0.1486891917877813  1.0000
  C   C37       1.0  0.9453008074437578  0.49873863586987704  0.11381525728720014  1.0000
  C   C38       1.0  0.5546939632284378  0.9987495847316907  0.8861865925763863  1.0000
  C   C39       1.0  0.054698660456757905  0.5012555340203946  0.8861895231462708  1.0000
  C   C40       1.0  0.44529989573428713  0.0012514501939762002  0.11381037353643109  1.0000
  C   C41       1.0  0.9177484483382659  0.26775219202755113  0.10893868977750996  1.0000
  C   C42       1.0  0.5822523046995373  0.7677535495941399  0.8910593164124445  1.0000
  C   C43       1.0  0.08224993036709091  0.7322459007463495  0.8910617199174948  1.0000
  C   C44       1.0  0.4177472482255738  0.23224748535007217  0.10893813913214245  1.0000
  C   C45       1.0  0.745309886778152  0.3003454223964681  0.2594953634109841  1.0000
  C   C46       1.0  0.754683137891753  0.8003474533766735  0.7405058284153863  1.0000
  C   C47       1.0  0.25468618600646664  0.6996516896581542  0.7405072921451177  1.0000
  C   C48       1.0  0.24531525497935996  0.1996506393883593  0.2594933604611426  1.0000
  C   C49       1.0  0.7603221864959552  0.16515667385066019  0.24328216031133099  1.0000
  C   C50       1.0  0.7396707849623071  0.6651549393293977  0.7567188754755134  1.0000
  C   C51       1.0  0.23967163703520808  0.8348404381788156  0.7567178578351201  1.0000
  C   C52       1.0  0.2603298642408305  0.3348421727267592  0.24328234039830213  1.0000
  C   C53       1.0  0.6615231463731704  0.3318359173299826  0.32383145019003473  1.0000
  C   C54       1.0  0.8384781329288986  0.8318364703164535  0.6761700177598937  1.0000
  C   C55       1.0  0.3384763569546152  0.6681611947268992  0.6761702782066619  1.0000
  C   C56       1.0  0.16152025994651353  0.16816260317816764  0.3238291711197689  1.0000
  C   C57       1.0  0.15732070038985313  0.832828743896819  0.4874612023684007  1.0000
  C   C58       1.0  0.3426853313386787  0.332829933534896  0.5125399849562553  1.0000
  C   C59       1.0  0.8426833793865425  0.16717523326870073  0.512539086367944  1.0000
  C   C60       1.0  0.6573176238238859  0.6671769858068188  0.48745898508467156  1.0000
  N   N1        1.0  0.9922356540046664  0.5917166092111472  0.08383754390915493  1.0000
  N   N2        1.0  0.5077646382601629  0.09172192186514393  0.9161643179782286  1.0000
  N   N3        1.0  0.007775180584872007  0.4082805029182667  0.9161700466249623  1.0000
  N   N4        1.0  0.49223033115494985  0.9082771516227836  0.08383518765160858  1.0000
  N   N5        1.0  0.9441642141534389  0.17558791893495146  0.07057205290472979  1.0000
  N   N6        1.0  0.5558459660539796  0.6755906776890441  0.9294274658372925  1.0000
  N   N7        1.0  0.055842086514829206  0.824409193166332  0.9294333148562611  1.0000
  N   N8        1.0  0.44415817035532973  0.32440643433392313  0.07056793960322237  1.0000
  N   N9        1.0  0.7708334121889777  0.05286110829941042  0.23037450833174936  1.0000
  N   N10       1.0  0.7291654219575109  0.5528634296015795  0.7696251760111463  1.0000
  N   N11       1.0  0.22916269601431344  0.9471369844626383  0.7696250951813111  1.0000
  N   N12       1.0  0.2708397611669043  0.4471336824827077  0.23037826263578853  1.0000
  N   N13       1.0  0.5920855303699925  0.35554918576641364  0.3773834091803819  1.0000
  N   N14       1.0  0.9079113520355973  0.8555522654255515  0.6226220917065601  1.0000
  N   N15       1.0  0.4079139942279114  0.6444528299251076  0.6226164880042828  1.0000
  N   N16       1.0  0.09208818669797128  0.14444288514999934  0.3773765846376803  1.0000
  O   O1        1.0  0.6644725176313813  0.5941291080268628  0.18891690406844924  1.0000
  O   O2        1.0  0.8355278099365508  0.09413265114662292  0.8110837524190085  1.0000
  O   O3        1.0  0.33551786119515736  0.40586898473880234  0.8110852620590163  1.0000
  O   O4        1.0  0.16447861112769152  0.9058615186905712  0.18891123837557433  1.0000
