data_image0
_chemical_formula_structural       Zn2H46C54N2Cl2O8
_chemical_formula_sum              "Zn2 H46 C54 N2 Cl2 O8"
_cell_length_a       10.90869856758697
_cell_length_b       14.57446117530937
_cell_length_c       15.857820831792964
_cell_angle_alpha    78.45960781296955
_cell_angle_beta     87.87120376551923
_cell_angle_gamma    69.89564682807428

_space_group_name_H-M_alt    "P 1"
_space_group_IT_number       1

loop_
  _space_group_symop_operation_xyz
  'x, y, z'

loop_
  _atom_site_type_symbol
  _atom_site_label
  _atom_site_symmetry_multiplicity
  _atom_site_fract_x
  _atom_site_fract_y
  _atom_site_fract_z
  _atom_site_occupancy
  Zn  Zn1       1.0  0.4484047230362052  0.5963185565734362  0.5099533760509516  1.0000
  Zn  Zn2       1.0  0.5440866235983532  0.3991954711474222  0.48735379029393755  1.0000
  H   H1        1.0  0.8574002306869272  0.5607702201496352  0.6113866982599349  1.0000
  H   H2        1.0  0.1376776058316693  0.42237336149010213  0.4060077508674383  1.0000
  H   H3        1.0  0.9684324914621455  0.338535788997163  0.5111911582728441  1.0000
  H   H4        1.0  0.1762807354391924  0.33630633150391986  0.5427355496216821  1.0000
  H   H5        1.0  0.30869312447415326  0.7635054641071477  0.9388168735333909  1.0000
  H   H6        1.0  0.45693198616195446  0.5395920393368883  0.7775677264849892  1.0000
  H   H7        1.0  0.628215460105828  0.23380021935979292  0.7589799356570951  1.0000
  H   H8        1.0  0.5980568181527772  0.22680822076871007  0.06277970955374461  1.0000
  H   H9        1.0  0.2972951563912217  0.809841474639171  0.08022310829230159  1.0000
  H   H10       1.0  0.34226206735240783  0.7610952751020645  0.23968718406817405  1.0000
  H   H11       1.0  0.49869671827554635  0.4541135062047059  0.22277390373871955  1.0000
  H   H12       1.0  0.8056051739064644  0.6514106140761342  0.5165789952895781  1.0000
  H   H13       1.0  0.3774849892670319  0.637729799578217  0.8487828511739866  1.0000
  H   H14       1.0  0.528408362522306  0.3529592771617799  0.15250974526389174  1.0000
  H   H15       1.0  0.6382483717324873  0.1824330750697385  0.9196526907472704  1.0000
  H   H16       1.0  0.7200334503289695  0.9718535752053795  0.32107908817828007  1.0000
  H   H17       1.0  0.5286227991765885  0.7666535478666601  0.4560178441087076  1.0000
  H   H18       1.0  0.2648269243168783  0.7059891759519276  0.6311632110883707  1.0000
  H   H19       1.0  0.7113509178521653  0.2988347980674249  0.356619016360746  1.0000
  H   H20       1.0  0.46402078084330595  0.22909382477406126  0.5394378874848658  1.0000
  H   H21       1.0  0.018756254130899177  0.6528416354863538  0.4874477483578731  1.0000
  H   H22       1.0  0.6133767348755724  0.858748926730321  0.39388964102190754  1.0000
  H   H23       1.0  0.35512256579520596  0.14991758853943787  0.5820813811894823  1.0000
  H   H24       1.0  0.20924074903513207  0.8702217772395783  0.6754084704963577  1.0000
  H   H25       1.0  0.9178026125112662  0.37703612449628565  0.6089003469488291  1.0000
  H   H26       1.0  0.9239126840908013  0.4526404375698974  0.3765875964237325  1.0000
  H   H27       1.0  0.0530088535237496  0.14467514490289796  0.5713530037307636  1.0000
  H   H28       1.0  0.05297347916834378  0.0213595255300589  0.6073125788982028  1.0000
  H   H29       1.0  0.9938148270449785  0.11046970559291941  0.674429947821686  1.0000
  H   H30       1.0  0.21875507987923737  0.9968417829417786  0.7273286136702597  1.0000
  H   H31       1.0  0.2185337855305676  0.11867430317967378  0.6878131892800283  1.0000
  H   H32       1.0  0.7566296396213164  0.2864167256658447  0.21167529413776986  1.0000
  H   H33       1.0  0.8946339895693569  0.23138786083305973  0.2841823165427968  1.0000
  H   H34       1.0  0.8970786915805885  0.19338640511775645  0.18453365176124245  1.0000
  H   H35       1.0  0.8631051133066096  0.0643143311004053  0.30135070123672864  1.0000
  H   H36       1.0  0.7272391347876095  0.11850563206882468  0.2297374374284332  1.0000
  H   H37       1.0  0.33899249931337744  0.311609278268314  0.6711342896446483  1.0000
  H   H38       1.0  0.27713772177681056  0.4377599061255707  0.6820942157778732  1.0000
  H   H39       1.0  0.2684720609503941  0.34335685914502523  0.76887822074729  1.0000
  H   H40       1.0  0.049786445163654484  0.4332880821424396  0.6930392014452311  1.0000
  H   H41       1.0  0.10717180332151333  0.30583055513924506  0.6905337038948363  1.0000
  H   H42       1.0  0.9396799156577842  0.5847962276993073  0.22676721249866466  1.0000
  H   H43       1.0  0.7979968904787283  0.5501229415791188  0.24578907366795735  1.0000
  H   H44       1.0  0.7816248585957624  0.6776544587480514  0.21436566226907428  1.0000
  H   H45       1.0  0.7464339757795526  0.6331274705793247  0.3715319262882205  1.0000
  H   H46       1.0  0.8830439106553313  0.6723787444825504  0.3546748088082766  1.0000
  C   C1        1.0  0.4526655372728782  0.5732308584710637  0.33379766595064814  1.0000
  C   C2        1.0  0.11610110056629708  0.4946680845873033  0.5140748616472238  1.0000
  C   C3        1.0  0.10192882865131024  0.3968477898377784  0.5674535225952513  1.0000
  C   C4        1.0  0.07827295049488459  0.4956226157375739  0.4187473986217897  1.0000
  C   C5        1.0  0.4248161701229164  0.603912930204814  0.2385993647608587  1.0000
  C   C6        1.0  0.541255379726273  0.3908122039182302  0.7606361594314567  1.0000
  C   C7        1.0  0.3421977622323382  0.7316465361551038  0.11140679259851545  1.0000
  C   C8        1.0  0.3668107233275393  0.7054482698357559  0.1992344465941543  1.0000
  C   C9        1.0  0.4556181642663403  0.5311517305968395  0.18905325586257504  1.0000
  C   C10       1.0  0.43342531067754203  0.5554598266080716  0.09902867282124116  1.0000
  C   C11       1.0  0.3757334377624558  0.6584757550421613  0.059503459171431024  1.0000
  C   C12       1.0  0.7369927316714705  0.49632294969573115  0.4920705987111803  1.0000
  C   C13       1.0  0.46942473039696614  0.48075177074318987  0.04587071729879711  1.0000
  C   C14       1.0  0.45383358810095586  0.5108160612819715  0.9550311970062924  1.0000
  C   C15       1.0  0.3937204096853149  0.614282161950115  0.9183052618910853  1.0000
  C   C16       1.0  0.35494296647312495  0.6849400924593565  0.9684184269494556  1.0000
  C   C17       1.0  0.520996905621814  0.3767102580919611  0.08271360469961314  1.0000
  C   C18       1.0  0.5598048583433765  0.30584706598697414  0.0327335948909635  1.0000
  C   C19       1.0  0.5526853407424923  0.3331604474734747  0.9411589847006996  1.0000
  C   C20       1.0  0.49916448106525024  0.43651080949451415  0.9017218057372676  1.0000
  C   C21       1.0  0.5980429315179876  0.26101006896535484  0.8884993041976872  1.0000
  C   C22       1.0  0.593023300662679  0.28877016357788676  0.7998698386309047  1.0000
  C   C23       1.0  0.5322312911404053  0.42462392719613007  0.6646919395839177  1.0000
  C   C24       1.0  0.4952612944484969  0.4622365431290233  0.8111766779668275  1.0000
  C   C25       1.0  0.6925869493807539  0.15612763935104101  0.3537264184605959  1.0000
  C   C26       1.0  0.6681377894110054  0.24290875713162316  0.38429240314911084  1.0000
  C   C27       1.0  0.5276652418262698  0.20419323830589056  0.4879180631082534  1.0000
  C   C28       1.0  0.5432538078373527  0.11378746530758117  0.4625054050754472  1.0000
  C   C29       1.0  0.6306867342063639  0.0877661371596474  0.3949578246554921  1.0000
  C   C30       1.0  0.47464097309929076  0.0486128946010638  0.5032434829169079  1.0000
  C   C31       1.0  0.501416278857796  0.9554700746011662  0.4791458528601569  1.0000
  C   C32       1.0  0.5920597697269228  0.9301637266765964  0.4131249378349794  1.0000
  C   C33       1.0  0.652825213966082  0.9939232354990464  0.3718063156533518  1.0000
  C   C34       1.0  0.2577063769205736  0.4935682659724561  0.5120445884946963  1.0000
  C   C35       1.0  0.3789148794580441  0.07661092573650308  0.5659185977953813  1.0000
  C   C36       1.0  0.31198719868645236  0.016681609065408096  0.6064211350890221  1.0000
  C   C37       1.0  0.3412682018954385  0.9197815045586208  0.5858972248567939  1.0000
  C   C38       1.0  0.43463409389818264  0.8899696215517992  0.5221337628439926  1.0000
  C   C39       1.0  0.28040987646974713  0.8514940993673147  0.6260451970081393  1.0000
  C   C40       1.0  0.31036575695196694  0.7603477022316338  0.6027671165428218  1.0000
  C   C41       1.0  0.45820636952658583  0.795056681673344  0.5033209661517617  1.0000
  C   C42       1.0  0.880604511560996  0.5799479535057585  0.5435993535989994  1.0000
  C   C43       1.0  0.016593345903508815  0.5893742345841699  0.5372332035198542  1.0000
  C   C44       1.0  0.9641688816676678  0.3956823684893108  0.5481748717435979  1.0000
  C   C45       1.0  0.9298806970094516  0.513379142483288  0.40609020921758804  1.0000
  C   C46       1.0  0.8762201010242238  0.49744879628051547  0.4977818377705818  1.0000
  C   C47       1.0  0.20665951918428493  0.053972821881309606  0.6680593860741271  1.0000
  C   C48       1.0  0.06861247194773057  0.08415527676053358  0.6281002868166825  1.0000
  C   C49       1.0  0.7811253660626891  0.13438885965908293  0.27931823137171824  1.0000
  C   C50       1.0  0.8349902989157556  0.21614980529292174  0.23803308590577651  1.0000
  C   C51       1.0  0.12559968409176753  0.3761330653659839  0.6656439136587056  1.0000
  C   C52       1.0  0.2598478781544599  0.3665375238549942  0.698393314458997  1.0000
  C   C53       1.0  0.8466627483384668  0.6123736038469544  0.34823240218634066  1.0000
  C   C54       1.0  0.8417931525081599  0.6058215655370347  0.2534230503415032  1.0000
  N   N1        1.0  0.5887250112330449  0.2653957464523912  0.4507601396284643  1.0000
  N   N2        1.0  0.3982433534839415  0.7332246875326333  0.5415626214143003  1.0000
  Cl  Cl1       1.0  0.0544445985443644  0.6222460141724114  0.6355530889936248  1.0000
  Cl  Cl2       1.0  0.13346219440752785  0.5806948070690581  0.3409487096712383  1.0000
  O   O1        1.0  0.43184216750427123  0.6416648636941956  0.3770885450843694  1.0000
  O   O2        1.0  0.4951332330520657  0.4797950802294009  0.36443244425537114  1.0000
  O   O3        1.0  0.6445342083232718  0.5735299701709163  0.5046081967198006  1.0000
  O   O4        1.0  0.724176853755573  0.4181597870200661  0.4756407766122734  1.0000
  O   O5        1.0  0.48231287000405837  0.5180431298639546  0.6361832600372211  1.0000
  O   O6        1.0  0.5735057054315289  0.358048455104324  0.6188253460479772  1.0000
  O   O7        1.0  0.27376170368543024  0.5754778269328752  0.512811475690022  1.0000
  O   O8        1.0  0.34660192484412977  0.41198779558826704  0.5054938682307366  1.0000
