data_image0
_chemical_formula_structural       Zn2H24C32O10
_chemical_formula_sum              "Zn2 H24 C32 O10"
_cell_length_a       5.722906009737754
_cell_length_b       7.907964125304266
_cell_length_c       15.006004658894184
_cell_angle_alpha    97.14645227890875
_cell_angle_beta     90.06954603437126
_cell_angle_gamma    90.18197748290953

_space_group_name_H-M_alt    "P 1"
_space_group_IT_number       1

loop_
  _space_group_symop_operation_xyz
  'x, y, z'

loop_
  _atom_site_type_symbol
  _atom_site_label
  _atom_site_symmetry_multiplicity
  _atom_site_fract_x
  _atom_site_fract_y
  _atom_site_fract_z
  _atom_site_occupancy
  Zn  Zn1       1.0  0.6898930201153418  0.2502133787165022  0.500072367833063  1.0000
  Zn  Zn2       1.0  0.31017078567018075  0.7497627273800235  0.4999469577896463  1.0000
  H   H1        1.0  0.13259627690276687  0.15416581196373616  0.5160876559055154  1.0000
  H   H2        1.0  0.13373302886099483  0.34692081460071483  0.4854056659059935  1.0000
  H   H3        1.0  0.8674559716998117  0.8459823196981662  0.4841050291205633  1.0000
  H   H4        1.0  0.8662580473293461  0.6532197433597344  0.5147886529493846  1.0000
  H   H5        1.0  0.9860157001350063  0.0689426892829132  0.3256049882504755  1.0000
  H   H6        1.0  0.9841290814386737  0.43183578458780403  0.6743265562005121  1.0000
  H   H7        1.0  0.0140968129539019  0.9310087415455682  0.6743145108953783  1.0000
  H   H8        1.0  0.015820884053923095  0.5680860544366908  0.3256082002937646  1.0000
  H   H9        1.0  0.1221529237425827  0.0969044626130184  0.172090563738621  1.0000
  H   H10       1.0  0.12091510938028453  0.403578347965535  0.8279012276101769  1.0000
  H   H11       1.0  0.8778094447900459  0.9031027364141695  0.8278301528275165  1.0000
  H   H12       1.0  0.8791591808245371  0.596455620711467  0.17203743038452055  1.0000
  H   H13       1.0  0.4989490222494198  0.8356023610450123  0.0648587485181906  1.0000
  H   H14       1.0  0.4997166278601242  0.663841285412552  0.9351433126919846  1.0000
  H   H15       1.0  0.5009539193244521  0.16435901522545043  0.9351158416199825  1.0000
  H   H16       1.0  0.5003628971444414  0.33615075743765727  0.0648494158002109  1.0000
  H   H17       1.0  0.36961079435310745  0.8032031290347632  0.2194696885041623  1.0000
  H   H18       1.0  0.3698563848358276  0.6965455838897726  0.7805035120692878  1.0000
  H   H19       1.0  0.6304407265464677  0.19676741623966623  0.7805247026446409  1.0000
  H   H20       1.0  0.630123406895045  0.30338331459253004  0.21949559676455271  1.0000
  H   H21       1.0  0.7675957766650826  0.9222004941887578  0.9628120495311379  1.0000
  H   H22       1.0  0.7685067603898545  0.577766392558587  0.03712834996049711  1.0000
  H   H23       1.0  0.2323072350979132  0.0778133616258927  0.037132300894505504  1.0000
  H   H24       1.0  0.23153603330018063  0.422227655628916  0.9628391223126371  1.0000
  C   C1        1.0  0.5985006872707784  0.9092140812242564  0.3750648448182901  1.0000
  C   C2        1.0  0.597456244208402  0.591521087967763  0.6250401461739729  1.0000
  C   C3        1.0  0.4017168100259668  0.09075109872974002  0.6249226700527188  1.0000
  C   C4        1.0  0.4022614285258257  0.40840467485491433  0.37495475095901304  1.0000
  C   C5        1.0  0.6704757691539881  0.9331421372327426  0.2822846181021034  1.0000
  C   C6        1.0  0.6698251369294468  0.5673138151981619  0.7177578976775651  1.0000
  C   C7        1.0  0.3295756828803249  0.06681531329583382  0.7176858256239599  1.0000
  C   C8        1.0  0.3301178677894256  0.43260450689712826  0.2821993666421818  1.0000
  C   C9        1.0  0.8817138652092852  0.016830091447602103  0.267777415409796  1.0000
  C   C10       1.0  0.8807037676510421  0.48381392694110303  0.7322143417580377  1.0000
  C   C11       1.0  0.118306106006429  0.9831296970591057  0.732172456766584  1.0000
  C   C12       1.0  0.11927426604589898  0.5161492598799741  0.2677303429594247  1.0000
  C   C13       1.0  0.9572211344279253  0.03196453470205542  0.18131307192009422  1.0000
  C   C14       1.0  0.9563657468199905  0.46837508590110133  0.8186880886040129  1.0000
  C   C15       1.0  0.042760466536911707  0.9680327169796004  0.818628526824142  1.0000
  C   C16       1.0  0.043684060389573204  0.5316476713958949  0.181254044032741  1.0000
  C   C17       1.0  0.822681777877051  0.964962798443331  0.10597398445161592  1.0000
  C   C18       1.0  0.8225054328137203  0.5350130968218849  0.893997919934236  1.0000
  C   C19       1.0  0.17725795384693302  0.035054393993498016  0.8939811995023845  1.0000
  C   C20       1.0  0.1775653224516418  0.46499038023863193  0.10595866051494342  1.0000
  C   C21       1.0  0.6076155578392531  0.8858801723638479  0.1218980562626371  1.0000
  C   C22       1.0  0.6078483159219487  0.6138771631040354  0.8780970416093012  1.0000
  C   C23       1.0  0.39231020208256945  0.11413496943330162  0.8780643643582309  1.0000
  C   C24       1.0  0.39220844835079305  0.38611194705659113  0.1218722054818571  1.0000
  C   C25       1.0  0.5332084228770668  0.8681435659692626  0.2083479261680594  1.0000
  C   C26       1.0  0.5332021514421257  0.6318512494888752  0.7916625285648138  1.0000
  C   C27       1.0  0.4667924722027976  0.13185655328277332  0.7916344881073557  1.0000
  C   C28       1.0  0.46680558870373556  0.3680888788543086  0.2083151024852228  1.0000
  C   C29       1.0  0.8959017619278385  0.9712856027840002  0.013607945332218188  1.0000
  C   C30       1.0  0.8961202208455816  0.5287271447713523  0.9863507813403204  1.0000
  C   C31       1.0  0.10402397706384651  0.028734507866055012  0.9863347005050755  1.0000
  C   C32       1.0  0.1039418287053451  0.47128447662613837  0.013613510267333595  1.0000
  O   O1        1.0  0.7130246259654387  0.9847931084515764  0.4419215896023942  1.0000
  O   O2        1.0  0.7118150631255133  0.5168692549811453  0.558235921092404  1.0000
  O   O3        1.0  0.28733782301523547  0.01516911750940151  0.5580211454284552  1.0000
  O   O4        1.0  0.28769464549774426  0.4830887667703792  0.4416970712180444  1.0000
  O   O5        1.0  0.4296628571768153  0.8063151616697084  0.38356195600898957  1.0000
  O   O6        1.0  0.42836714650078284  0.6935747476470837  0.6165245913096982  1.0000
  O   O7        1.0  0.5705722048338301  0.19365821139079037  0.6164699553736241  1.0000
  O   O8        1.0  0.5713331182988384  0.30633736164215014  0.3835296839932525  1.0000
  O   O9        1.0  0.0344194184852213  0.2525909416871884  0.5033675350593257  1.0000
  O   O10       1.0  0.9656535100738992  0.7478708731279582  0.4972818335582474  1.0000
