data_image0
_chemical_formula_structural       Cd2H28C44N24O8
_chemical_formula_sum              "Cd2 H28 C44 N24 O8"
_cell_length_a       4.385399367051946
_cell_length_b       9.641722468711537
_cell_length_c       26.207727270014477
_cell_angle_alpha    89.99997989291316
_cell_angle_beta     90.00012092909927
_cell_angle_gamma    93.06504160269954

_space_group_name_H-M_alt    "P 1"
_space_group_IT_number       1

loop_
  _space_group_symop_operation_xyz
  'x, y, z'

loop_
  _atom_site_type_symbol
  _atom_site_label
  _atom_site_symmetry_multiplicity
  _atom_site_fract_x
  _atom_site_fract_y
  _atom_site_fract_z
  _atom_site_occupancy
  Cd  Cd1       1.0  0.7009836274263037  0.23019648607602522  0.080385943856065  1.0000
  Cd  Cd2       1.0  0.29901690019882216  0.7698021022586733  0.5803849358007866  1.0000
  H   H1        1.0  0.4683684303716334  0.868740756396186  0.9057638035859483  1.0000
  H   H2        1.0  0.5316180023206555  0.13125862965508628  0.40576361914038017  1.0000
  H   H3        1.0  0.9782869517774915  0.6740802846870225  0.0323512770729337  1.0000
  H   H4        1.0  0.021710584397943905  0.32591729359539573  0.5323502267821354  1.0000
  H   H5        1.0  0.8805858476237205  0.4302525131426338  0.8775943507377235  1.0000
  H   H6        1.0  0.11942817899457481  0.5697521231500604  0.3775924368519554  1.0000
  H   H7        1.0  0.5340728475458079  0.2522791531449045  0.21430443080504352  1.0000
  H   H8        1.0  0.46591793760934064  0.7477193305675063  0.7143034851441497  1.0000
  H   H9        1.0  0.957527478702602  0.593000950130943  0.2571937434954634  1.0000
  H   H10       1.0  0.04247763739621041  0.4069985630381155  0.7571942165187693  1.0000
  H   H11       1.0  0.815372696304493  0.02140883377014551  0.217567655481723  1.0000
  H   H12       1.0  0.1846364896839745  0.9785907120217133  0.717568869313304  1.0000
  H   H13       1.0  0.42786826217803053  0.787696372836358  0.12882310041485567  1.0000
  H   H14       1.0  0.5721301252046517  0.21229802568404213  0.6288237873689295  1.0000
  H   H15       1.0  0.478141242972498  0.5625282033661563  0.1030017317496217  1.0000
  H   H16       1.0  0.5218662920418282  0.4374693409616201  0.60300237197972  1.0000
  H   H17       1.0  0.6229495540303558  0.6132480960462984  0.3154402440614419  1.0000
  H   H18       1.0  0.37705651457676487  0.38675345585730997  0.81544045752279  1.0000
  H   H19       1.0  0.2340057276639484  0.9886606523515414  0.3549353724039364  1.0000
  H   H20       1.0  0.7660148599306426  0.011344008535424204  0.854935009541947  1.0000
  H   H21       1.0  0.15455521164290087  0.7792800353588166  0.7899631740009595  1.0000
  H   H22       1.0  0.8454236333843  0.22072564956521037  0.2899623269900928  1.0000
  H   H23       1.0  0.9265365722910419  0.8998268907102799  0.0581901975127437  1.0000
  H   H24       1.0  0.07346368006988513  0.10017171231265114  0.5581895761158862  1.0000
  H   H25       1.0  0.8640261866890313  0.20625956064309048  0.9453423198556408  1.0000
  H   H26       1.0  0.13596780896911304  0.7937418860966549  0.4453411463787659  1.0000
  H   H27       1.0  0.5873803825580808  0.43793188363587643  0.9448286666958337  1.0000
  H   H28       1.0  0.412618052979127  0.5620685312034726  0.44482838470677416  1.0000
  C   C1        1.0  0.28308375392585816  0.5469989699684421  0.9918441282588759  1.0000
  C   C2        1.0  0.7169107033660113  0.45300140735791683  0.4918435872525748  1.0000
  C   C3        1.0  0.5533224818811178  0.6533663158473504  0.9205434429683237  1.0000
  C   C4        1.0  0.446666414763925  0.34663306362326557  0.4205432006713821  1.0000
  C   C5        1.0  0.4197674138177446  0.7790373241766775  0.9300013086699295  1.0000
  C   C6        1.0  0.5802217151970269  0.22096308767499556  0.4300011301050048  1.0000
  C   C7        1.0  0.1461902599797256  0.6717995425393257  0.0018276883750373998  1.0000
  C   C8        1.0  0.8538047320736979  0.3281990913820324  0.5018280794827276  1.0000
  C   C9        1.0  0.9133611986816774  0.5351619860393273  0.8626441790423129  1.0000
  C   C10       1.0  0.08664123923342262  0.46484264414691284  0.3626426484332725  1.0000
  C   C11       1.0  0.4868118869813358  0.3490395443943728  0.1956297713021016  1.0000
  C   C12       1.0  0.5131877892150386  0.650958964475976  0.6956292364463009  1.0000
  C   C13       1.0  0.19551023716050514  0.6761866719886173  0.1912100095579419  1.0000
  C   C14       1.0  0.8044916648856529  0.32381184300636096  0.6912100020576374  1.0000
  C   C15       1.0  0.9991964467694601  0.6839605613796426  0.2329253301790715  1.0000
  C   C16       1.0  0.0008104188673029981  0.316036893769443  0.7329257999573427  1.0000
  C   C17       1.0  0.12321359568766613  0.9146694436155588  0.16945914456620406  1.0000
  C   C18       1.0  0.8767855258072004  0.08532700529309523  0.6694603380540727  1.0000
  C   C19       1.0  0.922886041584718  0.9244565037809664  0.21045826336063558  1.0000
  C   C20       1.0  0.07711586903187849  0.07553992119586894  0.710459554249688  1.0000
  C   C21       1.0  0.2623520142365479  0.7903261754754995  0.15969907882912787  1.0000
  C   C22       1.0  0.7376469862205327  0.20967027989178896  0.6597009698955603  1.0000
  C   C23       1.0  0.865342118733018  0.8099354240572441  0.24227215985384015  1.0000
  C   C24       1.0  0.13466269723705443  0.1900630603464181  0.7422726935093705  1.0000
  C   C25       1.0  0.1993664118473291  0.04063495608371432  0.1367047522840465  1.0000
  C   C26       1.0  0.8006370948982849  0.9593635981807511  0.6367050437352049  1.0000
  C   C27       1.0  0.463520823277932  0.5045356543142817  0.1383378759034883  1.0000
  C   C28       1.0  0.5364872650375005  0.4954629052695055  0.6383377508052988  1.0000
  C   C29       1.0  0.5600647388343418  0.7210255850043199  0.3175075551564603  1.0000
  C   C30       1.0  0.4399460318051426  0.2789770105710759  0.8175078048399199  1.0000
  C   C31       1.0  0.36885399285937837  0.9119764920793759  0.3362897555660282  1.0000
  C   C32       1.0  0.6311637376116509  0.0880250620267873  0.8362893347718694  1.0000
  C   C33       1.0  0.21776459141041477  0.7866525502862135  0.9708861603565494  1.0000
  C   C34       1.0  0.7822273253040848  0.21334783770952018  0.47088529173020527  1.0000
  C   C35       1.0  0.040965862618570284  0.7117047034239762  0.8179827567128086  1.0000
  C   C36       1.0  0.9590178912224592  0.2883009693574864  0.3179823231739006  1.0000
  C   C37       1.0  0.20269780429612178  0.42047148482885893  0.0241554804507018  1.0000
  C   C38       1.0  0.7972997453158329  0.5795271375169976  0.5241550561306241  1.0000
  C   C39       1.0  0.9431786401106663  0.9576665045415995  0.0228357385205342  1.0000
  C   C40       1.0  0.0568235695243899  0.04233316371767871  0.5228347370105908  1.0000
  C   C41       1.0  0.920319757364318  0.11240400512904364  0.9651876278876867  1.0000
  C   C42       1.0  0.0796720886785636  0.8875963866377606  0.46518680388810196  1.0000
  C   C43       1.0  0.4873443561050266  0.5372663385129927  0.9513282522566654  1.0000
  C   C44       1.0  0.5126494836426758  0.46273302698539726  0.4513276371020396  1.0000
  N   N1        1.0  0.8419917412871385  0.08325649130648574  0.014762203320991296  1.0000
  N   N2        1.0  0.15800364131816744  0.9167442113356616  0.5147611261537861  1.0000
  N   N3        1.0  0.07784678931707131  0.913531728127268  0.9797999105140961  1.0000
  N   N4        1.0  0.9221428422144485  0.08646761212948215  0.47979987117855666  1.0000
  N   N5        1.0  0.06386998126009759  0.012221839302611705  0.9424025984321176  1.0000
  N   N6        1.0  0.9361170208934338  0.9877785611423566  0.4424024488747733  1.0000
  N   N7        1.0  0.7599910722862689  0.6455270940818638  0.8793831008613182  1.0000
  N   N8        1.0  0.23999742896979367  0.3544733512673022  0.3793824022316699  1.0000
  N   N9        1.0  0.0928730490760756  0.5737315472840337  0.8238199845005809  1.0000
  N   N10       1.0  0.9071244611130354  0.4262741408343446  0.323819514801137  1.0000
  N   N11       1.0  0.8409471342172666  0.7598650185042147  0.8506007571993449  1.0000
  N   N12       1.0  0.15903200252884633  0.24013647173192262  0.3506008074222464  1.0000
  N   N13       1.0  0.5609694482529194  0.3779572349869157  0.1459070430327998  1.0000
  N   N14       1.0  0.4390364532668016  0.6220413163882983  0.6459057222726584  1.0000
  N   N15       1.0  0.33530504857306204  0.5492470899763121  0.18186089160385416  1.0000
  N   N16       1.0  0.6647011837731612  0.45075039896543995  0.6818611995499638  1.0000
  N   N17       1.0  0.3504601500245031  0.45029095618004805  0.21907244476849286  1.0000
  N   N18       1.0  0.6495354857366209  0.5497096080566097  0.7190723530874834  1.0000
  N   N19       1.0  0.6663470290185814  0.8212965078662012  0.2843829861342044  1.0000
  N   N20       1.0  0.33366538132906237  0.17870403554979225  0.7843835922680424  1.0000
  N   N21       1.0  0.543555190174537  0.9448080431637255  0.2962267914219723  1.0000
  N   N22       1.0  0.45645748213269144  0.05519353105439251  0.7962274571702109  1.0000
  N   N23       1.0  0.3717308279945542  0.7753063692340664  0.35088240751319694  1.0000
  N   N24       1.0  0.6282850329441557  0.22469724929502644  0.8508823497887832  1.0000
  O   O1        1.0  0.040808627314085306  0.14564981729743215  0.1424141020870167  1.0000
  O   O2        1.0  0.9591948351606163  0.8543476945489421  0.6424140819869706  1.0000
  O   O3        1.0  0.421926990114649  0.030947728915805307  0.10576468126971149  1.0000
  O   O4        1.0  0.5780785286531724  0.9690518876636393  0.605764892047098  1.0000
  O   O5        1.0  0.36080503287228544  0.31544456819548133  0.0184087370165713  1.0000
  O   O6        1.0  0.6391948412038603  0.6845550997933005  0.518408242840529  1.0000
  O   O7        1.0  0.9784636857186301  0.43028108340689647  0.054700426358408494  1.0000
  O   O8        1.0  0.0215365233624709  0.5697175219254619  0.554699726408188  1.0000
