data_image0
_chemical_formula_structural       Cs4H40C28N4O8
_chemical_formula_sum              "Cs4 H40 C28 N4 O8"
_cell_length_a       7.152397821000834
_cell_length_b       10.747151730180432
_cell_length_c       12.144076497014584
_cell_angle_alpha    90.00009660064616
_cell_angle_beta     90.00014540021265
_cell_angle_gamma    92.35713980865059

_space_group_name_H-M_alt    "P 1"
_space_group_IT_number       1

loop_
  _space_group_symop_operation_xyz
  'x, y, z'

loop_
  _atom_site_type_symbol
  _atom_site_label
  _atom_site_symmetry_multiplicity
  _atom_site_fract_x
  _atom_site_fract_y
  _atom_site_fract_z
  _atom_site_occupancy
  Cs  Cs1       1.0  0.22877079139708908  0.06402732593580397  0.8564449229941004  1.0000
  Cs  Cs2       1.0  0.27122833449157474  0.9359752511915714  0.35644546588432036  1.0000
  Cs  Cs3       1.0  0.771227994158487  0.9359746967141261  0.14355274706401389  1.0000
  Cs  Cs4       1.0  0.7287689953354218  0.06402584022858798  0.643554674512167  1.0000
  H   H1        1.0  0.48824970569214093  0.19079309870847544  0.44222021931959427  1.0000
  H   H2        1.0  0.011747883943577583  0.8092012696455625  0.9422212957746224  1.0000
  H   H3        1.0  0.5117515305038722  0.8092033362703079  0.5577782741828727  1.0000
  H   H4        1.0  0.988250383186113  0.19079237160413243  0.057779668063695076  1.0000
  H   H5        1.0  0.4348173591644908  0.41746143081002174  0.41785291433022553  1.0000
  H   H6        1.0  0.06517994964386993  0.582530094722074  0.9178644346921843  1.0000
  H   H7        1.0  0.5651807351304046  0.5825294166277216  0.5821373446984522  1.0000
  H   H8        1.0  0.9348181446984895  0.41746075273721317  0.0821472339513036  1.0000
  H   H9        1.0  0.19109217278373342  0.5174104187657064  0.5343416980694826  1.0000
  H   H10       1.0  0.3089079180340875  0.4825849913089968  0.0343564377389498  1.0000
  H   H11       1.0  0.8089091785886211  0.48258787873312053  0.4656427968401715  1.0000
  H   H12       1.0  0.6910931453855512  0.5174086498843451  0.9656577012490286  1.0000
  H   H13       1.0  0.8264810903344966  0.3686180681219184  0.6608901768872925  1.0000
  H   H14       1.0  0.6735216837762439  0.6313843661095787  0.1608999972369176  1.0000
  H   H15       1.0  0.17351909333501678  0.6313839544857557  0.33910008215135423  1.0000
  H   H16       1.0  0.32647995567113947  0.3686185877502338  0.8391100245248708  1.0000
  H   H17       1.0  0.9749581336935195  0.5009299573554743  0.6871105778459208  1.0000
  H   H18       1.0  0.5250434737526318  0.49907439220621086  0.18712162430440318  1.0000
  H   H19       1.0  0.0250421651779007  0.49907392778383297  0.3128772108540331  1.0000
  H   H20       1.0  0.4749582233020888  0.5009294929223173  0.8128900443515832  1.0000
  H   H21       1.0  0.979813902696307  0.36718393698595253  0.7744625328084638  1.0000
  H   H22       1.0  0.5201867515126467  0.6328215196402026  0.2744688323885994  1.0000
  H   H23       1.0  0.0201864537861027  0.6328208794237257  0.22552854967913308  1.0000
  H   H24       1.0  0.47981366260813735  0.367184228052281  0.7255378955874862  1.0000
  H   H25       1.0  0.004672679276161807  0.707981624400922  0.6950398004279137  1.0000
  H   H26       1.0  0.49532695629986984  0.29201783411702564  0.1950421805001596  1.0000
  H   H27       1.0  0.9953260486775549  0.29201946698277226  0.30495869307618045  1.0000
  H   H28       1.0  0.5046730545841385  0.7079813947010576  0.8049596067903833  1.0000
  H   H29       1.0  0.24622779555190283  0.7564164788217909  0.7005793434307178  1.0000
  H   H30       1.0  0.25377046645212425  0.24358299087622728  0.2005804662660395  1.0000
  H   H31       1.0  0.7537722729321389  0.24358368126169685  0.2994207969671265  1.0000
  H   H32       1.0  0.7462296020337505  0.7564171692080918  0.7994204975785163  1.0000
  H   H33       1.0  0.12707268172960803  0.7414920117269332  0.5707867471939067  1.0000
  H   H34       1.0  0.3729237794809491  0.2585099906410803  0.07078724708313189  1.0000
  H   H35       1.0  0.8729261614369579  0.25851094219336807  0.429214216651836  1.0000
  H   H36       1.0  0.6270748332726938  0.7414892382118125  0.9292145402063665  1.0000
  H   H37       1.0  0.15215939445434407  0.9543682531985452  0.6337386045014596  1.0000
  H   H38       1.0  0.34783723065955036  0.0456320133034609  0.13373709999317637  1.0000
  H   H39       1.0  0.8478393335048438  0.04563283818764319  0.36626235934279794  1.0000
  H   H40       1.0  0.6521613820904407  0.9543672155477766  0.8662630404028774  1.0000
  C   C1        1.0  0.2755337936169013  0.16613108251756606  0.5698740466883407  1.0000
  C   C2        1.0  0.2244666851247601  0.8338681241073258  0.06987354275712929  1.0000
  C   C3        1.0  0.7244661596579505  0.8338672150309705  0.4301252702612856  1.0000
  C   C4        1.0  0.7755361220145146  0.16613110463866582  0.9301257741953319  1.0000
  C   C5        1.0  0.3839243987767418  0.23718222884531304  0.4913148933311928  1.0000
  C   C6        1.0  0.11608051440104823  0.7628141006592841  0.991319349746824  1.0000
  C   C7        1.0  0.6160823723352351  0.7628132747263691  0.508682776727987  1.0000
  C   C8        1.0  0.8839262567255375  0.23718140291902048  0.008684907886141999  1.0000
  C   C9        1.0  0.35301005276675573  0.36249167959703493  0.47776185479979455  1.0000
  C   C10       1.0  0.14699060593014227  0.6375046227415808  0.977766992481335  1.0000
  C   C11       1.0  0.6469927543615696  0.6375075491439829  0.5222325214723326  1.0000
  C   C12       1.0  0.8530120284126712  0.3624918122098605  0.022238912042681094  1.0000
  C   C13       1.0  0.2177029793300491  0.4187716679489384  0.5423183722213522  1.0000
  C   C14       1.0  0.2822973772623385  0.5812274832412568  0.0423299266220738  1.0000
  C   C15       1.0  0.7823012259176921  0.5812275607523033  0.45767106337147107  1.0000
  C   C16       1.0  0.7177053146932907  0.4187698829813795  0.957680095136304  1.0000
  C   C17       1.0  0.11560715430978519  0.3448110786584664  0.6174124642830633  1.0000
  C   C18       1.0  0.38439236750238587  0.6551919487300139  0.1174168714204598  1.0000
  C   C19       1.0  0.8843903483100208  0.6551928065545879  0.3825794416484171  1.0000
  C   C20       1.0  0.6156106124589088  0.3448100738221314  0.8825873862145741  1.0000
  C   C21       1.0  0.9676196402239085  0.3988808089173901  0.6888809061134679  1.0000
  C   C22       1.0  0.5323791788019961  0.6011235442721272  0.1888879997117172  1.0000
  C   C23       1.0  0.03237646426552491  0.6011230763304666  0.3111109998169752  1.0000
  C   C24       1.0  0.4676183814543506  0.3988812722229015  0.8111187282615333  1.0000
  C   C25       1.0  0.11251172151653321  0.7703403657247136  0.6576216853188511  1.0000
  C   C26       1.0  0.38748652283383234  0.2296618113363564  0.1576229870487538  1.0000
  C   C27       1.0  0.8874871792518916  0.22966351946182323  0.3423784550809116  1.0000
  C   C28       1.0  0.6125108069968165  0.7703392800854587  0.8423788002411853  1.0000
  N   N1        1.0  0.14191730663338123  0.2219630848277774  0.6306427101088019  1.0000
  N   N2        1.0  0.3580850124907754  0.7780390378432639  0.1306447922652367  1.0000
  N   N3        1.0  0.8580856733078264  0.7780389377152584  0.3693524896122682  1.0000
  N   N4        1.0  0.6419164541272907  0.22196112220708383  0.8693569950270896  1.0000
  O   O1        1.0  0.30516920810602954  0.04855771303853369  0.5854659441659961  1.0000
  O   O2        1.0  0.1948286011045539  0.9514424562942947  0.08546310235264797  1.0000
  O   O3        1.0  0.6948322585120364  0.9514424470118071  0.4145358431263304  1.0000
  O   O4        1.0  0.8051714673721977  0.048557703785881784  0.9145337442582998  1.0000
  O   O5        1.0  0.0539185217735678  0.8944054231945772  0.6675944980577311  1.0000
  O   O6        1.0  0.4460768553239661  0.10559491146809559  0.16759487739347628  1.0000
  O   O7        1.0  0.946078865655288  0.10559659949181817  0.3324048188927833  1.0000
  O   O8        1.0  0.5539176206459048  0.8944052487579269  0.8324085567870723  1.0000
