data_image0
_chemical_formula_structural       Bi2H20C20N22
_chemical_formula_sum              "Bi2 H20 C20 N22"
_cell_length_a       6.312942411554039
_cell_length_b       10.777737619673
_cell_length_c       12.168007897578608
_cell_angle_alpha    116.37865884035753
_cell_angle_beta     90.00098178718291
_cell_angle_gamma    89.99851750242988

_space_group_name_H-M_alt    "P 1"
_space_group_IT_number       1

loop_
  _space_group_symop_operation_xyz
  'x, y, z'

loop_
  _atom_site_type_symbol
  _atom_site_label
  _atom_site_symmetry_multiplicity
  _atom_site_fract_x
  _atom_site_fract_y
  _atom_site_fract_z
  _atom_site_occupancy
  Bi  Bi1       1.0  0.11798558420684908  0.6308999250975236  0.9999641810341873  1.0000
  Bi  Bi2       1.0  0.6179857213068303  0.3690992447456978  3.333406654348582e-05  1.0000
  H   H1        1.0  0.9164521773760156  0.8604461622368118  0.2907448630233134  1.0000
  H   H2        1.0  0.41642937316698436  0.139545937059701  0.70925661785175  1.0000
  H   H3        1.0  0.4168516030087375  0.4302863606096564  0.2912516783410907  1.0000
  H   H4        1.0  0.9168552359548626  0.5697171388161378  0.70874855622003  1.0000
  H   H5        1.0  0.0253893480551213  0.0663834378526147  0.4854835243208555  1.0000
  H   H6        1.0  0.5253735519711995  0.9336055400889194  0.5145206487443801  1.0000
  H   H7        1.0  0.5274453278882943  0.4197825314333983  0.48568673506323273  1.0000
  H   H8        1.0  0.027432926955427202  0.580215764792378  0.5143104530322802  1.0000
  H   H9        1.0  0.37320731077398517  0.17994357726792026  0.4920311566211097  1.0000
  H   H10       1.0  0.873202676460025  0.8200459784045933  0.5079730449165254  1.0000
  H   H11       1.0  0.8754139166092115  0.3122271534950372  0.49128878066210996  1.0000
  H   H12       1.0  0.3753918019153345  0.6877655064424529  0.508705160908356  1.0000
  H   H13       1.0  0.6060914762929741  0.07949602639719443  0.3032374446569222  1.0000
  H   H14       1.0  0.10609694162099001  0.9205043291332867  0.6967637205216873  1.0000
  H   H15       1.0  0.10655733914686749  0.2229672610913838  0.30198759253787705  1.0000
  H   H16       1.0  0.6065434900566019  0.7770268894136263  0.6980045512009242  1.0000
  H   H17       1.0  0.4805699541375716  0.8712046578743865  0.11999871794974135  1.0000
  H   H18       1.0  0.9805734978291198  0.12880319080795738  0.8799972254731401  1.0000
  H   H19       1.0  0.9799341260245953  0.2480189582329189  0.11915443939729901  1.0000
  H   H20       1.0  0.47993258387986515  0.751981645421999  0.8808402803750539  1.0000
  C   C1        1.0  0.06842504337277688  0.9121004695825334  0.2982005391696205  1.0000
  C   C2        1.0  0.5684118239221974  0.08789934189294259  0.7018033639883683  1.0000
  C   C3        1.0  0.5690258001110493  0.3860544450016831  0.29835348422338376  1.0000
  C   C4        1.0  0.0690228633267296  0.6139484748836493  0.7016475429299689  1.0000
  C   C5        1.0  0.12884939039299328  0.026126557129977402  0.4056467017804978  1.0000
  C   C6        1.0  0.6288360371799938  0.9738631233269287  0.5943578453508849  1.0000
  C   C7        1.0  0.6302067974027707  0.3797262013611728  0.40564066108981933  1.0000
  C   C8        1.0  0.1301984392484883  0.6202707371591245  0.5943552593031853  1.0000
  C   C9        1.0  0.3238949728242916  0.0892280975069468  0.4092203075360388  1.0000
  C   C10       1.0  0.8238922232830744  0.9107672936086574  0.5907841174954811  1.0000
  C   C11       1.0  0.8252851948727482  0.3199966577531583  0.40867022294666105  1.0000
  C   C12       1.0  0.3252693318406586  0.6800018427656126  0.5913264024053007  1.0000
  C   C13       1.0  0.452935725680284  0.03428121422474109  0.3054263264164518  1.0000
  C   C14       1.0  0.9529355606589504  0.9657176663487942  0.6945715822601031  1.0000
  C   C15       1.0  0.9534815220366182  0.2705602158738358  0.30450919279053323  1.0000
  C   C16       1.0  0.4534748368267856  0.7294324491157766  0.6954838001850234  1.0000
  C   C17       1.0  0.38228803536373596  0.9188547187401924  0.20205388015326523  1.0000
  C   C18       1.0  0.882284638994463  0.08114716541945909  0.7979462313901067  1.0000
  C   C19       1.0  0.8822401822267026  0.2826165331957781  0.20142642671395808  1.0000
  C   C20       1.0  0.3822311130220656  0.71738846242377  0.7985732696867275  1.0000
  N   N1        1.0  0.8111898517587051  0.7506597679675692  0.000317930405387283  1.0000
  N   N2        1.0  0.31117496703807035  0.2493637792336471  0.9996868191094208  1.0000
  N   N3        1.0  0.8372551801026232  0.8623793712071404  0.9997895376453555  1.0000
  N   N4        1.0  0.3372485592154462  0.1376231058298316  0.00021205196340900003  1.0000
  N   N5        1.0  0.8496558800183038  0.969723653559939  0.9993128188114754  1.0000
  N   N6        1.0  0.349649288915792  0.03029836335506529  0.0006850931381947993  1.0000
  N   N7        1.0  0.9220477617212454  0.5662076945910642  0.1317134191248286  1.0000
  N   N8        1.0  0.4220488440356576  0.4337998824723285  0.8682868284789009  1.0000
  N   N9        1.0  0.42167730583859964  0.5659767134648986  0.13262588350043095  1.0000
  N   N10       1.0  0.9216779658126699  0.43403292479409566  0.8673817495725161  1.0000
  N   N11       1.0  0.9921668394189211  0.5850005095288181  0.230474543597758  1.0000
  N   N12       1.0  0.4921623145718428  0.4149978494337174  0.7695243291127412  1.0000
  N   N13       1.0  0.4933553168999224  0.6455631714962564  0.23117260351793334  1.0000
  N   N14       1.0  0.9933578284994979  0.3544382617500191  0.7688348905114993  1.0000
  N   N15       1.0  0.0524367004337449  0.601051991725562  0.32605357328069556  1.0000
  N   N16       1.0  0.5524325064424218  0.3989356128380166  0.6739412573615553  1.0000
  N   N17       1.0  0.5563748894951104  0.7243422862456653  0.3265026331204126  1.0000
  N   N18       1.0  0.0563765372776146  0.2756555946011757  0.6735086188615682  1.0000
  N   N19       1.0  0.19367201672233852  0.8593880373605383  0.19824522205252026  1.0000
  N   N20       1.0  0.6936613538673201  0.14061323307228688  0.8017554382091134  1.0000
  N   N21       1.0  0.6935725055465555  0.33849151140009337  0.1981186655295843  1.0000
  N   N22       1.0  0.19357394742279874  0.6615097640368077  0.8018803522218009  1.0000
