data_image0
_chemical_formula_structural       Zn2H44C52N2O8
_chemical_formula_sum              "Zn2 H44 C52 N2 O8"
_cell_length_a       11.012869801614057
_cell_length_b       13.932292944952662
_cell_length_c       15.349962097309131
_cell_angle_alpha    90.98666196420997
_cell_angle_beta     92.12866907080185
_cell_angle_gamma    89.18168108508732

_space_group_name_H-M_alt    "P 1"
_space_group_IT_number       1

loop_
  _space_group_symop_operation_xyz
  'x, y, z'

loop_
  _atom_site_type_symbol
  _atom_site_label
  _atom_site_symmetry_multiplicity
  _atom_site_fract_x
  _atom_site_fract_y
  _atom_site_fract_z
  _atom_site_occupancy
  Zn  Zn1       1.0  0.49620879465177137  0.5995271125675143  0.4974087583284544  1.0000
  Zn  Zn2       1.0  0.5056610733820435  0.40043349159432745  0.4989471672066658  1.0000
  H   H1        1.0  0.4162547978461789  0.07325430020372892  0.6259815799569495  1.0000
  H   H2        1.0  0.5388845172181077  0.6943683093912296  0.0042897092879456925  1.0000
  H   H3        1.0  0.3822793013556165  0.703271913941549  0.0227748252084368  1.0000
  H   H4        1.0  0.48816380040708646  0.7450880896982994  0.10428000089741121  1.0000
  H   H5        1.0  0.42278283508395736  0.25262247228430823  0.6199230732721048  1.0000
  H   H6        1.0  0.6461981138387146  0.7489401610544844  0.4222874477519342  1.0000
  H   H7        1.0  0.5775464019006193  0.24372827990177373  0.37899041158055985  1.0000
  H   H8        1.0  0.34754592331659506  0.7543148879728462  0.5773126877760079  1.0000
  H   H9        1.0  0.5758305201917581  0.06467963752254488  0.37239519080515754  1.0000
  H   H10       1.0  0.3384456787939385  0.9338008154509012  0.5800671507702687  1.0000
  H   H11       1.0  0.22592686937707643  0.3049108164404615  0.1968601435175472  1.0000
  H   H12       1.0  0.653719011398529  0.9279972453605582  0.41963338773516773  1.0000
  H   H13       1.0  0.7637802206412231  0.6820195260426939  0.8030284895755387  1.0000
  H   H14       1.0  0.0472129917615973  0.493834736833456  0.27921463511484035  1.0000
  H   H15       1.0  0.1992598650428974  0.5174790425222753  0.31221606991181267  1.0000
  H   H16       1.0  0.1673629305291726  0.465543413581237  0.20777718659736885  1.0000
  H   H17       1.0  0.9746306381300228  0.5128470176122946  0.7218531332577599  1.0000
  H   H18       1.0  0.8511798181663155  0.5280528020216265  0.7927515270049383  1.0000
  H   H19       1.0  0.8284063074241177  0.47431108108489883  0.6875278801742581  1.0000
  H   H20       1.0  0.08738802473624221  0.30190145879265623  0.5655293908187531  1.0000
  H   H21       1.0  0.017045799190775295  0.1943398417189641  0.5284160273835568  1.0000
  H   H22       1.0  0.17335824083735932  0.19323632253772158  0.5600609297971886  1.0000
  H   H23       1.0  0.19673892382551367  0.111488509437855  0.41071211247287215  1.0000
  H   H24       1.0  0.8608194340702154  0.7169791702710525  0.4310444986597801  1.0000
  H   H25       1.0  0.8747492880576573  0.8407728661218099  0.4619834643870747  1.0000
  H   H26       1.0  0.0008146257873988994  0.7602998723552615  0.4728214189349558  1.0000
  H   H27       1.0  0.8805622437379197  0.3753084059019328  0.4235205420031178  1.0000
  H   H28       1.0  0.12188085735226649  0.628134490800285  0.5751110622996266  1.0000
  H   H29       1.0  0.3018614470816345  0.5640473097085278  0.9331296014159207  1.0000
  H   H30       1.0  0.4920370127185265  0.35196525231694403  0.0472794223422781  1.0000
  H   H31       1.0  0.28933318764855187  0.6396824316810877  0.7200737493589527  1.0000
  H   H32       1.0  0.2332307950394181  0.5221438390286933  0.7100935602752828  1.0000
  H   H33       1.0  0.19444195349725393  0.5949908516465  0.8014821075568223  1.0000
  H   H34       1.0  0.7911748102446906  0.8853994621269545  0.5967210597478285  1.0000
  H   H35       1.0  0.4439033936580756  0.2924809075089101  0.260453910677775  1.0000
  H   H36       1.0  0.5120319565755765  0.255751772102812  0.1610582539102126  1.0000
  H   H37       1.0  0.6021264694682033  0.3030502337544121  0.2500880872078781  1.0000
  H   H38       1.0  0.6590947085193051  0.4395953522869717  0.7800495112213923  1.0000
  H   H39       1.0  0.47983922710645993  0.647125207417119  0.2277112789425644  1.0000
  H   H40       1.0  0.2526698013133029  0.14135355225270274  0.2580556970561219  1.0000
  H   H41       1.0  0.7239134835617235  0.845350560019831  0.7445734949631488  1.0000
  H   H42       1.0  0.7270326663567914  0.48953787237461205  0.006791876602861203  1.0000
  H   H43       1.0  0.6889081742829148  0.3686786957748822  0.9869084019975389  1.0000
  H   H44       1.0  0.7757917772417072  0.4292918562214965  0.9106306666474779  1.0000
  C   C1        1.0  0.4898239231509153  0.5009652040027247  0.6686491520555506  1.0000
  C   C2        1.0  0.49689829349299686  0.4084218303751754  0.17818648115988375  1.0000
  C   C3        1.0  0.48146122181580614  0.5030817576356127  0.7659213420977196  1.0000
  C   C4        1.0  0.49255505526703297  0.4942094447164393  0.22874924773668684  1.0000
  C   C5        1.0  0.5816312263800683  0.46825615838016427  0.8148095349911699  1.0000
  C   C6        1.0  0.4820342959309585  0.5826315966903266  0.1864371353762451  1.0000
  C   C7        1.0  0.5863211183556772  0.47044132708224845  0.9058524945454423  1.0000
  C   C8        1.0  0.47690056894835214  0.5909931349729047  0.0958755184866362  1.0000
  C   C9        1.0  0.48300600876184757  0.5056461407383636  0.948628712409118  1.0000
  C   C10       1.0  0.481147708042151  0.5055509871771163  0.04532431000023961  1.0000
  C   C11       1.0  0.45140151695127156  0.10762437189271878  0.5690805121763418  1.0000
  C   C12       1.0  0.4993339231697576  0.49668460511661294  0.32662091446675134  1.0000
  C   C13       1.0  0.5825655006169583  0.8930427823030624  0.45437570618448586  1.0000
  C   C14       1.0  0.45500502085774747  0.2071914424357927  0.566789625271241  1.0000
  C   C15       1.0  0.5800654536085191  0.7934926893615425  0.4559414512354323  1.0000
  C   C16       1.0  0.26353723238501914  0.5037893690999127  0.49386349280695196  1.0000
  C   C17       1.0  0.7384285251620424  0.49960326403735417  0.5034438335655764  1.0000
  C   C18       1.0  0.5430756709154423  0.20228562611766418  0.4320116359634554  1.0000
  C   C19       1.0  0.4130597394811205  0.7966152138574927  0.5434459017290224  1.0000
  C   C20       1.0  0.5422369859241627  0.10270320818737133  0.4294078007570549  1.0000
  C   C21       1.0  0.40949870207192174  0.8962993264287104  0.5449306433365353  1.0000
  C   C22       1.0  0.4960942727029263  0.05286733643019661  0.49933056836680834  1.0000
  C   C23       1.0  0.8745121553042878  0.5027465297999284  0.5034308279313393  1.0000
  C   C24       1.0  0.49579258251625197  0.9469412696325816  0.4995236766635146  1.0000
  C   C25       1.0  0.20018557230741862  0.29116415933391687  0.2634521940670851  1.0000
  C   C26       1.0  0.792296545934782  0.6996242448750605  0.737902945023869  1.0000
  C   C27       1.0  0.1532264946124684  0.3668990024803094  0.31352540325244155  1.0000
  C   C28       1.0  0.8504556808852258  0.6289419939882419  0.6878960383403554  1.0000
  C   C29       1.0  0.1187760216734333  0.3487942876487792  0.3994074721957831  1.0000
  C   C30       1.0  0.8839890212686397  0.6511643507782094  0.6029087344191524  1.0000
  C   C31       1.0  0.1344332818921643  0.25664335230247554  0.43485464804278723  1.0000
  C   C32       1.0  0.8646040683088569  0.7441282613154597  0.5700277475592159  1.0000
  C   C33       1.0  0.18361401242973588  0.18288844206183089  0.38319091327666405  1.0000
  C   C34       1.0  0.12778896047812793  0.500882123140073  0.4946859032475359  1.0000
  C   C35       1.0  0.8073769730621407  0.8133835762124093  0.6220838161699049  1.0000
  C   C36       1.0  0.2154744928018246  0.19955062540227425  0.29785122796279506  1.0000
  C   C37       1.0  0.7699718396478163  0.7911466698505335  0.7051310477847254  1.0000
  C   C38       1.0  0.9349681480978448  0.4305659457470766  0.4566853700648538  1.0000
  C   C39       1.0  0.06768339192962002  0.5729941452644167  0.5415547940633233  1.0000
  C   C40       1.0  0.7002672314199287  0.43782468255703577  0.9549242856034041  1.0000
  C   C41       1.0  0.47136623123220295  0.6885083099504643  0.0548507858557201  1.0000
  C   C42       1.0  0.1409201412095555  0.46591877328472714  0.2760034641782241  1.0000
  C   C43       1.0  0.8772686568191049  0.5310130528033026  0.7245899470363782  1.0000
  C   C44       1.0  0.1011947165019365  0.23593869124745484  0.5270268726076  1.0000
  C   C45       1.0  0.9415394002333456  0.5753078516813944  0.5477925014672352  1.0000
  C   C46       1.0  0.9019423913822564  0.767212117337813  0.4794159194600667  1.0000
  C   C47       1.0  0.26787414971681767  0.5760562402329086  0.7576327708818553  1.0000
  C   C48       1.0  0.5139655493860503  0.3092924753986211  0.2144625828748659  1.0000
  C   C49       1.0  0.0613255885802531  0.4274190858205387  0.4515719925257714  1.0000
  C   C50       1.0  0.3818781329344247  0.5386844544988064  0.8990274745804002  1.0000
  C   C51       1.0  0.4894300275207756  0.41732617264127464  0.08755411326602311  1.0000
  C   C52       1.0  0.378668926086604  0.5396089716823482  0.8078616913330238  1.0000
  N   N1        1.0  0.5004628286942462  0.2535486941597327  0.49947776216064455  1.0000
  N   N2        1.0  0.4967233639960753  0.7463012558466173  0.4995773992017193  1.0000
  O   O1        1.0  0.47437916932336316  0.5801800469701489  0.6294246005484254  1.0000
  O   O2        1.0  0.49659399521879527  0.4169068693268941  0.36616544857569994  1.0000
  O   O3        1.0  0.5145244576143426  0.42006709027731387  0.6331264418532286  1.0000
  O   O4        1.0  0.5064458930425956  0.5788709006458388  0.364223609884796  1.0000
  O   O5        1.0  0.3100988056709113  0.5858593754572893  0.48397242961770104  1.0000
  O   O6        1.0  0.6909260325000303  0.4168290422947578  0.49782451416438533  1.0000
  O   O7        1.0  0.32081008756674834  0.4247977065932247  0.5044819145796993  1.0000
  O   O8        1.0  0.6810337038997146  0.5794123117143783  0.5077710109458309  1.0000
