data_image0
_chemical_formula_structural       Zn4H52C60N4O20
_chemical_formula_sum              "Zn4 H52 C60 N4 O20"
_cell_length_a       8.443721921
_cell_length_b       12.9204605710217
_cell_length_c       15.66
_cell_angle_alpha    90.0
_cell_angle_beta     90.0
_cell_angle_gamma    91.36586300849741

_space_group_name_H-M_alt    "P 1"
_space_group_IT_number       1

loop_
  _space_group_symop_operation_xyz
  'x, y, z'

loop_
  _atom_site_type_symbol
  _atom_site_label
  _atom_site_symmetry_multiplicity
  _atom_site_fract_x
  _atom_site_fract_y
  _atom_site_fract_z
  _atom_site_occupancy
  Zn  Zn1       1.0  0.3820988888489083  0.0782090628963559  0.9962681992337181  1.0000
  Zn  Zn2       1.0  0.38209989881595163  0.578205599613156  0.5037337164750966  1.0000
  Zn  Zn3       1.0  0.6178997177363925  0.921794074957681  0.0037324393358844  1.0000
  Zn  Zn4       1.0  0.6179008787275535  0.4217921189375672  0.4962675606641156  1.0000
  H   H1        1.0  0.033521245758912195  0.9402715767063012  0.1580134099616828  1.0000
  H   H2        1.0  0.0335153855927146  0.4402719432447526  0.3419872286079197  1.0000
  H   H3        1.0  0.9664868353212556  0.05973156114773558  0.8419923371647542  1.0000
  H   H4        1.0  0.9664880147158782  0.5597327429816588  0.6580159642401  1.0000
  H   H5        1.0  0.4191396972663455  0.7411508891567562  0.2163199233716497  1.0000
  H   H6        1.0  0.4191349649361413  0.24114970732283325  0.2836826309067675  1.0000
  H   H7        1.0  0.580867368929546  0.2588568938144107  0.7836877394636019  1.0000
  H   H8        1.0  0.5808636416491596  0.7588534305312038  0.71631673052363  1.0000
  H   H9        1.0  0.24579403633824634  0.6360380820417646  0.3142075351213265  1.0000
  H   H10       1.0  0.2457869071464032  0.1360361260216507  0.1857962962962958  1.0000
  H   H11       1.0  0.7542141012177765  0.36396660418465376  0.685797573435508  1.0000
  H   H12       1.0  0.7542045935677493  0.8639670118323863  0.8142043422733067  1.0000
  H   H13       1.0  0.9794778317109235  0.5979574118271954  0.3735191570881256  1.0000
  H   H14       1.0  0.9794709001845873  0.09796087511039529  0.1264802043422719  1.0000
  H   H15       1.0  0.020530079941657692  0.40204108090971846  0.6264808429118744  1.0000
  H   H16       1.0  0.020523223294652792  0.9020492304193366  0.8735197956577281  1.0000
  H   H17       1.0  0.5918166240962393  0.7956868867969289  0.3156877394635984  1.0000
  H   H18       1.0  0.591815614129203  0.29569035008013594  0.18430906768837474  1.0000
  H   H19       1.0  0.4081864655951152  0.2043092833814129  0.6843097062579844  1.0000
  H   H20       1.0  0.4081832465974741  0.7043197554495961  0.8156915708812278  1.0000
  H   H21       1.0  0.7674324441731599  0.9052110068110577  0.2216979565772661  1.0000
  H   H22       1.0  0.7674266404828245  0.4052129217218905  0.278303320561939  1.0000
  H   H23       1.0  0.23257070199405658  0.0947867117396584  0.778303320561939  1.0000
  H   H24       1.0  0.2325708947423379  0.5947933128769023  0.7217011494252861  1.0000
  H   H25       1.0  0.3423958271924477  0.2708467153077194  0.894616858237548  1.0000
  H   H26       1.0  0.34239948816251337  0.7708509938863981  0.6053927203065115  1.0000
  H   H27       1.0  0.6575925707117845  0.7291362937054302  0.1053882503192867  1.0000
  H   H28       1.0  0.6576012329051295  0.22914517629195064  0.3946053639846738  1.0000
  H   H29       1.0  0.1908607833070732  0.4987849353326013  0.9073793103448297  1.0000
  H   H30       1.0  0.19085855095577392  0.9987899880974709  0.5926206896551705  1.0000
  H   H31       1.0  0.8091372585196126  0.5012027187976784  0.09261685823754823  1.0000
  H   H32       1.0  0.8091399426778026  0.0012100530118175  0.4073767560664123  1.0000
  H   H33       1.0  0.0616514205817182  0.4391772439749459  0.8304022988505722  1.0000
  H   H34       1.0  0.06164808863236  0.9391846192983735  0.6695970625798182  1.0000
  H   H35       1.0  0.9383465647691054  0.5608088617829594  0.1695945083014081  1.0000
  H   H36       1.0  0.9383503485253543  0.06081387343854058  0.3303978288633474  1.0000
  H   H37       1.0  0.2666281825307166  0.4105284840885872  0.8304272030651347  1.0000
  H   H38       1.0  0.2666286294203744  0.9105420529015191  0.669579182630905  1.0000
  H   H39       1.0  0.7333660804569462  0.5894529765521881  0.16957279693486535  1.0000
  H   H40       1.0  0.7333711332388546  0.0894603107663272  0.3304195402298831  1.0000
  H   H41       1.0  0.9649448452812095  0.2612057747087491  0.0026219667943792008  1.0000
  H   H42       1.0  0.9649568246722141  0.7612108274736187  0.4973793103448259  1.0000
  H   H43       1.0  0.0350345581729741  0.7387903954695928  0.9973773946360185  1.0000
  H   H44       1.0  0.0350489442600974  0.23879385875279974  0.50261238825032  1.0000
  H   H45       1.0  0.8910739611771206  0.36544917073464217  0.9396621966794356  1.0000
  H   H46       1.0  0.8910847280183417  0.8654534493133212  0.5603384418901669  1.0000
  H   H47       1.0  0.10891373246007421  0.6345469994437067  0.06033269476372991  1.0000
  H   H48       1.0  0.1089209844381074  0.1345496885407229  0.4396545338441911  1.0000
  H   H49       1.0  0.0034521784315373017  0.3914525364166579  0.03496424010216971  1.0000
  H   H50       1.0  0.0034665546841949986  0.891458363367711  0.4650395913154526  1.0000
  H   H51       1.0  0.9965343591317294  0.6085444079478819  0.9650312899105986  1.0000
  H   H52       1.0  0.9965439797334811  0.108547097044891  0.534955300127713  1.0000
  C   C1        1.0  0.3403845908182462  0.9085121367166238  0.1227975734355056  1.0000
  C   C2        1.0  0.3403705534207617  0.4085155999998307  0.377203065134097  1.0000
  C   C3        1.0  0.6596350227632684  0.09148248508934388  0.8772075351213289  1.0000
  C   C4        1.0  0.6596327621740414  0.5914867636680228  0.6227956577266909  1.0000
  C   C5        1.0  0.07913770516163508  0.8744642023552698  0.1929763729246474  1.0000
  C   C6        1.0  0.07912944813378431  0.3744637947075304  0.3070236270753526  1.0000
  C   C7        1.0  0.9208716731821128  0.12554203224352278  0.8070300127713921  1.0000
  C   C8        1.0  0.9208679741396538  0.6255393431465064  0.6929763729246474  1.0000
  C   C9        1.0  0.2358507270259196  0.8477129728156567  0.1826481481481466  1.0000
  C   C10       1.0  0.23584715076964363  0.3477110167955501  0.3173518518518534  1.0000
  C   C11       1.0  0.7641587077936904  0.15229481015550309  0.817359514687098  1.0000
  C   C12       1.0  0.7641537962014411  0.6522913468723032  0.6826475095785443  1.0000
  C   C13       1.0  0.2957271151334311  0.7605628336342746  0.22619348659004154  1.0000
  C   C14       1.0  0.29571773026958686  0.2605639743589165  0.2738090676883758  1.0000
  C   C15       1.0  0.7042870286956813  0.23944417515070168  0.7738154533844224  1.0000
  C   C16       1.0  0.7042773516180674  0.7394399376813112  0.7261902937420146  1.0000
  C   C17       1.0  0.1999281574338312  0.7022155173906552  0.2795632183908054  1.0000
  C   C18       1.0  0.19992694980127373  0.2022135613705416  0.2204380587484067  1.0000
  C   C19       1.0  0.8000764836624797  0.2977907172081373  0.7204412515964265  1.0000
  C   C20       1.0  0.8000740818836009  0.7977911248558698  0.7795619412515933  1.0000
  C   C21       1.0  0.03802437197290231  0.7271505061332489  0.2900485312899121  1.0000
  C   C22       1.0  0.03801978083235721  0.2271531952302652  0.2099521072796904  1.0000
  C   C23       1.0  0.961985993017187  0.272850309162223  0.7099540229885051  1.0000
  C   C24       1.0  0.9619777826307399  0.7728538135547109  0.7900485312899121  1.0000
  C   C25       1.0  0.9340917060219242  0.6651118701453242  0.3402375478927198  1.0000
  C   C26       1.0  0.9340917391770915  0.1651114624975847  0.1597605363984655  1.0000
  C   C27       1.0  0.0659067028978555  0.33488584840539903  0.6597637292464853  1.0000
  C   C28       1.0  0.06590813643386181  0.8348939979150172  0.8402388250319321  1.0000
  C   C29       1.0  0.7756808374266129  0.6886935814313231  0.3477784163473815  1.0000
  C   C30       1.0  0.7756788125752934  0.1887016898316531  0.1522183908045989  1.0000
  C   C31       1.0  0.2243245079367355  0.31129949200226986  0.6522190293742014  1.0000
  C   C32       1.0  0.22431649521580252  0.811308415698079  0.8477809706257986  1.0000
  C   C33       1.0  0.7162693736061742  0.7779727326296635  0.3068703703703691  1.0000
  C   C34       1.0  0.7162672358031372  0.2779777442852449  0.19312643678161126  1.0000
  C   C35       1.0  0.2837335748955283  0.22201956661774597  0.6931257982120089  1.0000
  C   C36       1.0  0.2837315966856054  0.7220315870582965  0.806876117496806  1.0000
  C   C37       1.0  0.8138863081991872  0.8390815710058204  0.2563365261813573  1.0000
  C   C38       1.0  0.8138851852804193  0.33908193754427157  0.24366155810983517  1.0000
  C   C39       1.0  0.18612041914153823  0.1609169217310864  0.7436615581098351  1.0000
  C   C40       1.0  0.18611457737880244  0.6609204261235746  0.7563403575989798  1.0000
  C   C41       1.0  0.9764713809194348  0.8151940561755708  0.24614240102171445  1.0000
  C   C42       1.0  0.9764679740907455  0.315196745272587  0.2538575989782856  1.0000
  C   C43       1.0  0.0235306374117883  0.1848052107475269  0.7538607918263125  1.0000
  C   C44       1.0  0.0235319579960631  0.6848102635123964  0.7461455938697341  1.0000
  C   C45       1.0  0.6678379177816325  0.6190926947591606  0.3990076628352455  1.0000
  C   C46       1.0  0.6678438442581579  0.11909151292523747  0.1009872286079201  1.0000
  C   C47       1.0  0.3321641570254529  0.38090812053631135  0.6009904214559398  1.0000
  C   C48       1.0  0.3321653646580103  0.8809100765564251  0.8990102171136627  1.0000
  C   C49       1.0  0.2373340564712549  0.2643125838811358  0.9361487867177516  1.0000
  C   C50       1.0  0.23734290649564832  0.7643292494388161  0.563864623243937  1.0000
  C   C51       1.0  0.762643315533154  0.735660360711577  0.0638601532567051  1.0000
  C   C52       1.0  0.7626604090991549  0.23567311422902998  0.436135376756063  1.0000
  C   C53       1.0  0.1651344223514926  0.42723387365290927  0.8713952745849272  1.0000
  C   C54       1.0  0.16513585588749183  0.9272420231625276  0.6286066411238809  1.0000
  C   C55       1.0  0.8348611096618228  0.572749909546431  0.1286021711366558  1.0000
  C   C56       1.0  0.8348649781318684  0.0727572437605701  0.3713901660280997  1.0000
  C   C57       1.0  0.9897314234324883  0.33978567278915506  0.9794431673052346  1.0000
  C   C58       1.0  0.9897422185116297  0.8397907255540175  0.5205593869731828  1.0000
  C   C59       1.0  0.010252660793270302  0.6602089490168197  0.020554916985950904  1.0000
  C   C60       1.0  0.0102646500187404  0.1602116381138359  0.4794342273307777  1.0000
  N   N1        1.0  0.1341790127264701  0.3403810219677155  0.9286136653895272  1.0000
  N   N2        1.0  0.134190822689888  0.8403814296154477  0.5713908045976979  1.0000
  N   N3        1.0  0.8658061710973615  0.6596112772796943  0.0713856960408705  1.0000
  N   N4        1.0  0.8658135925029811  0.15961861149384046  0.42860472541507033  1.0000
  O   O1        1.0  0.2879771866152225  0.9941882253960868  0.09554022988506013  1.0000
  O   O2        1.0  0.2879699162337204  0.4941823984450338  0.4044661558109866  1.0000
  O   O3        1.0  0.7120323611561119  0.005822654319828798  0.9044655172413771  1.0000
  O   O4        1.0  0.7120344989591487  0.5058176426642476  0.5955344827586231  1.0000
  O   O5        1.0  0.47225054938301986  0.8691571560366356  0.1027643678160928  1.0000
  O   O6        1.0  0.47225422018755137  0.36915907094746087  0.39723307790549  1.0000
  O   O7        1.0  0.5277431222893298  0.1308405625140878  0.8972343550447024  1.0000
  O   O8        1.0  0.5277491236451796  0.630844066906576  0.6027637292464902  1.0000
  O   O9        1.0  0.7179710068163275  0.5287939403512496  0.4148614303959165  1.0000
  O   O10       1.0  0.7179678258910869  0.028802822937763  0.0851392081736932  1.0000
  O   O11       1.0  0.2820378914825953  0.47119913308235073  0.5851430395913155  1.0000
  O   O12       1.0  0.2820239289644348  0.971207282591962  0.9148659003831414  1.0000
  O   O13       1.0  0.5358685451897713  0.6554825423391719  0.42238569604086973  1.0000
  O   O14       1.0  0.5358712293479614  0.1554898765533181  0.0776079182630909  1.0000
  O   O15       1.0  0.4641332754759305  0.3445113052806049  0.5776117496807134  1.0000
  O   O16       1.0  0.46413011295415163  0.8445233257211625  0.9223818646232473  1.0000
  O   O17       1.0  0.21741091770331172  0.18912749223504474  0.9863729246487836  1.0000
  O   O18       1.0  0.2174238837406577  0.6891271256965935  0.513626436781607  1.0000
  O   O19       1.0  0.7825623947640068  0.810864032826174  0.0136206896551698  1.0000
  O   O20       1.0  0.7825780216388409  0.3108690444817555  0.4863684546615588  1.0000
