data_image0
_chemical_formula_structural       Cu2H32C28S4N12
_chemical_formula_sum              "Cu2 H32 C28 S4 N12"
_cell_length_a       6.478760982137238
_cell_length_b       11.532254296549011
_cell_length_c       11.533631396241574
_cell_angle_alpha    102.97903048284775
_cell_angle_beta     90.00372662896375
_cell_angle_gamma    90.00375230979705

_space_group_name_H-M_alt    "P 1"
_space_group_IT_number       1

loop_
  _space_group_symop_operation_xyz
  'x, y, z'

loop_
  _atom_site_type_symbol
  _atom_site_label
  _atom_site_symmetry_multiplicity
  _atom_site_fract_x
  _atom_site_fract_y
  _atom_site_fract_z
  _atom_site_occupancy
  Cu  Cu1       1.0  0.6639276636916092  0.3612818937285454  0.36128952825836796  1.0000
  Cu  Cu2       1.0  0.1639011810195825  0.6387300412883762  0.638721754103486  1.0000
  H   H1        1.0  0.6990913700569832  0.04653763564844841  0.7902199077286625  1.0000
  H   H2        1.0  0.19908116834683653  0.9534653009306596  0.20977918201884901  1.0000
  H   H3        1.0  0.19912723028184587  0.20980418334195144  0.9534575858351604  1.0000
  H   H4        1.0  0.6991533541179322  0.7902005535126974  0.04654361820472263  1.0000
  H   H5        1.0  0.9130081849186668  0.31871625570848044  0.5628432541302715  1.0000
  H   H6        1.0  0.41299616107540527  0.6812913885159163  0.43716961967622586  1.0000
  H   H7        1.0  0.4129195526662953  0.4371764407712746  0.6812840600132761  1.0000
  H   H8        1.0  0.9129813808452454  0.562844506113457  0.3187281635022857  1.0000
  H   H9        1.0  0.8969027580687695  0.19504815268848572  0.7128297791135695  1.0000
  H   H10       1.0  0.3969071612410744  0.8049620844225204  0.28718485363790347  1.0000
  H   H11       1.0  0.3968192543133496  0.28715850893493683  0.8049364913895333  1.0000
  H   H12       1.0  0.8968733553947675  0.7128523168816658  0.19505572256124995  1.0000
  H   H13       1.0  0.31644693462377654  0.05305396998355859  0.5515963254646439  1.0000
  H   H14       1.0  0.8165096931924014  0.9469484477247222  0.4483992876551995  1.0000
  H   H15       1.0  0.8164595236723499  0.44841055360856796  0.9469333417657355  1.0000
  H   H16       1.0  0.3163998639055947  0.5515831907752045  0.05307691067559259  1.0000
  H   H17       1.0  0.3637940194775879  0.17897198021864114  0.4063390649046568  1.0000
  H   H18       1.0  0.8638365736707951  0.8210271553219357  0.5936522439035558  1.0000
  H   H19       1.0  0.8637651951231362  0.5936770695227835  0.8210170973253029  1.0000
  H   H20       1.0  0.3637295702534189  0.4063090382424406  0.17899486593462652  1.0000
  H   H21       1.0  0.2590835379383449  0.025122692794717207  0.7486244281861406  1.0000
  H   H22       1.0  0.7591181136571875  0.9748485012509109  0.25134585122652453  1.0000
  H   H23       1.0  0.7591710552965623  0.2513164054702487  0.9748197723093741  1.0000
  H   H24       1.0  0.25916643192744704  0.7486833520252604  0.02516349120634231  1.0000
  H   H25       1.0  0.4235525828227722  0.9377436207202049  0.8181567617182495  1.0000
  H   H26       1.0  0.9235622731206021  0.06224010608554661  0.18183174618452114  1.0000
  H   H27       1.0  0.9236406113727184  0.18179473360190457  0.062223883544476194  1.0000
  H   H28       1.0  0.4236502094815434  0.818207791345529  0.9377772743012901  1.0000
  H   H29       1.0  0.3934008623867484  0.9002461439806596  0.6611698748899785  1.0000
  H   H30       1.0  0.8934185138712464  0.0997407818633889  0.3388138826629331  1.0000
  H   H31       1.0  0.8934717804225302  0.33881294773760834  0.09967701477879841  1.0000
  H   H32       1.0  0.3934108832660145  0.6611882716392045  0.9003141044798825  1.0000
  C   C1        1.0  0.6618076414845787  0.5723606437338944  0.5723355103189007  1.0000
  C   C2        1.0  0.16181360420572585  0.4276405314837319  0.4276596646285711  1.0000
  C   C3        1.0  0.4914657124461996  0.16185601970852306  0.16190610740648745  1.0000
  C   C4        1.0  0.991443628549142  0.8381271706911523  0.8380938477265192  1.0000
  C   C5        1.0  0.7850558700882003  0.25754575368885213  0.563373507185922  1.0000
  C   C6        1.0  0.28505849807210376  0.7424619632866581  0.4366369037500776  1.0000
  C   C7        1.0  0.28499049383498226  0.43663386848344043  0.7424479308233815  1.0000
  C   C8        1.0  0.7850281766216797  0.5633738157972772  0.2575598728944613  1.0000
  C   C9        1.0  0.7746554696667545  0.18882991307371097  0.6467918684553028  1.0000
  C   C10       1.0  0.2746725179389173  0.8111827938015782  0.3532215546749456  1.0000
  C   C11       1.0  0.2746052659406574  0.35321003161359243  0.8111558781086928  1.0000
  C   C12       1.0  0.7746455418206465  0.6467909228281741  0.18884118342807446  1.0000
  C   C13       1.0  0.6021211321025177  0.113318202398915  0.6481945498986762  1.0000
  C   C14       1.0  0.10214859168797122  0.8866887308646271  0.3518117861251895  1.0000
  C   C15       1.0  0.10211101930782719  0.3518181773027322  0.8866756482502683  1.0000
  C   C16       1.0  0.6021077678689224  0.6481825637740783  0.11333197834643018  1.0000
  C   C17       1.0  0.4519657337896277  0.1098936774924155  0.557935483208752  1.0000
  C   C18       1.0  0.9520087651607341  0.8901109835494695  0.4420646563939955  1.0000
  C   C19       1.0  0.9519557628739435  0.4420736089518228  0.8900926740651232  1.0000
  C   C20       1.0  0.45192458172697764  0.5579231515538224  0.10991359743032088  1.0000
  C   C21       1.0  0.4777090888256481  0.18003125400344544  0.47622100626108493  1.0000
  C   C22       1.0  0.9777397579619063  0.8199721019867  0.5237765747444103  1.0000
  C   C23       1.0  0.9776751858876692  0.5237902424584037  0.8199521651025706  1.0000
  C   C24       1.0  0.47766252652139934  0.4761989731931706  0.1800493595057588  1.0000
  C   C25       1.0  0.40466906002766484  0.9745616133024273  0.7394296720170247  1.0000
  C   C26       1.0  0.9046916643582108  0.0254266010174646  0.2605593210276567  1.0000
  C   C27       1.0  0.9047308994873902  0.2605268338529143  0.025405042637686386  1.0000
  C   C28       1.0  0.40472861249975983  0.7394730154372413  0.9745916158511678  1.0000
  S   S1        1.0  0.5889930604711324  0.6798737401042347  0.6798727008641096  1.0000
  S   S2        1.0  0.0890185505068359  0.3201193647745982  0.32011277716905795  1.0000
  S   S3        1.0  0.3574701220389471  0.0665568926745834  0.0665919967993318  1.0000
  S   S4        1.0  0.8574605079471593  0.933417761878957  0.9334029340703299  1.0000
  N   N1        1.0  0.7193372958342366  0.49391010462137086  0.493838377371013  1.0000
  N   N2        1.0  0.21929514133262276  0.5061007575225746  0.5061645612809756  1.0000
  N   N3        1.0  0.5927764579329917  0.23057025905734463  0.23063292585982964  1.0000
  N   N4        1.0  0.0927365893343932  0.7694158564174671  0.7693744040247099  1.0000
  N   N5        1.0  0.6392725057703147  0.2542760016217045  0.47849633678676184  1.0000
  N   N6        1.0  0.13928148249119227  0.7457281688525584  0.5215068890960097  1.0000
  N   N7        1.0  0.13922564940159526  0.5215191917082294  0.745720789624393  1.0000
  N   N8        1.0  0.639241902580153  0.47848498091821773  0.2542824376343873  1.0000
  N   N9        1.0  0.5803803120379385  0.05034424863043801  0.7329451494395304  1.0000
  N   N10       1.0  0.08039652689480188  0.9496593069238984  0.26706006725228093  1.0000
  N   N11       1.0  0.0804231537980797  0.26707191542060127  0.9496573905121654  1.0000
  N   N12       1.0  0.5804277740207054  0.7329334412547867  0.05034994101259119  1.0000
