data_image0
_chemical_formula_structural       Cd4H48C64S4N8O20
_chemical_formula_sum              "Cd4 H48 C64 S4 N8 O20"
_cell_length_a       8.88656330326496
_cell_length_b       8.884961716867474
_cell_length_c       22.837968468832205
_cell_angle_alpha    97.83207249754174
_cell_angle_beta     97.84163543750735
_cell_angle_gamma    107.41763516228379

_space_group_name_H-M_alt    "P 1"
_space_group_IT_number       1

loop_
  _space_group_symop_operation_xyz
  'x, y, z'

loop_
  _atom_site_type_symbol
  _atom_site_label
  _atom_site_symmetry_multiplicity
  _atom_site_fract_x
  _atom_site_fract_y
  _atom_site_fract_z
  _atom_site_occupancy
  Cd  Cd1       1.0  0.2392240890804374  0.3372055537366948  0.8948672652292232  1.0000
  Cd  Cd2       1.0  0.4426651681677924  0.3444982149398683  0.10523758095722263  1.0000
  Cd  Cd3       1.0  0.5949443492419348  0.1928613661371585  0.6050967335202274  1.0000
  Cd  Cd4       1.0  0.5876536185517408  0.9898395075368425  0.39480632872151494  1.0000
  H   H1        1.0  0.7529268284913399  0.19731076693411606  0.0030760697274416987  1.0000
  H   H2        1.0  0.19460998588241554  0.7502883099898768  0.9969721625435711  1.0000
  H   H3        1.0  0.0005855489930795648  0.9447904766112175  0.49673924126233276  1.0000
  H   H4        1.0  0.44794016318676455  0.5042131437928249  0.5030726685973761  1.0000
  H   H5        1.0  0.49932123738794604  0.9503428199726117  0.007565099341725635  1.0000
  H   H6        1.0  0.9436471471373835  0.4918022110351076  0.992621160058974  1.0000
  H   H7        1.0  0.7422100466068073  0.6937326982973956  0.4923970934253177  1.0000
  H   H8        1.0  0.20154501205735187  0.2499655317108064  0.5074587039565444  1.0000
  H   H9        1.0  0.11562499314948128  0.6542563139227723  0.9085209140480687  1.0000
  H   H10       1.0  0.7457540938054734  0.2065660010067276  0.0916517400819004  1.0000
  H   H11       1.0  0.4571522957458356  0.49585232089862075  0.5915240836558768  1.0000
  H   H12       1.0  0.9035685191702286  0.8642546427445765  0.40833086512706984  1.0000
  H   H13       1.0  0.015204739944699985  0.8277074037911804  0.8466081205763916  1.0000
  H   H14       1.0  0.9810869563254201  0.1682594058345828  0.1536089201908908  1.0000
  H   H15       1.0  0.4183793509361564  0.7309047477018423  0.6535078781464707  1.0000
  H   H16       1.0  0.07671228154131177  0.7640096656607938  0.34629296491117156  1.0000
  H   H17       1.0  0.950114752930311  0.7372843118086793  0.733140114672871  1.0000
  H   H18       1.0  0.004353821198144206  0.217214516664157  0.2670888736675323  1.0000
  H   H19       1.0  0.4663843390432021  0.7534643653203403  0.7669566947101673  1.0000
  H   H20       1.0  0.986318524217438  0.6996999040288829  0.2328153015016383  1.0000
  H   H21       1.0  0.9992018735569559  0.4909556181460104  0.6886824380006616  1.0000
  H   H22       1.0  0.8025262124107896  0.31093871609488133  0.3114891569073421  1.0000
  H   H23       1.0  0.5598203342174273  0.5514171553915687  0.8113383842300197  1.0000
  H   H24       1.0  0.7399414577920495  0.7489609292393525  0.1885150467537784  1.0000
  H   H25       1.0  0.031050914635535814  0.2865230799601193  0.657512698446709  1.0000
  H   H26       1.0  0.628934789292771  0.37317704839844623  0.3425799020525489  1.0000
  H   H27       1.0  0.6221965213471705  0.37774872261062603  0.8423645433651007  1.0000
  H   H28       1.0  0.5349914896763579  0.7795955541737243  0.15753603314878725  1.0000
  H   H29       1.0  0.09617625246811909  0.0423003230037651  0.6225304100001452  1.0000
  H   H30       1.0  0.41957798058145107  0.47309494977772465  0.3775437119945125  1.0000
  H   H31       1.0  0.7221408227718698  0.1683641397410582  0.8773044517905009  1.0000
  H   H32       1.0  0.2906469664106268  0.8445505419418495  0.12263156556167594  1.0000
  H   H33       1.0  0.23418022941108058  0.9205012559225663  0.697369524914798  1.0000
  H   H34       1.0  0.22322788330937732  0.5366015485510188  0.302716922094696  1.0000
  H   H35       1.0  0.7860779632056067  0.9723278017607132  0.8024892008488396  1.0000
  H   H36       1.0  0.16964063471776572  0.9834848229599801  0.19745697672390616  1.0000
  H   H37       1.0  0.29429362823478306  0.051313681359310706  0.807074476454261  1.0000
  H   H38       1.0  0.24446089354243847  0.48730996328422554  0.19303585207782703  1.0000
  H   H39       1.0  0.7375669188907069  0.9942277350056231  0.692842663129156  1.0000
  H   H40       1.0  0.30122818297124354  0.04459061345269791  0.30710325249657444  1.0000
  H   H41       1.0  0.5017118951771451  0.28586534696418653  0.9672541000615598  1.0000
  H   H42       1.0  0.31894154194701946  0.5344267653803668  0.03272984188360081  1.0000
  H   H43       1.0  0.7850111599266398  0.0692779195512685  0.5326682590791805  1.0000
  H   H44       1.0  0.536662097798434  0.2524819516629221  0.4672944026490455  1.0000
  H   H45       1.0  0.35290214800313885  0.13982732088078362  0.9670062864702516  1.0000
  H   H46       1.0  0.17305628535829956  0.3861857294578216  0.033219804396246416  1.0000
  H   H47       1.0  0.6364710619575575  0.9235380210533322  0.5330142223517599  1.0000
  H   H48       1.0  0.3903804929407002  0.1035702676706407  0.4667406015560901  1.0000
  C   C1        1.0  0.4775422723861169  0.6383714191323123  0.9396126298799461  1.0000
  C   C2        1.0  0.6993491034368162  0.537635398140992  0.06042800538758542  1.0000
  C   C3        1.0  0.7881479363265953  0.4497001432966883  0.5603904141876015  1.0000
  C   C4        1.0  0.8893117748583492  0.22760896217356216  0.4395351093722938  1.0000
  C   C5        1.0  0.9841101790587246  0.13062557059724608  0.9338658529563306  1.0000
  C   C6        1.0  0.19648853850782896  0.050687874601130986  0.06616467964775552  1.0000
  C   C7        1.0  0.30092873164194617  0.9469755664642749  0.5660451403131221  1.0000
  C   C8        1.0  0.38037772163341543  0.7352866868878039  0.4338848540949841  1.0000
  C   C9        1.0  0.8365927961673663  0.028094891497815407  0.9494922873943853  1.0000
  C   C10       1.0  0.07863405111054789  0.8873774020763533  0.05046910304246672  1.0000
  C   C11       1.0  0.13765105944842307  0.8291145179824255  0.5504032452332057  1.0000
  C   C12       1.0  0.2783024686913792  0.5875756184692948  0.44954412066400107  1.0000
  C   C13       1.0  0.7327625754601356  0.07288003346068452  0.9829604609968856  1.0000
  C   C14       1.0  0.09028155756762149  0.7500999290738122  0.017086175145628615  1.0000
  C   C15       1.0  0.0004225251900748913  0.8405497461181994  0.5169195253928082  1.0000
  C   C16       1.0  0.323461710052392  0.483806303359458  0.4829551301972473  1.0000
  C   C17       1.0  0.5968182493902462  0.9420329362674308  0.9844645039881643  1.0000
  C   C18       1.0  0.9582024652820706  0.6124293115730168  0.015654296197354305  1.0000
  C   C19       1.0  0.8628180389281043  0.7084160149105757  0.5154867224004391  1.0000
  C   C20       1.0  0.19290564399670984  0.34749687696954373  0.4844075274447662  1.0000
  C   C21       1.0  0.5984910739730082  0.7996120864137664  0.9514499060226174  1.0000
  C   C22       1.0  0.8486795652162513  0.6469103925814608  0.0486330269045752  1.0000
  C   C23       1.0  0.8973493252529536  0.5990510803935719  0.5485600747640547  1.0000
  C   C24       1.0  0.05035675539148342  0.3488303435860942  0.451399985142814  1.0000
  C   C25       1.0  0.0897660693450817  0.6230957363523117  0.8596722880498434  1.0000
  C   C26       1.0  0.7634575596970591  0.2297471816426935  0.1404962562573076  1.0000
  C   C27       1.0  0.480007859032618  0.513349013994059  0.640366512158117  1.0000
  C   C28       1.0  0.8723083555892613  0.8386521143016098  0.3594915017862662  1.0000
  C   C29       1.0  0.03159356065455655  0.718089330874669  0.824807492267091  1.0000
  C   C30       1.0  0.893324345394582  0.206587580718768  0.17539486319252265  1.0000
  C   C31       1.0  0.4565386467854253  0.6430121294498791  0.6752751386868213  1.0000
  C   C32       1.0  0.9671324135491162  0.7805680799735697  0.3245481176685773  1.0000
  C   C33       1.0  0.9980442015910782  0.6687158821167288  0.7624914069449746  1.0000
  C   C34       1.0  0.9064041592712401  0.2356730494085539  0.2377143023434912  1.0000
  C   C35       1.0  0.48509010792515267  0.6556877727128594  0.7375801017475326  1.0000
  C   C36       1.0  0.9177737646356335  0.7474135405851215  0.26222972559794755  1.0000
  C   C37       1.0  0.02708979350843064  0.5306153710821275  0.7373557560045326  1.0000
  C   C38       1.0  0.7934914837509836  0.2899884837056277  0.2628149118232415  1.0000
  C   C39       1.0  0.5392464380737607  0.5426345968676857  0.7626701076870008  1.0000
  C   C40       1.0  0.7797221657258078  0.7766579941549451  0.23718366477680067  1.0000
  C   C41       1.0  0.09017170981043424  0.4443716361506631  0.7755313819932186  1.0000
  C   C42       1.0  0.669015659653489  0.31468729716254973  0.2245973572117849  1.0000
  C   C43       1.0  0.5643520302889868  0.41841734451268303  0.7244498601607249  1.0000
  C   C44       1.0  0.6936328102001781  0.8396398300884941  0.2754475784568129  1.0000
  C   C45       1.0  0.12900263189970218  0.29947127999800216  0.751450061300588  1.0000
  C   C46       1.0  0.5481776197059958  0.3775624986616463  0.24865742561082982  1.0000
  C   C47       1.0  0.6271863780373579  0.29749594306017724  0.7484806062442929  1.0000
  C   C48       1.0  0.5487405485392287  0.8785396206129691  0.25143121646694777  1.0000
  C   C49       1.0  0.09081840612453361  0.23350116956705597  0.6898333658077789  1.0000
  C   C50       1.0  0.5436965639821949  0.4007830472555369  0.31026363946592994  1.0000
  C   C51       1.0  0.6500223820954432  0.2926818163404761  0.8100588598110505  1.0000
  C   C52       1.0  0.4823116911374116  0.8397872875046561  0.18985246477313925  1.0000
  C   C53       1.0  0.127716704101573  0.09601811135480888  0.6701189552285883  1.0000
  C   C54       1.0  0.4258645482877697  0.45728503929765196  0.3299705910923408  1.0000
  C   C55       1.0  0.7064887597802496  0.1747875324401208  0.8297431977533735  1.0000
  C   C56       1.0  0.3447585154239335  0.8765824585584525  0.17018509940729135  1.0000
  C   C57       1.0  0.2026988186295924  0.027339963296896  0.7117355918869421  1.0000
  C   C58       1.0  0.31570823149920113  0.49080756041202284  0.2883612861438962  1.0000
  C   C59       1.0  0.7403291453002723  0.06486912985278791  0.7881375537158632  1.0000
  C   C60       1.0  0.2765212459818401  0.9520933304836279  0.21179771552385068  1.0000
  C   C61       1.0  0.23700197538778414  0.09971847114048421  0.772208011710582  1.0000
  C   C62       1.0  0.3277185018275901  0.46482132324900505  0.22789363540130847  1.0000
  C   C63       1.0  0.7147599090228097  0.07723550898467832  0.7276955455922547  1.0000
  C   C64       1.0  0.3493734728097736  0.9869765195523642  0.27223704269211174  1.0000
  S   S1        1.0  0.765563954702344  0.826605302336368  0.9188344567156864  1.0000
  S   S2        1.0  0.9078608779865364  0.8467120956729987  0.08114066712098382  1.0000
  S   S3        1.0  0.09703722990213494  0.6584540319191348  0.5811668201646755  1.0000
  S   S4        1.0  0.07685102288757417  0.5160572647219369  0.41886990758239057  1.0000
  N   N1        1.0  0.11860183071955532  0.49037845851319867  0.8359329068093758  1.0000
  N   N2        1.0  0.6545183451356138  0.2824535690169157  0.16420665140519475  1.0000
  N   N3        1.0  0.5326183654754288  0.4043128061712338  0.664063763138131  1.0000
  N   N4        1.0  0.7396912191016582  0.8678153724049125  0.33583308310547727  1.0000
  N   N5        1.0  0.20133958463094362  0.23208012694573205  0.7913894368869735  1.0000
  N   N6        1.0  0.44091704930110615  0.4100437452111407  0.20871047115564073  1.0000
  N   N7        1.0  0.6600854597005892  0.19054900696955462  0.7085392962582662  1.0000
  N   N8        1.0  0.48180154975454315  0.9514077457935104  0.29138144354855916  1.0000
  O   O1        1.0  0.4055792953472306  0.20761974929539656  0.9399133163970889  1.0000
  O   O2        1.0  0.2681525075540421  0.46596357078045264  0.06018830262139122  1.0000
  O   O3        1.0  0.71631744237407  0.018474331731681608  0.5600520029315846  1.0000
  O   O4        1.0  0.45848905537980755  0.15655549420414164  0.43980414385688266  1.0000
  O   O5        1.0  0.3588578213058611  0.6128325116420256  0.9670147598110931  1.0000
  O   O6        1.0  0.6465199356428428  0.39157883745337335  0.0330053182870813  1.0000
  O   O7        1.0  0.6421112662453226  0.3967938087675122  0.5329437275466518  1.0000
  O   O8        1.0  0.8639075923871856  0.1089341444392815  0.46693511780104313  1.0000
  O   O9        1.0  0.4948222133362492  0.5306770242063408  0.9001969668465295  1.0000
  O   O10       1.0  0.6309611750205734  0.5942938923942904  0.09981831729293592  1.0000
  O   O11       1.0  0.8448166979318684  0.3813800820210602  0.599808759850852  1.0000
  O   O12       1.0  0.7815663307882944  0.24479021482803637  0.4000973244230508  1.0000
  O   O13       1.0  0.0414011118877369  0.27983450868006793  0.9590724099220724  1.0000
  O   O14       1.0  0.32070567993562094  0.08300092601452043  0.0410765552567085  1.0000
  O   O15       1.0  0.3332694789590391  0.07107092763084918  0.5408831551229057  1.0000
  O   O16       1.0  0.5297384692817815  0.7925632356665702  0.45893499064306553  1.0000
  O   O17       1.0  0.045555086261835215  0.06876655476715851  0.8937539548544539  1.0000
  O   O18       1.0  0.1743657406140144  0.1520953110176606  0.10621313138997121  1.0000
  O   O19       1.0  0.4023444471246407  0.9249346044120728  0.6061296353590607  1.0000
  O   O20       1.0  0.3181034088494243  0.7968087344169702  0.3939173502154247  1.0000
