data_image0
_chemical_formula_structural       Cu4H52C80N20O24
_chemical_formula_sum              "Cu4 H52 C80 N20 O24"
_cell_length_a       10.35432021800597
_cell_length_b       11.242161565022046
_cell_length_c       21.52526981374249
_cell_angle_alpha    94.94414361496385
_cell_angle_beta     89.9998793817314
_cell_angle_gamma    90.00003383052976

_space_group_name_H-M_alt    "P 1"
_space_group_IT_number       1

loop_
  _space_group_symop_operation_xyz
  'x, y, z'

loop_
  _atom_site_type_symbol
  _atom_site_label
  _atom_site_symmetry_multiplicity
  _atom_site_fract_x
  _atom_site_fract_y
  _atom_site_fract_z
  _atom_site_occupancy
  Cu  Cu1       1.0  0.8352302210034283  0.4139830822157363  0.4509859747484486  1.0000
  Cu  Cu2       1.0  0.33521860995625025  0.5860228123746154  0.04901310704092051  1.0000
  Cu  Cu3       1.0  0.16478044711000453  0.5860192524739958  0.5490116003930154  1.0000
  Cu  Cu4       1.0  0.6647698452028195  0.4139839792249376  0.9509869953393704  1.0000
  H   H1        1.0  0.9100190963597259  0.19251744050746572  0.5085515062868711  1.0000
  H   H2        1.0  0.4100153506914523  0.8074903487334739  0.9914470497190424  1.0000
  H   H3        1.0  0.08999060597221131  0.807489355436303  0.49144720256926894  1.0000
  H   H4        1.0  0.5899817964942501  0.1925191242497846  0.008552246470976903  1.0000
  H   H5        1.0  0.10011075741614661  0.05338430195040902  0.5009565977045372  1.0000
  H   H6        1.0  0.600112841125771  0.9466162222943169  0.9990433331679756  1.0000
  H   H7        1.0  0.8998950817893532  0.9466198097171271  0.4990438463485205  1.0000
  H   H8        1.0  0.3998891349575473  0.05338610371340741  0.0009570290049439007  1.0000
  H   H9        1.0  0.23245108734573716  0.23641803879400666  0.3441802680415692  1.0000
  H   H10       1.0  0.7324410334436281  0.763570850001166  0.15581906731596723  1.0000
  H   H11       1.0  0.7675595807598725  0.7635717890486192  0.655819056448067  1.0000
  H   H12       1.0  0.26755418217749855  0.23641719651962492  0.8441787817857505  1.0000
  H   H13       1.0  0.04066351701332141  0.37002993587567806  0.36005713726370203  1.0000
  H   H14       1.0  0.5406466866341476  0.6299722795573289  0.1399406808438357  1.0000
  H   H15       1.0  0.9593519800058206  0.6299697261132736  0.6399384570341767  1.0000
  H   H16       1.0  0.45934080274900424  0.37002737808611397  0.8600563069815693  1.0000
  H   H17       1.0  0.6093663001360383  0.7851764937444513  0.3887264257466755  1.0000
  H   H18       1.0  0.10937446099691782  0.21482306213482621  0.11127352357218  1.0000
  H   H19       1.0  0.3906260181424274  0.2148240466023666  0.6112738545489977  1.0000
  H   H20       1.0  0.8906304124212596  0.7851774695340338  0.8887295437443613  1.0000
  H   H21       1.0  0.7649766714733915  0.6131646623553024  0.3806212610715179  1.0000
  H   H22       1.0  0.26497524908094766  0.3868429940351988  0.11937704360718022  1.0000
  H   H23       1.0  0.23502433883918172  0.38684481786231834  0.6193757125939643  1.0000
  H   H24       1.0  0.7350267270051916  0.6131629061841152  0.8806225533208263  1.0000
  H   H25       1.0  0.651403380834175  0.5063671296342066  0.5514484707167  1.0000
  H   H26       1.0  0.1513870668725019  0.4936343069700655  0.948551449982894  1.0000
  H   H27       1.0  0.34861308195912233  0.49363163084504447  0.44854986966679894  1.0000
  H   H28       1.0  0.8485975251591499  0.5063653362055689  0.05145018288916251  1.0000
  H   H29       1.0  0.4901122710463142  0.6725894215349513  0.5668811029328327  1.0000
  H   H30       1.0  0.9901055550174792  0.32740499563681885  0.9331200106622507  1.0000
  H   H31       1.0  0.5098993628378707  0.3274057589448844  0.4331198607160688  1.0000
  H   H32       1.0  0.009885797471241598  0.6725901761588136  0.06688374002389003  1.0000
  H   H33       1.0  0.675798769478867  0.31730108124088474  0.6269343820041514  1.0000
  H   H34       1.0  0.1757925641770584  0.6826994776130562  0.8730636154165199  1.0000
  H   H35       1.0  0.3242051381682671  0.6826914308759555  0.3730632072938605  1.0000
  H   H36       1.0  0.8242016856690171  0.3172992872021397  0.12693333146448543  1.0000
  H   H37       1.0  0.626693412021723  0.29632611319632934  0.7385557652168161  1.0000
  H   H38       1.0  0.1267002632138201  0.7036771126817741  0.7614400814409168  1.0000
  H   H39       1.0  0.373299872047781  0.7036717645760434  0.2614392827055526  1.0000
  H   H40       1.0  0.8733065417829097  0.29632522924084986  0.23855517117986852  1.0000
  H   H41       1.0  0.06273865340984491  0.4284357174538443  0.6765353077774494  1.0000
  H   H42       1.0  0.562738367488123  0.5715656680270272  0.8234702753401208  1.0000
  H   H43       1.0  0.9372555964235048  0.5715790951453671  0.3234698081144388  1.0000
  H   H44       1.0  0.4372558823419795  0.42842504106820917  0.17653280613489394  1.0000
  H   H45       1.0  0.37773323063104414  0.8388433057554395  0.5280207625124478  1.0000
  H   H46       1.0  0.8777339646763525  0.16115373987597084  0.9719829084322814  1.0000
  H   H47       1.0  0.6222687454436057  0.16115186748893962  0.4719825236638685  1.0000
  H   H48       1.0  0.12226994295652822  0.8388432146876642  0.028021853138703527  1.0000
  H   H49       1.0  0.36519071798151265  0.06542733782719523  0.37921181576854934  1.0000
  H   H50       1.0  0.8651905843368155  0.9345589186916712  0.12078865797354152  1.0000
  H   H51       1.0  0.6348151212210524  0.9345633813973179  0.6207880141690512  1.0000
  H   H52       1.0  0.13481428908654894  0.06542823210797623  0.879210079191367  1.0000
  C   C1        1.0  0.9845725969346902  0.19896356218730202  0.47333479661622874  1.0000
  C   C2        1.0  0.48456894729863365  0.8010397136827337  0.026663084488198822  1.0000
  C   C3        1.0  0.015438071178117204  0.8010405567147673  0.526663324911823  1.0000
  C   C4        1.0  0.5154281998879284  0.19896440521677056  0.9733350370465886  1.0000
  C   C5        1.0  0.08852631383086872  0.12147447367914313  0.46842634219103746  1.0000
  C   C6        1.0  0.5885265343452702  0.878522400113802  0.03157211156624131  1.0000
  C   C7        1.0  0.9114804911561336  0.8785251767343498  0.5315729681473442  1.0000
  C   C8        1.0  0.411474475959679  0.12147546608623833  0.9684266523884447  1.0000
  C   C9        1.0  0.1811602170820734  0.1322833824826475  0.42152038310914014  1.0000
  C   C10       1.0  0.6811602256435095  0.8677099538227184  0.07847827906086023  1.0000
  C   C11       1.0  0.8188436905664672  0.8677109167399949  0.5784768235664118  1.0000
  C   C12       1.0  0.31883981888040586  0.13228523388854546  0.9215203620712205  1.0000
  C   C13       1.0  0.1638506508774853  0.22282305836206015  0.3813543851770974  1.0000
  C   C14       1.0  0.663844631294765  0.7771702756904088  0.1186429007347058  1.0000
  C   C15       1.0  0.8361571198946792  0.777170350925232  0.6186418515464568  1.0000
  C   C16       1.0  0.33615348167071357  0.22282223787205171  0.8813542240616813  1.0000
  C   C17       1.0  0.05756941563991091  0.29813806482004424  0.3898430557375577  1.0000
  C   C18       1.0  0.5575585561115589  0.7018623728399406  0.11015419913039894  1.0000
  C   C19       1.0  0.9424402866953371  0.701860702891537  0.6101529621267049  1.0000
  C   C20       1.0  0.4424337621738276  0.2981372848044188  0.8898427886925976  1.0000
  C   C21       1.0  0.2911693598252825  0.0513069241574797  0.41449891256391436  1.0000
  C   C22       1.0  0.7911713210227944  0.9486819855546432  0.08550082876792695  1.0000
  C   C23       1.0  0.7088335820391835  0.9486846922361919  0.5854995648025962  1.0000
  C   C24       1.0  0.20883065505613982  0.05130962360522059  0.9144999711216641  1.0000
  C   C25       1.0  0.4327808772825108  0.8295046145925228  0.48420530359692304  1.0000
  C   C26       1.0  0.9327826456465549  0.17049237583424312  0.015797452087873903  1.0000
  C   C27       1.0  0.5672191672334748  0.1704914543744707  0.5157970945123509  1.0000
  C   C28       1.0  0.06721933042602761  0.8295072572176282  0.9842074323071587  1.0000
  C   C29       1.0  0.5352385780877142  0.7406430181298521  0.47814861074206777  1.0000
  C   C30       1.0  0.03523943206835161  0.259354722412546  0.021851795085645206  1.0000
  C   C31       1.0  0.46476436377425767  0.2593557351131964  0.5218520521707718  1.0000
  C   C32       1.0  0.9647606124453675  0.740644913532414  0.9781521603013136  1.0000
  C   C33       1.0  0.6160213933687828  0.7250040475881437  0.4255969451554052  1.0000
  C   C34       1.0  0.11602492497015503  0.2749955093779519  0.07440346203718212  1.0000
  C   C35       1.0  0.38397671959236135  0.274996492759776  0.5744033351373831  1.0000
  C   C36       1.0  0.8839780168873261  0.7250059151200717  0.9255996462213577  1.0000
  C   C37       1.0  0.7023225484668812  0.6305904472831545  0.4208433773853459  1.0000
  C   C38       1.0  0.20232129075454  0.3694118268231821  0.07915520859867803  1.0000
  C   C39       1.0  0.29767942762253347  0.3694118874049225  0.5791541977604526  1.0000
  C   C40       1.0  0.7976768222059789  0.6305904977370888  0.9208456180806908  1.0000
  C   C41       1.0  0.638807768564277  0.5700771041146382  0.5167025163157606  1.0000
  C   C42       1.0  0.13879995400994727  0.42992254492890686  0.9832964060424846  1.0000
  C   C43       1.0  0.3612019337665161  0.42991987215097544  0.4832952776845262  1.0000
  C   C44       1.0  0.8611923642661028  0.5700762068653945  0.01670472138017231  1.0000
  C   C45       1.0  0.5501848687539237  0.6628782260597533  0.5251182233305087  1.0000
  C   C46       1.0  0.050180894771131114  0.3371187035124806  0.9748829870553596  1.0000
  C   C47       1.0  0.4498229020098847  0.33711874152514554  0.47488235769785814  1.0000
  C   C48       1.0  0.9498133550605347  0.6628791482190338  0.02512042194790351  1.0000
  C   C49       1.0  0.8721602643511657  0.3744534626941843  0.6442902847406631  1.0000
  C   C50       1.0  0.3721560299319648  0.6255444837705681  0.8557101811704798  1.0000
  C   C51       1.0  0.12783688283172273  0.6255524360774843  0.3557097766942691  1.0000
  C   C52       1.0  0.6278382199060247  0.37444980676988143  0.14428981253701786  1.0000
  C   C53       1.0  0.7498605375946639  0.336189614112783  0.662263745333256  1.0000
  C   C54       1.0  0.24985737199262567  0.6638100786700606  0.8377346018323735  1.0000
  C   C55       1.0  0.2501395069314327  0.6638109320224146  0.33773467694048526  1.0000
  C   C56       1.0  0.7501388094117303  0.33618600476344807  0.16226315123361704  1.0000
  C   C57       1.0  0.7225326736619097  0.32458101100905884  0.7248155195707328  1.0000
  C   C58       1.0  0.22253751515984996  0.6754186728148925  0.7751823903239342  1.0000
  C   C59       1.0  0.2774606104008726  0.6754186422953057  0.2751828617653446  1.0000
  C   C60       1.0  0.7774663924894796  0.3245791977258818  0.22481498011574533  1.0000
  C   C61       1.0  0.8159872911698827  0.34986372956798567  0.7711306437669097  1.0000
  C   C62       1.0  0.3159961820801768  0.650135092676891  0.7288685255524926  1.0000
  C   C63       1.0  0.18400116398879623  0.6501412763724944  0.22886937673131777  1.0000
  C   C64       1.0  0.684008691346982  0.3498600964820114  0.27112965107265563  1.0000
  C   C65       1.0  0.938885803847306  0.38346959154466026  0.7515405851598731  1.0000
  C   C66       1.0  0.4388945876318644  0.6165301616522144  0.7484612896353726  1.0000
  C   C67       1.0  0.061098788187486305  0.616544336903523  0.24846170276867247  1.0000
  C   C68       1.0  0.5611083542283382  0.38346055612502283  0.251539004808187  1.0000
  C   C69       1.0  0.968025471293764  0.3963590381071853  0.6894521847774373  1.0000
  C   C70       1.0  0.46802624918436925  0.6036425089509052  0.8105506718695284  1.0000
  C   C71       1.0  0.0319678127644138  0.6036566745549976  0.3105506495333615  1.0000
  C   C72       1.0  0.5319718637717658  0.3963490987614975  0.18945059252650515  1.0000
  C   C73       1.0  0.7836383236899424  0.33786814600072296  0.8386620641677355  1.0000
  C   C74       1.0  0.28364944903614747  0.662137810901733  0.6613360714073125  1.0000
  C   C75       1.0  0.21634916569091445  0.6621395413216221  0.16133715014503033  1.0000
  C   C76       1.0  0.7163612190785005  0.3378654180642613  0.33866108017066676  1.0000
  C   C77       1.0  0.9032730334094198  0.3965918794817754  0.577990974853698  1.0000
  C   C78       1.0  0.40326752923950704  0.6034060773845268  0.9220099245526471  1.0000
  C   C79       1.0  0.09672990845598411  0.6034086637605186  0.42200837642764105  1.0000
  C   C80       1.0  0.5967286521597687  0.39658999881535106  0.07799015103594802  1.0000
  N   N1        1.0  0.9701507089548899  0.28727858100280196  0.43527256718900287  1.0000
  N   N2        1.0  0.47014007601076463  0.7127246908204158  0.06472486378860512  1.0000
  N   N3        1.0  0.029860924938987007  0.7127237536871078  0.5647250079519779  1.0000
  N   N4        1.0  0.5298522422743873  0.28727853669536063  0.9352727523030353  1.0000
  N   N5        1.0  0.2994627311129889  0.964207052186076  0.44983538605795564  1.0000
  N   N6        1.0  0.799470057800825  0.0357836463444627  0.05016442888730672  1.0000
  N   N7        1.0  0.7005363476278531  0.03578545414294612  0.5501640612605457  1.0000
  N   N8        1.0  0.20053191827441452  0.9642142053885155  0.9498389801121122  1.0000
  N   N9        1.0  0.4049423767529845  0.8915518836267465  0.43799648114737993  1.0000
  N   N10       1.0  0.904948732356992  0.108439742115543  0.06200512762640641  1.0000
  N   N11       1.0  0.5950576677648343  0.10844329540416452  0.5620049470118148  1.0000
  N   N12       1.0  0.09505227793556512  0.8915572138942736  0.937999169441497  1.0000
  N   N13       1.0  0.7121231667910948  0.5528634767851202  0.46513043647112096  1.0000
  N   N14       1.0  0.21211635768469256  0.4471405881582697  0.03486775712497801  1.0000
  N   N15       1.0  0.2878836382013716  0.4471379665210621  0.534866633226713  1.0000
  N   N16       1.0  0.7878759605943628  0.5528626306771544  0.9651326459937906  1.0000
  N   N17       1.0  0.041843724084003504  0.41099093084242383  0.7972294881525245  1.0000
  N   N18       1.0  0.5418584636177358  0.5890158065546559  0.7027754324205804  1.0000
  N   N19       1.0  0.9581360390406248  0.58902387886058  0.20277655675562303  1.0000
  N   N20       1.0  0.45814930714463037  0.4109838366253982  0.2972262004399227  1.0000
  O   O1        1.0  0.8095431553522446  0.37713399837737444  0.538531494837521  1.0000
  O   O2        1.0  0.30953459379311005  0.6228630328575806  0.9614685280404064  1.0000
  O   O3        1.0  0.19046364963478624  0.6228611893351754  0.4614671462911843  1.0000
  O   O4        1.0  0.6904596560436715  0.37713036340660716  0.03853188923057621  1.0000
  O   O5        1.0  0.014039419286866901  0.43082486653531765  0.5648473038331474  1.0000
  O   O6        1.0  0.5140318831598591  0.5691756205892775  0.9351541063446193  1.0000
  O   O7        1.0  0.98596545413983  0.5691774623664119  0.4351521293292891  1.0000
  O   O8        1.0  0.4859633324609335  0.43082938390576697  0.06484637865476373  1.0000
  O   O9        1.0  0.6940216032706985  0.4112652996506726  0.8591230419716356  1.0000
  O   O10       1.0  0.19403277113189432  0.588736160422549  0.6408745137142803  1.0000
  O   O11       1.0  0.3059668518902471  0.5887361393118483  0.14087542124891436  1.0000
  O   O12       1.0  0.8059759654253327  0.41126439584137126  0.35912065702348883  1.0000
  O   O13       1.0  0.8397867787270388  0.2625750113147092  0.8681605229780729  1.0000
  O   O14       1.0  0.339791320684526  0.7374354137562096  0.6318433353967522  1.0000
  O   O15       1.0  0.1602084368876149  0.7374344472009329  0.13184341825810725  1.0000
  O   O16       1.0  0.660215484294902  0.2625713662730362  0.3681604830105699  1.0000
  O   O17       1.0  0.012441412485955502  0.46732216982228186  0.8474213502623373  1.0000
  O   O18       1.0  0.5124582669782641  0.5326908163118774  0.6525806346704357  1.0000
  O   O19       1.0  0.9875393164241615  0.5326971098154729  0.15258304133240597  1.0000
  O   O20       1.0  0.4875533669109302  0.46731329680348227  0.34741934487521325  1.0000
  O   O21       1.0  0.15317312047276493  0.3778388510348307  0.7826645455276237  1.0000
  O   O22       1.0  0.6531868517479184  0.6221679200787308  0.7173430511116197  1.0000
  O   O23       1.0  0.8468047110814825  0.6221696972872621  0.21734492883044257  1.0000
  O   O24       1.0  0.3468189874514849  0.37783618290845317  0.2826601799685662  1.0000
