data_image0
_chemical_formula_structural       Fe4H32C16O28
_chemical_formula_sum              "Fe4 H32 C16 O28"
_cell_length_a       6.943154704766668
_cell_length_b       10.349221997762019
_cell_length_c       10.677101657413036
_cell_angle_alpha    90.00195350868776
_cell_angle_beta     97.50473586720169
_cell_angle_gamma    89.99807269186749

_space_group_name_H-M_alt    "P 1"
_space_group_IT_number       1

loop_
  _space_group_symop_operation_xyz
  'x, y, z'

loop_
  _atom_site_type_symbol
  _atom_site_label
  _atom_site_symmetry_multiplicity
  _atom_site_fract_x
  _atom_site_fract_y
  _atom_site_fract_z
  _atom_site_occupancy
  Fe  Fe1       1.0  0.9339413404403629  0.6045644284747382  0.195942469856206  1.0000
  Fe  Fe2       1.0  0.4348339895444298  0.8954960669344487  0.6959628370463165  1.0000
  Fe  Fe3       1.0  0.065146726433909  0.39550589616382575  0.8040009185247713  1.0000
  Fe  Fe4       1.0  0.5660926704383584  0.10455781332353098  0.3040810006099549  1.0000
  H   H1        1.0  0.9865374746252795  0.9544352152859829  0.28596142585129064  1.0000
  H   H2        1.0  0.484158786517419  0.5442552370646964  0.7852716595221523  1.0000
  H   H3        1.0  0.015888004186059804  0.0442040603696796  0.7146890186566708  1.0000
  H   H4        1.0  0.513457916002686  0.45439856087044456  0.2140467689469432  1.0000
  H   H5        1.0  0.8408405847379258  0.9764706116563816  0.1367583863633826  1.0000
  H   H6        1.0  0.3388113089555489  0.5251261729110793  0.6355088156488337  1.0000
  H   H7        1.0  0.1611226002503088  0.025172770306752995  0.8645083929930025  1.0000
  H   H8        1.0  0.659142947139152  0.4764544018178753  0.3632592851695762  1.0000
  H   H9        1.0  0.2780143411875144  0.8879781582569919  0.18802533818700343  1.0000
  H   H10       1.0  0.7778050959463485  0.6111375272362949  0.6878846726797718  1.0000
  H   H11       1.0  0.7221019087487974  0.11113363307246256  0.8121416510210865  1.0000
  H   H12       1.0  0.22199712115602208  0.3879607345369677  0.3119766254808312  1.0000
  H   H13       1.0  0.1608543868120975  0.8964555309046388  0.028772443651973803  1.0000
  H   H14       1.0  0.6588714400633362  0.6036601022900285  0.5289648595502854  1.0000
  H   H15       1.0  0.8412119242459113  0.10372394605687418  0.9710232485531165  1.0000
  H   H16       1.0  0.3391462932235995  0.3964691798306177  0.4712264297421811  1.0000
  H   H17       1.0  0.024312217678904312  0.671468599169188  0.44350947183498596  1.0000
  H   H18       1.0  0.523578910220074  0.8283823206859893  0.9435198715666216  1.0000
  H   H19       1.0  0.9764012790473656  0.32840942334964046  0.5564541813508654  1.0000
  H   H20       1.0  0.4757391361536776  0.171513110702584  0.056514862908123596  1.0000
  H   H21       1.0  0.22077839493331905  0.6740975846258905  0.387347556377307  1.0000
  H   H22       1.0  0.7204974853778341  0.8270844453059351  0.8878872378503716  1.0000
  H   H23       1.0  0.7795127253120099  0.3270877783614665  0.6121173666700912  1.0000
  H   H24       1.0  0.27927353328684024  0.17411350398670322  0.11268533130945708  1.0000
  H   H25       1.0  0.6234088588825414  0.6271963784947303  0.021947999461751497  1.0000
  H   H26       1.0  0.12354171097544507  0.8724395728333436  0.5223250342642843  1.0000
  H   H27       1.0  0.3763739101531627  0.37243911749190767  0.9776590871374183  1.0000
  H   H28       1.0  0.8766644837415994  0.1271882024268791  0.47807536119479005  1.0000
  H   H29       1.0  0.7637915843236057  0.5261041949942182  0.9618637825759038  1.0000
  H   H30       1.0  0.2640585729679755  0.9735740796765102  0.4621779515214329  1.0000
  H   H31       1.0  0.2358598702144121  0.47355932509756105  0.0378154509502053  1.0000
  H   H32       1.0  0.7362622038202106  0.026099106951541298  0.5381400731545796  1.0000
  C   C1        1.0  0.7232420057114409  0.8392830274614056  0.2590438680183595  1.0000
  C   C2        1.0  0.22246514193432887  0.6611523790348385  0.7594929631019766  1.0000
  C   C3        1.0  0.2775270723244532  0.16114478700541204  0.7405061696447888  1.0000
  C   C4        1.0  0.7767757124030439  0.3392580753051887  0.2409740074485214  1.0000
  C   C5        1.0  0.8947990557698589  0.9041972583943971  0.2087293483932555  1.0000
  C   C6        1.0  0.3935664544051391  0.5960597308071769  0.708603731341519  1.0000
  C   C7        1.0  0.10640005048058039  0.09606243230339118  0.7913601545577009  1.0000
  C   C8        1.0  0.6052063925163296  0.40417485979403267  0.2912833940317583  1.0000
  C   C9        1.0  0.1817000363510601  0.8362116971155868  0.1144420642811426  1.0000
  C   C10       1.0  0.681319095437395  0.6635431595409073  0.6148627421758733  1.0000
  C   C11       1.0  0.818646936660677  0.16356873017184625  0.8851044448866502  1.0000
  C   C12       1.0  0.318311787121658  0.3362073369892045  0.38556859804767635  1.0000
  C   C13       1.0  0.2784407475436054  0.7098460649260614  0.08568009596869791  1.0000
  C   C14       1.0  0.7788868312013334  0.7896225824456308  0.5861493872685841  1.0000
  C   C15       1.0  0.721093345274731  0.28966285259105723  0.9138365704259214  1.0000
  C   C16       1.0  0.22157017402070517  0.20985059054235214  0.41433215269959334  1.0000
  O   O1        1.0  0.10274792768168338  0.622751021757864  0.3866801162816813  1.0000
  O   O2        1.0  0.6017388748258555  0.8777242964133762  0.8869857625456349  1.0000
  O   O3        1.0  0.8982315301789469  0.37775505923850966  0.6129865422615808  1.0000
  O   O4        1.0  0.3973191972648919  0.12277505284144749  0.1133312820709875  1.0000
  O   O5        1.0  0.7613167555684794  0.6048655655669036  0.015409571387607492  1.0000
  O   O6        1.0  0.2614443284152017  0.8948773432361813  0.5158236257655702  1.0000
  O   O7        1.0  0.23846224014707215  0.3948549605110472  0.9841691883703945  1.0000
  O   O8        1.0  0.7387529659818527  0.10486155215019718  0.4846091485187216  1.0000
  O   O9        1.0  0.5914617355588804  0.9127359660064939  0.2926956546099504  1.0000
  O   O10       1.0  0.09085838330093308  0.5877382419370534  0.7934194427589674  1.0000
  O   O11       1.0  0.40914963015782746  0.087728563224772  0.7065875464324947  1.0000
  O   O12       1.0  0.9085398905739196  0.41274178607045536  0.20732842000830232  1.0000
  O   O13       1.0  0.7189091026677443  0.7174363373285073  0.264964364542827  1.0000
  O   O14       1.0  0.21831657654180958  0.7828766591190257  0.765760526839543  1.0000
  O   O15       1.0  0.2816875482117851  0.2828677925493678  0.7342627531339688  1.0000
  O   O16       1.0  0.7811624728729925  0.21742557808072852  0.2350561326513018  1.0000
  O   O17       1.0  0.0004770762640688993  0.8046100652354796  0.155955735079452  1.0000
  O   O18       1.0  0.5010600736662312  0.695704783633758  0.6574728634703391  1.0000
  O   O19       1.0  0.9988329731620311  0.19572884844306768  0.8423987973751751  1.0000
  O   O20       1.0  0.49953507870774416  0.30458875774120026  0.3440576961507631  1.0000
  O   O21       1.0  0.2088885572207317  0.6054957096815554  0.12579603662180722  1.0000
  O   O22       1.0  0.7100950789697149  0.8941362311633155  0.6264224359012474  1.0000
  O   O23       1.0  0.789889918846022  0.3941658816615004  0.8735614426031546  1.0000
  O   O24       1.0  0.2911094315403346  0.1054973349097992  0.37420756906931274  1.0000
  O   O25       1.0  0.4230961219446883  0.7153424280274194  0.025975193610150903  1.0000
  O   O26       1.0  0.9233749314423035  0.7837779951623247  0.5262689006442258  1.0000
  O   O27       1.0  0.5766399067633613  0.2838302337810035  0.9737486379462439  1.0000
  O   O28       1.0  0.07692111954030169  0.21535408821688404  0.4740469276012149  1.0000
