data_image0
_chemical_formula_structural       In4H12C32O24F16
_chemical_formula_sum              "In4 H12 C32 O24 F16"
_cell_length_a       11.176435472040199
_cell_length_b       11.176410186498867
_cell_length_c       14.374278239183539
_cell_angle_alpha    71.92955502973318
_cell_angle_beta     71.9296778266419
_cell_angle_gamma    85.56485920648956

_space_group_name_H-M_alt    "P 1"
_space_group_IT_number       1

loop_
  _space_group_symop_operation_xyz
  'x, y, z'

loop_
  _atom_site_type_symbol
  _atom_site_label
  _atom_site_symmetry_multiplicity
  _atom_site_fract_x
  _atom_site_fract_y
  _atom_site_fract_z
  _atom_site_occupancy
  In  In1       1.0  1.8848176211000155e-06  4.4325801699985184e-08  0.4999977163421931  1.0000
  In  In2       1.0  0.9999991052732542  0.9999981192902613  2.005946612311974e-06  1.0000
  In  In3       1.0  0.9373675646743461  0.06263254227328471  0.24999993031683948  1.0000
  In  In4       1.0  0.0626316088400287  0.9373673408949018  0.749999961079382  1.0000
  H   H1        1.0  0.851874818618981  0.9040831703224301  0.4372366386910186  1.0000
  H   H2        1.0  0.0959176871135412  0.14812537587861394  0.06276253831575218  1.0000
  H   H3        1.0  0.1481224726798942  0.09591671763682541  0.5627637047571952  1.0000
  H   H4        1.0  0.9040833911933888  0.8518754443781589  0.9372359731158538  1.0000
  H   H5        1.0  0.964102630703614  0.24938220233433137  0.3232627978970655  1.0000
  H   H6        1.0  0.7506195891537146  0.035899857950980205  0.17673530478619878  1.0000
  H   H7        1.0  0.03590218945723931  0.7506176664606345  0.6767357373431935  1.0000
  H   H8        1.0  0.24938142296074517  0.964098138207497  0.8232639025799174  1.0000
  H   H9        1.0  0.9760142291885926  0.31988102730836954  0.20464186964952794  1.0000
  H   H10       1.0  0.6801225381101118  0.02399177000026501  0.2953549301676759  1.0000
  H   H11       1.0  0.02399253938023091  0.6801216607938233  0.7953555176042214  1.0000
  H   H12       1.0  0.31987757651200605  0.9760081107723909  0.7046447352025494  1.0000
  C   C1        1.0  0.0895836293425063  0.2825528287433344  0.4329333919062606  1.0000
  C   C2        1.0  0.7174450993079589  0.9104177359698016  0.06707100517493804  1.0000
  C   C3        1.0  0.9104098728966858  0.7174461248641892  0.5670715672964163  1.0000
  C   C4        1.0  0.28255796897071406  0.08958778375859573  0.932929373986127  1.0000
  C   C5        1.0  0.06939400553390132  0.41759455903496007  0.3775626981060682  1.0000
  C   C6        1.0  0.5824055031101949  0.9306040287726063  0.1224405151063834  1.0000
  C   C7        1.0  0.9305986017774899  0.5824062817545156  0.6224392394284022  1.0000
  C   C8        1.0  0.4175956855175187  0.06940149831465452  0.8775568364343656  1.0000
  C   C9        1.0  0.9481515349155955  0.4664078561709035  0.396424260610928  1.0000
  C   C10       1.0  0.5335948598044666  0.051846959665766724  0.10357515576058768  1.0000
  C   C11       1.0  0.05184015437801999  0.5335939294073243  0.603576279102441  1.0000
  C   C12       1.0  0.4664063077849007  0.948157627082509  0.8964210358894035  1.0000
  C   C13       1.0  0.9251336201865074  0.5876330043305132  0.341159962996059  1.0000
  C   C14       1.0  0.412368303404044  0.074865600764781  0.15883884689066008  1.0000
  C   C15       1.0  0.07486559950780959  0.41236876362409464  0.6588366807059741  1.0000
  C   C16       1.0  0.5876308475332691  0.9251333405237506  0.841161972418199  1.0000
  C   C17       1.0  0.023439821022449802  0.6640835403042048  0.26451148307386757  1.0000
  C   C18       1.0  0.3359164980826606  0.9765600759000748  0.23548835260551482  1.0000
  C   C19       1.0  0.9765630948587612  0.3359153919157337  0.7354877361965463  1.0000
  C   C20       1.0  0.6640835282828377  0.02343603940818891  0.7645122406774049  1.0000
  C   C21       1.0  0.14467844211638686  0.6152768658076513  0.24547382485680194  1.0000
  C   C22       1.0  0.3847238849830034  0.855323507818106  0.2545254333487819  1.0000
  C   C23       1.0  0.8553253948600456  0.3847211247048892  0.7545226166279377  1.0000
  C   C24       1.0  0.6152780892775523  0.14467542628381844  0.7454747078820887  1.0000
  C   C25       1.0  0.16767104192508242  0.4944648602510356  0.30219542692813656  1.0000
  C   C26       1.0  0.5055342171995462  0.8323277840833827  0.19780714819354023  1.0000
  C   C27       1.0  0.8323243019916475  0.5055322094281183  0.6978046726376518  1.0000
  C   C28       1.0  0.49446692627404326  0.16767585924456097  0.8021920591724693  1.0000
  C   C29       1.0  0.9995229007533694  0.7960797451457539  0.20694308958520927  1.0000
  C   C30       1.0  0.2039191810564915  0.0004759538412245002  0.2930563122613989  1.0000
  C   C31       1.0  0.0004781128998204015  0.20391825255339316  0.793054029977519  1.0000
  C   C32       1.0  0.7960817392109901  0.9995182732579626  0.7069486945586405  1.0000
  O   O1        1.0  0.025634615497772007  0.20318051887996091  0.4152481437723168  1.0000
  O   O2        1.0  0.7968196851400933  0.9743660614254779  0.084751704940409  1.0000
  O   O3        1.0  0.9743617572704224  0.7968203133544877  0.584751497789256  1.0000
  O   O4        1.0  0.20318056084115454  0.025639466516643908  0.915247960429717  1.0000
  O   O5        1.0  0.1592159692463468  0.25526408676623913  0.4881783073113083  1.0000
  O   O6        1.0  0.7447330717419262  0.8407813551867847  0.01182729842145854  1.0000
  O   O7        1.0  0.8407747317337666  0.7447358153939876  0.5118270979911727  1.0000
  O   O8        1.0  0.25527369631399216  0.15922133240184883  0.9881707847667585  1.0000
  O   O9        1.0  0.046283903856050315  0.8295525434459922  0.11017755327855373  1.0000
  O   O10       1.0  0.170447349680245  0.9537143168612023  0.38982334252819567  1.0000
  O   O11       1.0  0.9537245919662637  0.17044354978888526  0.889821701704868  1.0000
  O   O12       1.0  0.8295562420259232  0.046273316056485214  0.6101791303887366  1.0000
  O   O13       1.0  0.9341789834528881  0.8617029170754974  0.2619081600731192  1.0000
  O   O14       1.0  0.13829782352095776  0.06581884034108751  0.23809168070627607  1.0000
  O   O15       1.0  0.0658229713080445  0.13829507822811146  0.7380887334636198  1.0000
  O   O16       1.0  0.8617030977723419  0.9341753877852174  0.7619119342448356  1.0000
  O   O17       1.0  0.877443845369811  0.995087563637711  0.41163876824058576  1.0000
  O   O18       1.0  0.0049129054563792005  0.12255635087464614  0.08836046783726197  1.0000
  O   O19       1.0  0.1225553281445642  0.004912319530475902  0.588361123155643  1.0000
  O   O20       1.0  0.9950872307169902  0.8774444707505469  0.9116396614892536  1.0000
  O   O21       1.0  0.9262316775543554  0.25709183305847466  0.26571698689377127  1.0000
  O   O22       1.0  0.742911133052658  0.07377505987212632  0.23427909054477425  1.0000
  O   O23       1.0  0.07377506946321688  0.7429099141911736  0.7342799364036878  1.0000
  O   O24       1.0  0.25708992267720987  0.9262248185049845  0.7657203487994622  1.0000
  F   F1        1.0  0.8508326428708344  0.39488603636011294  0.46916824893750697  1.0000
  F   F2        1.0  0.6051168538178259  0.14916539620692507  0.03083261313161499  1.0000
  F   F3        1.0  0.1491591110765285  0.6051185717757337  0.5308336826447402  1.0000
  F   F4        1.0  0.3948805703788949  0.8508401404624807  0.9691656425131113  1.0000
  F   F5        1.0  0.8059539551971753  0.6279191916722768  0.359319938643644  1.0000
  F   F6        1.0  0.3720821315185248  0.19404520498968483  0.14067949494670978  1.0000
  F   F7        1.0  0.1940491828643118  0.3720891557493148  0.640674873041675  1.0000
  F   F8        1.0  0.6279084165512144  0.8059481091485383  0.8593254463995874  1.0000
  F   F9        1.0  0.24239910593706776  0.6855005915759167  0.17266390306132703  1.0000
  F   F10       1.0  0.31450053092373753  0.7576052152823536  0.3273374917191774  1.0000
  F   F11       1.0  0.7576075933618397  0.3144992693466407  0.8273383557337082  1.0000
  F   F12       1.0  0.6855005458444766  0.24239560343374938  0.6726631075158096  1.0000
  F   F13       1.0  0.28577615309751536  0.4507607355554485  0.28068494498532454  1.0000
  F   F14       1.0  0.549238098603105  0.7142225998253908  0.21931918180065674  1.0000
  F   F15       1.0  0.7142200826695769  0.5492344438604065  0.7193223518554389  1.0000
  F   F16       1.0  0.4507687146069372  0.2857819715225532  0.7806770455622924  1.0000
