data_image0
_chemical_formula_structural       Ag4H40C56S8N16Cl4O16
_chemical_formula_sum              "Ag4 H40 C56 S8 N16 Cl4 O16"
_cell_length_a       7.963442137013813
_cell_length_b       13.89534852222803
_cell_length_c       14.995411174065762
_cell_angle_alpha    101.64652570403175
_cell_angle_beta     89.99991323543058
_cell_angle_gamma    90.00020805375875

_space_group_name_H-M_alt    "P 1"
_space_group_IT_number       1

loop_
  _space_group_symop_operation_xyz
  'x, y, z'

loop_
  _atom_site_type_symbol
  _atom_site_label
  _atom_site_symmetry_multiplicity
  _atom_site_fract_x
  _atom_site_fract_y
  _atom_site_fract_z
  _atom_site_occupancy
  Ag  Ag1       1.0  0.914385548601345  0.9957488776608941  0.7670505726579223  1.0000
  Ag  Ag2       1.0  0.41440426861187524  0.5042526553072476  0.7329429096281075  1.0000
  Ag  Ag3       1.0  0.08559960154980219  0.0042512726889186005  0.2329419848100045  1.0000
  Ag  Ag4       1.0  0.5856059963042598  0.4957504493219957  0.2670581983415872  1.0000
  H   H1        1.0  0.22053201016367302  0.1362481765003665  0.842986164419898  1.0000
  H   H2        1.0  0.7205366266789213  0.36374821480129776  0.657010971987077  1.0000
  H   H3        1.0  0.7794594186640538  0.8637483061790406  0.15700904700968005  1.0000
  H   H4        1.0  0.27946610380072906  0.6362534227497891  0.34299119756946084  1.0000
  H   H5        1.0  0.7047273430911504  0.20694908101464188  0.8663255913470707  1.0000
  H   H6        1.0  0.20473184703673303  0.2930531622067392  0.6336753108606318  1.0000
  H   H7        1.0  0.2952603185141101  0.7930481490241235  0.1336764274441151  1.0000
  H   H8        1.0  0.7952708834474222  0.7069506822356929  0.366328601842369  1.0000
  H   H9        1.0  0.8936084243546105  0.377197586641678  0.9305765682918121  1.0000
  H   H10       1.0  0.39360701090502204  0.12280282174128129  0.569420507194195  1.0000
  H   H11       1.0  0.10637923724782183  0.6227996471682927  0.06942745181392945  1.0000
  H   H12       1.0  0.6063894409025251  0.8772017398883281  0.43057420235447097  1.0000
  H   H13       1.0  0.40233953776971987  0.2650429256665062  0.800305167719749  1.0000
  H   H14       1.0  0.9023419627404222  0.2349567653007938  0.6996917676505845  1.0000
  H   H15       1.0  0.5976468680952322  0.734951356401915  0.19969163608874402  1.0000
  H   H16       1.0  0.09765951200509451  0.765046341833852  0.30031067453073496  1.0000
  H   H17       1.0  0.6291952928062869  0.39998494194263406  0.8639848831560782  1.0000
  H   H18       1.0  0.1291998248586737  0.10001568140251038  0.6360157793230314  1.0000
  H   H19       1.0  0.3707898573245317  0.6000108097093318  0.1360121932771818  1.0000
  H   H20       1.0  0.8708003941382997  0.8999852263819578  0.36398892234122837  1.0000
  H   H21       1.0  0.2053060138117218  0.828473650823078  0.7345843154928247  1.0000
  H   H22       1.0  0.7053204083794357  0.6715282134835475  0.7654160652137705  1.0000
  H   H23       1.0  0.7946854150278425  0.17152724186780693  0.2654123809151017  1.0000
  H   H24       1.0  0.29468734505000066  0.32847342910081784  0.2345887727610929  1.0000
  H   H25       1.0  0.7484042913138184  0.8324208739164548  0.5923177289891868  1.0000
  H   H26       1.0  0.24840722373065197  0.6675751739109187  0.9076688674594351  1.0000
  H   H27       1.0  0.25159467194039564  0.16756971283226105  0.4076670524728172  1.0000
  H   H28       1.0  0.7516030411954305  0.3324323432439444  0.09233505969831411  1.0000
  H   H29       1.0  0.950918131991621  0.6808616774484623  0.49773194801736764  1.0000
  H   H30       1.0  0.45091438382571875  0.8191352415442738  0.0022632650750579746  1.0000
  H   H31       1.0  0.04909213289514009  0.3191296642170158  0.5022636434320802  1.0000
  H   H32       1.0  0.5490933696318692  0.18087447747115698  0.9977397368102814  1.0000
  H   H33       1.0  0.4608864288278767  0.7797686868920267  0.6396651617682352  1.0000
  H   H34       1.0  0.9608908160704742  0.7202307530667937  0.8603378979047918  1.0000
  H   H35       1.0  0.5391163016475105  0.22023148107426488  0.36033673516381265  1.0000
  H   H36       1.0  0.03911442589399169  0.2797723490433127  0.1396618758562909  1.0000
  H   H37       1.0  0.6750321609264205  0.6378024065349592  0.5758052008344947  1.0000
  H   H38       1.0  0.17504004465016007  0.8621957361358596  0.924201182545758  1.0000
  H   H39       1.0  0.3249743367523338  0.36219630190683455  0.4242017603110567  1.0000
  H   H40       1.0  0.8249764989489066  0.1378029547169461  0.0757964391296611  1.0000
  C   C1        1.0  0.10376728175277351  0.1762682958694199  0.8576932986613812  1.0000
  C   C2        1.0  0.6037767098459527  0.3237300687362747  0.6423049646398196  1.0000
  C   C3        1.0  0.8962141011621798  0.823728194342408  0.1423059153995041  1.0000
  C   C4        1.0  0.39622853211687203  0.6762737731945165  0.35769761385292037  1.0000
  C   C5        1.0  0.839252110901377  0.21770065040396958  0.8721932647466275  1.0000
  C   C6        1.0  0.3392578192336657  0.2822996548577592  0.6278065028306443  1.0000
  C   C7        1.0  0.16073555069961998  0.7822951100499865  0.12780848142006113  1.0000
  C   C8        1.0  0.6607449112523794  0.717704187070531  0.372196075662643  1.0000
  C   C9        1.0  0.9298764588626938  0.3016747079205047  0.9043671277229919  1.0000
  C   C10       1.0  0.42988172737563696  0.19832136765098346  0.5956311154070804  1.0000
  C   C11       1.0  0.07010743551367682  0.6983181146171731  0.095634740300369  1.0000
  C   C12       1.0  0.5701197473745979  0.8016817331983075  0.40436799124996264  1.0000
  C   C13       1.0  0.24084661954142916  0.33434167307414236  0.9113397745493614  1.0000
  C   C14       1.0  0.7408501771401531  0.1656554946973472  0.5886581564274849  1.0000
  C   C15       1.0  0.7591385305794702  0.6656526165354465  0.0886610318885204  1.0000
  C   C16       1.0  0.2591500418679189  0.8343476111789698  0.4113436186492478  1.0000
  C   C17       1.0  0.3861393527459285  0.32245108323366634  0.86062630088432  1.0000
  C   C18       1.0  0.8861390743644647  0.1775471134538975  0.639374371546765  1.0000
  C   C19       1.0  0.6138470531081595  0.6775417380494347  0.13937490003364417  1.0000
  C   C20       1.0  0.11385988889907848  0.8224545253505082  0.3606284651154539  1.0000
  C   C21       1.0  0.5076184062863546  0.39429524003171684  0.8956288130389325  1.0000
  C   C22       1.0  0.0076268313742602  0.1057036705653118  0.604370962659445  1.0000
  C   C23       1.0  0.49236297662291406  0.6056983072393011  0.10436785445840263  1.0000
  C   C24       1.0  0.9923733876227132  0.8942972372191563  0.3956337390048077  1.0000
  C   C25       1.0  0.45528434747905777  0.4590649058380691  0.9735065801161795  1.0000
  C   C26       1.0  0.9552910598918344  0.040933424667926495  0.5264920608846211  1.0000
  C   C27       1.0  0.5447020583887224  0.5409293724591321  0.02648822237775048  1.0000
  C   C28       1.0  0.04470915910513179  0.9590674831165484  0.47351264077963157  1.0000
  C   C29       1.0  0.10544342975057219  0.8097579996811604  0.6849088564391012  1.0000
  C   C30       1.0  0.6054552901978524  0.6902443969405  0.8150897027581437  1.0000
  C   C31       1.0  0.8945479990859156  0.19024215947439424  0.3150883707614298  1.0000
  C   C32       1.0  0.39454869603178366  0.30976091331677225  0.18491248125451423  1.0000
  C   C33       1.0  0.8720128002712995  0.8081053718958346  0.6081431313943853  1.0000
  C   C34       1.0  0.3720209543756781  0.6918946021366635  0.8918474283043167  1.0000
  C   C35       1.0  0.12798867446682038  0.19188963115220048  0.3918464705696821  1.0000
  C   C36       1.0  0.6279918220271838  0.30811291502070043  0.10815649885288542  1.0000
  C   C37       1.0  0.9693775625302338  0.7333650758158685  0.5610123686090347  1.0000
  C   C38       1.0  0.4693810326129792  0.7666343672096758  0.9389833492127196  1.0000
  C   C39       1.0  0.030626423676629603  0.26662846267814894  0.4389796291494008  1.0000
  C   C40       1.0  0.5306279765820535  0.23337535306406926  0.06102031977719239  1.0000
  C   C41       1.0  0.26091737861963793  0.6776697915731519  0.5856279613963267  1.0000
  C   C42       1.0  0.7609247697381037  0.8223336504510286  0.9143713335065868  1.0000
  C   C43       1.0  0.7390878633415027  0.3223318396950888  0.4143708726354021  1.0000
  C   C44       1.0  0.2390880066671031  0.177672388322037  0.0856276512921426  1.0000
  C   C45       1.0  0.425171793591062  0.7066728202848224  0.6034154302149943  1.0000
  C   C46       1.0  0.9251790517471933  0.7933287529901207  0.8965880539486831  1.0000
  C   C47       1.0  0.574833448360863  0.29332661037742  0.396584996194548  1.0000
  C   C48       1.0  0.07483372464998442  0.2066758212264261  0.10341332664496149  1.0000
  C   C49       1.0  0.5393709617093023  0.630321948392968  0.5688878466082627  1.0000
  C   C50       1.0  0.03937636164731371  0.8696788547108268  0.9311144713710604  1.0000
  C   C51       1.0  0.46063679172083727  0.3696789556277905  0.4311148537397926  1.0000
  C   C52       1.0  0.9606389262199998  0.1303227778244747  0.0688850297633365  1.0000
  C   C53       1.0  0.46196452953575573  0.5448354572567881  0.5238301975127371  1.0000
  C   C54       1.0  0.9619713296582475  0.9551647158707935  0.9761709966879196  1.0000
  C   C55       1.0  0.5380432238901137  0.4551639771791613  0.4761722302108211  1.0000
  C   C56       1.0  0.0380477254303813  0.04483838373892011  0.0238274428604512  1.0000
  S   S1        1.0  0.24451964627939304  0.55694886733518  0.5283308180274489  1.0000
  S   S2        1.0  0.7445263825767797  0.9430552743388888  0.9716672861197325  1.0000
  S   S3        1.0  0.7554906186381346  0.44305276016684303  0.47166601468862274  1.0000
  S   S4        1.0  0.255492672513526  0.05695003593338299  0.0283348978896498  1.0000
  S   S5        1.0  0.2528430249095308  0.43055427325221984  0.003971891091765698  1.0000
  S   S6        1.0  0.752847328924659  0.06944483984892001  0.4960263397632971  1.0000
  S   S7        1.0  0.7471471481793515  0.5694436852960864  0.9960269284868559  1.0000
  S   S8        1.0  0.2471541458156565  0.9305567989579872  0.5039764968983675  1.0000
  N   N1        1.0  0.949147853241925  0.1405307429408325  0.8431101294775374  1.0000
  N   N2        1.0  0.44915396711485295  0.3594675753543514  0.6568885141959768  1.0000
  N   N3        1.0  0.0508423198405623  0.8594650112302701  0.15688828116433473  1.0000
  N   N4        1.0  0.5508500191083954  0.6405355305257245  0.3431132608799388  1.0000
  N   N5        1.0  0.0977663665502817  0.2744535858996997  0.8942980954867322  1.0000
  N   N6        1.0  0.5977689988355978  0.22554550280826643  0.6057009738465879  1.0000
  N   N7        1.0  0.902221295051902  0.7255429106037282  0.10570445409705795  1.0000
  N   N8        1.0  0.4022324759096846  0.774456867019836  0.3942999978127729  1.0000
  N   N9        1.0  0.958254440910153  0.8550494920046888  0.684864664724671  1.0000
  N   N10       1.0  0.4582662831092961  0.6449513947103186  0.815129329249565  1.0000
  N   N11       1.0  0.04174201087985809  0.14494771667262543  0.3151260132820894  1.0000
  N   N12       1.0  0.541742726069181  0.35505392183730333  0.1848761902862677  1.0000
  N   N13       1.0  0.11759382547223401  0.7354681150465441  0.6102218549298897  1.0000
  N   N14       1.0  0.6176009208232998  0.7645328349050049  0.8897757592472716  1.0000
  N   N15       1.0  0.8824101607353613  0.2645276353670951  0.3897745543944211  1.0000
  N   N16       1.0  0.38240808837242923  0.23547614680513362  0.11022577211583238  1.0000
  Cl  Cl1       1.0  0.4589531123789429  0.9983357990071298  0.7598249569263231  1.0000
  Cl  Cl2       1.0  0.9589602254900524  0.5016614327303373  0.7401776946513579  1.0000
  Cl  Cl3       1.0  0.5410420836564074  0.0016606937325818  0.2401755913412629  1.0000
  Cl  Cl4       1.0  0.0410399935083134  0.49833799792691014  0.2598227317592787  1.0000
  O   O1        1.0  0.30128960982375474  0.018986671039748198  0.7169027352563547  1.0000
  O   O2        1.0  0.8012996330366206  0.4810113643689675  0.7831019767555816  1.0000
  O   O3        1.0  0.6987030747360025  0.9810105577469416  0.28309861642888023  1.0000
  O   O4        1.0  0.1987005859608075  0.5189880675453509  0.2168991167599046  1.0000
  O   O5        1.0  0.5046037458363982  0.0839264080470485  0.8299367464235203  1.0000
  O   O6        1.0  0.004608924596354299  0.4160710307346775  0.6700647592785813  1.0000
  O   O7        1.0  0.4953889387221722  0.9160700846901622  0.17006380184461986  1.0000
  O   O8        1.0  0.9953900386666987  0.5839291334566566  0.3299351363397207  1.0000
  O   O9        1.0  0.5910568272084333  0.9786989658093576  0.690497193329314  1.0000
  O   O10       1.0  0.0910653918074331  0.52130120283406  0.8095036316170052  1.0000
  O   O11       1.0  0.40893836883330437  0.0212997313075576  0.3095037638750213  1.0000
  O   O12       1.0  0.908934827191878  0.47869822656611666  0.1904961276887818  1.0000
  O   O13       1.0  0.43660566221311103  0.9127283982275287  0.8014281673690249  1.0000
  O   O14       1.0  0.9366109234369802  0.587266577122179  0.6985700823760156  1.0000
  O   O15       1.0  0.5633907895613249  0.08726735594982671  0.1985702432714831  1.0000
  O   O16       1.0  0.06338803982275458  0.4127321162272822  0.3014288735129398  1.0000
