data_image0
_chemical_formula_structural       Zn4H24C28N16O12
_chemical_formula_sum              "Zn4 H24 C28 N16 O12"
_cell_length_a       4.82575011758684
_cell_length_b       10.466607725006384
_cell_length_c       17.33621241887294
_cell_angle_alpha    89.99999476999467
_cell_angle_beta     91.15304779522002
_cell_angle_gamma    90.00012587122953

_space_group_name_H-M_alt    "P 1"
_space_group_IT_number       1

loop_
  _space_group_symop_operation_xyz
  'x, y, z'

loop_
  _atom_site_type_symbol
  _atom_site_label
  _atom_site_symmetry_multiplicity
  _atom_site_fract_x
  _atom_site_fract_y
  _atom_site_fract_z
  _atom_site_occupancy
  Zn  Zn1       1.0  0.1534786026840251  0.2514033910391049  0.17892499605095943  1.0000
  Zn  Zn2       1.0  0.3465207954698215  0.7514040644677848  0.32107616063716193  1.0000
  Zn  Zn3       1.0  0.8465198238299081  0.7485972582630822  0.8210756106182162  1.0000
  Zn  Zn4       1.0  0.6534776310441189  0.24859658483440228  0.6789244460320135  1.0000
  H   H1        1.0  0.4579991605197691  0.0355322581035367  0.2764313814021051  1.0000
  H   H2        1.0  0.0420012650143562  0.5355316832941313  0.22356921344419337  1.0000
  H   H3        1.0  0.5419992659941643  0.9644683911986431  0.7235692252670705  1.0000
  H   H4        1.0  0.9579992223677748  0.4644680105897337  0.7764308246856971  1.0000
  H   H5        1.0  0.5180113125143819  0.8828698809075561  0.021006342796511007  1.0000
  H   H6        1.0  0.9819917214621868  0.38287140620236937  0.47899342118479643  1.0000
  H   H7        1.0  0.48198916313047857  0.1171279021375611  0.9789931184496724  1.0000
  H   H8        1.0  0.018008754187249596  0.6171282876815382  0.5210060400613515  1.0000
  H   H9        1.0  0.6103491067782016  0.6823742083364337  0.07720203627462752  1.0000
  H   H10       1.0  0.8896550281917539  0.1823756486686818  0.42279716538781303  1.0000
  H   H11       1.0  0.3896555140753151  0.3176245301301606  0.9227974416604287  1.0000
  H   H12       1.0  0.11034338658719628  0.8176240452141459  0.5772028643976342  1.0000
  H   H13       1.0  0.9490292411283648  0.4625686832893051  0.06698444576743162  1.0000
  H   H14       1.0  0.5509700526662868  0.9625699982595533  0.43301645281979273  1.0000
  H   H15       1.0  0.0509691736505857  0.5374310105935223  0.9330155840180154  1.0000
  H   H16       1.0  0.4490283738499344  0.03743160646202169  0.5669841538493614  1.0000
  H   H17       1.0  0.6649851605962666  0.4495145780205478  0.9995436223043019  1.0000
  H   H18       1.0  0.8350132561788969  0.9495162413456839  0.5004564281123792  1.0000
  H   H19       1.0  0.3350132541849717  0.550486071281675  0.00045640748112420014  1.0000
  H   H20       1.0  0.1649872312078102  0.05048536337697131  0.49954361001748304  1.0000
  H   H21       1.0  0.9117507686260281  0.32355705769597165  0.010775084313529203  1.0000
  H   H22       1.0  0.5882519931215313  0.823558402152244  0.48922525839172  1.0000
  H   H23       1.0  0.08824971875611  0.6764426361878931  0.9892249538163613  1.0000
  H   H24       1.0  0.4117505786010653  0.1764432025714129  0.5107753649663351  1.0000
  C   C1        1.0  0.00031675130063040045  0.9766908402203213  0.14425998551337935  1.0000
  C   C2        1.0  0.4996816293524802  0.4766914456330937  0.35574000207320483  1.0000
  C   C3        1.0  0.99968166347832  0.0233088536625061  0.8557400442720609  1.0000
  C   C4        1.0  0.5003167854287582  0.5233092036691288  0.644260027712221  1.0000
  C   C5        1.0  0.0491057406517683  0.8548309406230672  0.17585132030755093  1.0000
  C   C6        1.0  0.4508962018032746  0.3548324568374781  0.32414868774865374  1.0000
  C   C7        1.0  0.9508968075985678  0.14516779784248968  0.8241481492830617  1.0000
  C   C8        1.0  0.5491022247106585  0.645168192464709  0.6758519189205219  1.0000
  C   C9        1.0  0.3110331739398546  0.9929608270468365  0.2354882175050791  1.0000
  C   C10       1.0  0.1889673689413058  0.49296113249640433  0.2645123548049213  1.0000
  C   C11       1.0  0.6889652408390958  0.007038866835991099  0.7645118122803611  1.0000
  C   C12       1.0  0.8110331184431204  0.5070395168068558  0.7354876833249551  1.0000
  C   C13       1.0  0.8078201882824417  0.9921747782415337  0.08130694910844483  1.0000
  C   C14       1.0  0.6921854885336033  0.4921788864534306  0.4186951273610405  1.0000
  C   C15       1.0  0.19218238343100316  0.0078230048045569  0.9186936742496743  1.0000
  C   C16       1.0  0.3078170831912743  0.5078236736896286  0.5813054959970005  1.0000
  C   C17       1.0  0.7316018388481993  0.7631664425986459  0.09863398635768313  1.0000
  C   C18       1.0  0.7684026946485504  0.2631677638382399  0.40136578968190423  1.0000
  C   C19       1.0  0.2684007094021296  0.23683229586691118  0.9013654832329296  1.0000
  C   C20       1.0  0.23159572013268812  0.7368328854639756  0.5986342401035216  1.0000
  C   C21       1.0  0.6301029254223637  0.3350295852647136  0.10278928566332722  1.0000
  C   C22       1.0  0.8698957812357121  0.8350283604668506  0.3972127706483591  1.0000
  C   C23       1.0  0.3698954893565869  0.664970108618114  0.89721074412212  1.0000
  C   C24       1.0  0.1301047413422296  0.16497037799751976  0.6027889981327804  1.0000
  C   C25       1.0  0.7957428267902102  0.3976860769445096  0.04106321822042961  1.0000
  C   C26       1.0  0.704258228983548  0.8976884980594307  0.45893769072422697  1.0000
  C   C27       1.0  0.20425767232462283  0.6023136169393195  0.9589373967932106  1.0000
  C   C28       1.0  0.29574227013814897  0.10231406208258421  0.5410629242893634  1.0000
  N   N1        1.0  0.1679697892825658  0.06323641482331509  0.18326289338966725  1.0000
  N   N2        1.0  0.3320286962855192  0.5632370742738004  0.3167376922526374  1.0000
  N   N3        1.0  0.8320306980972845  0.9367623236411616  0.8167371447402376  1.0000
  N   N4        1.0  0.6679697302284211  0.4367635750283795  0.6832629144165383  1.0000
  N   N5        1.0  0.9190926530733063  0.7449323539929296  0.15355147899717994  1.0000
  N   N6        1.0  0.5809117696615544  0.2449334942109473  0.3464471438406421  1.0000
  N   N7        1.0  0.0809119677824981  0.25506733989306  0.846447998937869  1.0000
  N   N8        1.0  0.419086645119684  0.7550671550912753  0.653552885944791  1.0000
  N   N9        1.0  0.2484307223793607  0.8669027609569753  0.23313707066213143  1.0000
  N   N10       1.0  0.2515712778670078  0.3669031291467845  0.26686293701956043  1.0000
  N   N11       1.0  0.7515697650027774  0.13309693292688957  0.7668629674677591  1.0000
  N   N12       1.0  0.7484271486446445  0.6330965647360074  0.7331376696496295  1.0000
  N   N13       1.0  0.6727010835490219  0.8770839358933812  0.0641725579986385  1.0000
  N   N14       1.0  0.8272998383887044  0.37708435610740304  0.4358266209340088  1.0000
  N   N15       1.0  0.3273014647013142  0.1229148025721756  0.9358269115919743  1.0000
  N   N16       1.0  0.17270064899343401  0.6229153377764618  0.564173417195889  1.0000
  O   O1        1.0  0.36787951103144684  0.32646889617434743  0.09196540617634243  1.0000
  O   O2        1.0  0.13211816216352898  0.8264693410793386  0.4080351629546613  1.0000
  O   O3        1.0  0.6321209763506915  0.6735307977095175  0.9080346319535553  1.0000
  O   O4        1.0  0.8678781800122409  0.17353035280244464  0.5919648584863284  1.0000
  O   O5        1.0  0.7505419330807471  0.29402304119217587  0.16401275967591294  1.0000
  O   O6        1.0  0.7494544811980077  0.7940255255157567  0.3359881357960149  1.0000
  O   O7        1.0  0.2494585542991032  0.7059756972723008  0.8359872784539919  1.0000
  O   O8        1.0  0.25053980011413307  0.2059770346231247  0.6640124541842314  1.0000
  O   O9        1.0  0.7560234656128699  0.0914750967188525  0.04328334035309921  1.0000
  O   O10       1.0  0.743974028089987  0.5914727810747565  0.4567164159799689  1.0000
  O   O11       1.0  0.2439728765651808  0.9085255525823258  0.9567166810878834  1.0000
  O   O12       1.0  0.2560264475571614  0.4085259573897559  0.5432830452661934  1.0000
