data_image0
_chemical_formula_structural       Zn8H36C70Cl6O29
_chemical_formula_sum              "Zn8 H36 C70 Cl6 O29"
_cell_length_a       18.202198469869035
_cell_length_b       18.344697811678408
_cell_length_c       18.307064233805264
_cell_angle_alpha    90.13569038397837
_cell_angle_beta     119.41215598723144
_cell_angle_gamma    120.23281307436471

_space_group_name_H-M_alt    "P 1"
_space_group_IT_number       1

loop_
  _space_group_symop_operation_xyz
  'x, y, z'

loop_
  _atom_site_type_symbol
  _atom_site_label
  _atom_site_symmetry_multiplicity
  _atom_site_fract_x
  _atom_site_fract_y
  _atom_site_fract_z
  _atom_site_occupancy
  Zn  Zn1       1.0  0.9107743639412363  0.047218997518982106  0.4590306224134793  1.0000
  Zn  Zn2       1.0  0.9140294173842703  0.8725638658356304  0.4585131309634392  1.0000
  Zn  Zn3       1.0  0.0869701683703354  0.04200572726362851  0.6310728082309253  1.0000
  Zn  Zn4       1.0  0.088922182149453  0.0472420762175716  0.45903166738559525  1.0000
  Zn  Zn5       1.0  0.08125980449452189  0.45162309719228233  0.0419000130084157  1.0000
  Zn  Zn6       1.0  0.9126128625309279  0.4557708798658525  0.8715149544075161  1.0000
  Zn  Zn7       1.0  0.08820407047185327  0.631132872370749  0.042865251322723466  1.0000
  Zn  Zn8       1.0  0.9157008427337631  0.45619198870297595  0.051218420736254995  1.0000
  H   H1        1.0  0.9678268947193588  0.3463794316893498  0.2806543019602896  1.0000
  H   H2        1.0  0.31965874392400206  0.27744435243716487  0.5571765031492788  1.0000
  H   H3        1.0  0.4235760578126672  0.41798867623450064  0.5384027307421846  1.0000
  H   H4        1.0  0.613586725716736  0.5260164453907806  0.6557709210599042  1.0000
  H   H5        1.0  0.5910700083096927  0.23291996344402585  0.8819758214146489  1.0000
  H   H6        1.0  0.9236518204624319  0.9020096054886795  0.22446564843611586  1.0000
  H   H7        1.0  0.8435877857056652  0.8931377285647459  0.06684605577621744  1.0000
  H   H8        1.0  0.8273153118540151  0.7903248072927483  0.9614600446817859  1.0000
  H   H9        1.0  0.15530607313527872  0.33238877978064363  0.2630837648846054  1.0000
  H   H10       1.0  0.06306122580667767  0.6644322408622332  0.3017561639766343  1.0000
  H   H11       1.0  0.031399228655338465  0.8873278546455624  0.7873410331906001  1.0000
  H   H12       1.0  0.851541523538188  0.17581161849950888  0.25060486954957634  1.0000
  H   H13       1.0  0.015921313446128283  0.7410710487947301  0.5563928666037441  1.0000
  H   H14       1.0  0.010694226180199128  0.6079376289097456  0.5238278590007257  1.0000
  H   H15       1.0  0.9993074041122014  0.5093276769608297  0.6180768631365652  1.0000
  H   H16       1.0  0.9961343352555969  0.5464379296674621  0.7447774369837886  1.0000
  H   H17       1.0  0.02663270714511856  0.7917838870187737  0.8845059747213354  1.0000
  H   H18       1.0  0.600105607366096  0.8813813618678951  0.23771195690131455  1.0000
  H   H19       1.0  0.6807459863468851  0.748167757155173  0.4657370636418036  1.0000
  H   H20       1.0  0.5773748461059753  0.6189753697804578  0.4967368179073192  1.0000
  H   H21       1.0  0.06652229541969491  0.25338631058241395  0.1554021723960588  1.0000
  H   H22       1.0  0.38464137624472267  0.5173555296116916  0.3893998597372814  1.0000
  H   H23       1.0  0.833271722740534  0.22829800946685447  0.12944940432505084  1.0000
  H   H24       1.0  0.29764611583486544  0.5459177172778948  0.2521209312502037  1.0000
  H   H25       1.0  0.40755206272634564  0.7810126618973642  0.13220077222145218  1.0000
  H   H26       1.0  0.8706973409899348  0.1693504335919442  0.09635923279020618  1.0000
  H   H27       1.0  0.010610769914698878  0.2815875028669623  0.387297867621399  1.0000
  H   H28       1.0  0.9824317940698961  0.24648160183378565  0.9115496793931969  1.0000
  H   H29       1.0  0.7347881123241463  0.5013093763868143  0.8566751028963323  1.0000
  H   H30       1.0  0.8376673778215249  0.046928190633053604  0.15102897196808826  1.0000
  H   H31       1.0  0.9652750420464429  0.11401933269628733  0.7577569941234258  1.0000
  H   H32       1.0  0.21588467897215927  0.4748902943787741  0.6566018679303269  1.0000
  H   H33       1.0  0.1968807070162697  0.5631102189650862  0.741888654493927  1.0000
  H   H34       1.0  0.10657251114933794  0.49235688689649504  0.8130221457699207  1.0000
  H   H35       1.0  0.39801959437960477  0.1417584705857493  0.7838454009510869  1.0000
  H   H36       1.0  0.12846059128842305  0.2090570024950296  0.3107347505040536  1.0000
  C   C1        1.0  0.0013716086265559472  0.8672414002993989  0.36139785524837015  1.0000
  C   C2        1.0  0.11106567494546471  0.45256550704320386  0.7734289473581413  1.0000
  C   C3        1.0  0.06659342243219159  0.36102180353299224  0.7654268692533037  1.0000
  C   C4        1.0  0.012254718156015094  0.14850846486042005  0.643717017262901  1.0000
  C   C5        1.0  0.07285384260038082  0.3083453760536372  0.7129000508342358  1.0000
  C   C6        1.0  0.028141747717043607  0.21632950479468604  0.7067256370693401  1.0000
  C   C7        1.0  0.9946111574240316  0.1829291773566126  0.7596300437932015  1.0000
  C   C8        1.0  0.9967826625668154  0.23618251214031014  0.81744706803606  1.0000
  C   C9        1.0  0.023795834883763703  0.3220333585385192  0.814764013072768  1.0000
  C   C10       1.0  0.4028537201268633  0.32147428643467185  0.6056518652065748  1.0000
  C   C11       1.0  0.461346305539429  0.4003675733945756  0.5955637741160018  1.0000
  C   C12       1.0  0.04689295109386638  0.2868498852640257  0.3524529709232382  1.0000
  C   C13       1.0  0.5682219038842005  0.46090855578442824  0.6602119976671686  1.0000
  C   C14       1.0  0.6168711211551353  0.44029751545832596  0.7338402232233888  1.0000
  C   C15       1.0  0.5616525469326419  0.3551505946949832  0.7422925664436802  1.0000
  C   C16       1.0  0.7220891134280762  0.8616825069694586  0.3772251305309027  1.0000
  C   C17       1.0  0.45054644438788927  0.29692758308742384  0.6790951674360529  1.0000
  C   C18       1.0  0.3934339700387356  0.21876698103476144  0.6963215410763086  1.0000
  C   C19       1.0  0.4438437707582494  0.19988257452551042  0.7710176542935655  1.0000
  C   C20       1.0  0.5521012025180454  0.2521599171052245  0.8272409788623634  1.0000
  C   C21       1.0  0.6106939396372867  0.32702126309509083  0.81205551658568  1.0000
  C   C22       1.0  0.9176642199502895  0.8578856956061502  0.17869391019036837  1.0000
  C   C23       1.0  0.9937943109633594  0.19086137222634392  0.29489387837591613  1.0000
  C   C24       1.0  0.8733010644514321  0.8532523391754765  0.09102277605561666  1.0000
  C   C25       1.0  0.8644474083389042  0.795810363840566  0.03137373956842999  1.0000
  C   C26       1.0  0.9015866652586624  0.7446565648107324  0.06056794454541137  1.0000
  C   C27       1.0  0.9512456994072523  0.748588577172811  0.1513734107897023  1.0000
  C   C28       1.0  0.2784085719330206  0.15355749305026484  0.6370082023049264  1.0000
  C   C29       1.0  0.9564191395155602  0.8060785046504436  0.2105212230514297  1.0000
  C   C30       1.0  0.9991777423209597  0.809562575951226  0.3009083383099665  1.0000
  C   C31       1.0  0.0359438763911014  0.7586630443657967  0.3319464272271021  1.0000
  C   C32       1.0  0.03279036667716878  0.7034768174755969  0.2754594402409722  1.0000
  C   C33       1.0  0.9928016347976512  0.6990679197080214  0.18769140633614262  1.0000
  C   C34       1.0  0.00033051795610109896  0.2978232162447868  0.20004204514201263  1.0000
  C   C35       1.0  0.012105346584938555  0.6993003820534014  0.5982373598978866  1.0000
  C   C36       1.0  0.008626995472155834  0.6242838412090067  0.5798428900932464  1.0000
  C   C37       1.0  0.002469419322288369  0.5688314094809925  0.6329871776678145  1.0000
  C   C38       1.0  0.001226358986180396  0.5898544492740573  0.7045065182990058  1.0000
  C   C39       1.0  0.005538423418130267  0.6670489730245279  0.7261317659963282  1.0000
  C   C40       1.0  0.013154360582618133  0.860413312376366  0.637910023277172  1.0000
  C   C41       1.0  0.010187726433237216  0.7229746385043115  0.6710000491390532  1.0000
  C   C42       1.0  0.016801719101472597  0.8017754650607287  0.6941101779871914  1.0000
  C   C43       1.0  0.02447653922661168  0.8261733023210811  0.7706344172689441  1.0000
  C   C44       1.0  0.021573254832844644  0.7725480039904796  0.8249845853178215  1.0000
  C   C45       1.0  0.8893274674049534  0.21157294929808754  0.15403697890965853  1.0000
  C   C46       1.0  0.009773147816460402  0.6934572646901672  0.8025331299701222  1.0000
  C   C47       1.0  0.5971025296260424  0.7045430969778582  0.418686042013917  1.0000
  C   C48       1.0  0.5390032718390076  0.6318557565566751  0.4357942136689062  1.0000
  C   C49       1.0  0.4303657255497413  0.5744098258312322  0.37524339516866695  1.0000
  C   C50       1.0  0.3813828773891572  0.5905597330956455  0.29836698063090955  1.0000
  C   C51       1.0  0.4385193560967551  0.6650833318762254  0.27855161250165855  1.0000
  C   C52       1.0  0.990723588219943  0.1317121216729618  0.3540132864042533  1.0000
  C   C53       1.0  0.54955133841122  0.7238000818036382  0.3403125318070578  1.0000
  C   C54       1.0  0.6064183627199496  0.801133608899008  0.32213040356227646  1.0000
  C   C55       1.0  0.5551495087574523  0.8213252935726987  0.2490813648948278  1.0000
  C   C56       1.0  0.030996664112329608  0.3438457927505  0.29074546420678626  1.0000
  C   C57       1.0  0.44710675438562925  0.7646419916127203  0.1895259436383228  1.0000
  C   C58       1.0  0.38960637750364685  0.686927760272177  0.20216072452294762  1.0000
  C   C59       1.0  0.7248854336191357  0.36962394081241  0.8679076631166326  1.0000
  C   C60       1.0  0.27512272627103584  0.6298694610301327  0.13485603665009194  1.0000
  C   C61       1.0  0.0057695904099545675  0.36821375034487863  0.8631687844664953  1.0000
  C   C62       1.0  0.0008417815062670931  0.6411221883500177  0.13803109412540246  1.0000
  C   C63       1.0  0.0017377682656202344  0.6376910540976723  0.8611324049339686  1.0000
  C   C64       1.0  0.056133662018211815  0.19817337568458984  0.2578592372574491  1.0000
  C   C65       1.0  0.0005901461903973365  0.35868947483171354  0.1431123785049806  1.0000
  C   C66       1.0  0.07516882648226902  0.27333628951695493  0.2170407208262759  1.0000
  C   C67       1.0  0.12906261422575224  0.3534097136489649  0.6755815469241425  1.0000
  C   C68       1.0  0.8819115344338258  0.15942061684675932  0.21908983496901868  1.0000
  C   C69       1.0  0.1721682843923631  0.4429826807150833  0.6850459860340408  1.0000
  C   C70       1.0  0.16209410837124955  0.49229411105064724  0.7338101314126889  1.0000
  Cl  Cl1       1.0  0.9923166982070057  0.09296329860762852  0.17612411492601854  1.0000
  Cl  Cl2       1.0  0.15443681284072147  0.30051956193207746  0.6218646360755573  1.0000
  Cl  Cl3       1.0  0.08839942362006062  0.7622498250998646  0.4415323199797001  1.0000
  Cl  Cl4       1.0  0.8808402777712985  0.6731483592509093  0.9792900271658596  1.0000
  Cl  Cl5       1.0  0.17961085584466469  0.3342629859250295  0.4397170030127242  1.0000
  Cl  Cl6       1.0  0.13930838519800656  0.45862550917617284  0.3384970346169283  1.0000
  O   O1        1.0  0.9988044842694208  0.0036999429644311  0.5007776711927079  1.0000
  O   O2        1.0  0.07022918984548429  0.6810591317600367  0.12305880195044236  1.0000
  O   O3        1.0  0.9325930701909685  0.553795753777962  0.8232847324073091  1.0000
  O   O4        1.0  0.07662728880517018  0.9495272002455055  0.39713755719512983  1.0000
  O   O5        1.0  0.9372965740682491  0.37939448407266957  0.12222608666471765  1.0000
  O   O6        1.0  0.06405142745414583  0.679483899845721  0.9448583351735563  1.0000
  O   O7        1.0  0.06315359431435749  0.382588573480362  0.12079619064102333  1.0000
  O   O8        1.0  0.019385286263869293  0.35414104137445435  0.937085198968873  1.0000
  O   O9        1.0  0.9421786139697874  0.5574822337176715  0.12217009912365755  1.0000
  O   O10       1.0  0.7665647018402098  0.3737887893149576  0.8273618725377858  1.0000
  O   O11       1.0  0.23300951553383686  0.6713623401409237  0.10994917508498495  1.0000
  O   O12       1.0  0.7638625688905447  0.9449678860407645  0.3879213473872695  1.0000
  O   O13       1.0  0.9445511850627639  0.12549219502817982  0.561252557970178  1.0000
  O   O14       1.0  0.7696272478645269  0.8247499651813187  0.406611924332921  1.0000
  O   O15       1.0  0.23374380426376717  0.11576246459848252  0.6753020090460566  1.0000
  O   O16       1.0  0.9578950519369372  0.8237506116565073  0.5536998174007481  1.0000
  O   O17       1.0  0.0421155848153205  0.09960260350627692  0.3678387703208372  1.0000
  O   O18       1.0  0.06371439832078367  0.9434049540325378  0.6789560151745563  1.0000
  O   O19       1.0  0.9387412653453922  0.12220286025824828  0.38522264469028755  1.0000
  O   O20       1.0  0.9672522908268774  0.1981378936072531  0.8696918707641855  1.0000
  O   O21       1.0  0.7192260281358003  0.5057209879081057  0.7984142733802315  1.0000
  O   O22       1.0  0.8107940860717094  0.0652799671658855  0.1764864805663465  1.0000
  O   O23       1.0  0.23363771766685903  0.13841247939877382  0.5532102226155402  1.0000
  O   O24       1.0  0.9268004757875232  0.8279114304740605  0.37009321706975146  1.0000
  O   O25       1.0  0.06284276818932  0.11564433520062073  0.6806648274319187  1.0000
  O   O26       1.0  0.9988417590855078  0.49941596246804215  0.002432455154625818  1.0000
  O   O27       1.0  0.7692737673221047  0.39438157440459787  0.9519599492907814  1.0000
  O   O28       1.0  0.22907560131884  0.5451584863376341  0.1067752125818586  1.0000
  O   O29       1.0  0.9742895352246421  0.41598459085336986  0.8309950188467923  1.0000
