data_image0
_chemical_formula_structural       Cu2H8C8N8O12
_chemical_formula_sum              "Cu2 H8 C8 N8 O12"
_cell_length_a       5.262647472204598
_cell_length_b       6.679709297201064
_cell_length_c       11.691652819516111
_cell_angle_alpha    89.99933552135882
_cell_angle_beta     90.00083223949947
_cell_angle_gamma    90.00059231817977

_space_group_name_H-M_alt    "P 1"
_space_group_IT_number       1

loop_
  _space_group_symop_operation_xyz
  'x, y, z'

loop_
  _atom_site_type_symbol
  _atom_site_label
  _atom_site_symmetry_multiplicity
  _atom_site_fract_x
  _atom_site_fract_y
  _atom_site_fract_z
  _atom_site_occupancy
  Cu  Cu1       1.0  0.9999986700146833  0.4999968944861522  0.4999984111375254  1.0000
  Cu  Cu2       1.0  2.3817400000000003e-11  1.4970625273000002e-06  8.553060624e-07  1.0000
  H   H1        1.0  0.6863903727684074  0.8109810892356605  0.6091956451362819  1.0000
  H   H2        1.0  0.31360317904396595  0.6890137109183883  0.10920225214925239  1.0000
  H   H3        1.0  0.3136067163828499  0.8109862429023877  0.3908044593196394  1.0000
  H   H4        1.0  0.6863961300761046  0.689016358708372  0.8908029432414608  1.0000
  H   H5        1.0  0.3136083870706656  0.1890130678786193  0.3908005485739707  1.0000
  H   H6        1.0  0.6863936808004708  0.31098793145760334  0.8908024946405675  1.0000
  H   H7        1.0  0.6863977440796346  0.18900791419232382  0.6091960109641404  1.0000
  H   H8        1.0  0.3136045301183614  0.3109867807716498  0.1092000929333778  1.0000
  C   C1        1.0  0.825719229909552  0.8959394452886825  0.5603866254762337  1.0000
  C   C2        1.0  0.17427651127299268  0.6040623263320057  0.06038948831471199  1.0000
  C   C3        1.0  0.17428276046356217  0.8959409698544006  0.43961205643793017  1.0000
  C   C4        1.0  0.8257197967918302  0.6040606486165673  0.9396137083595874  1.0000
  C   C5        1.0  0.17427953001948987  0.10405770592479507  0.4396138447793376  1.0000
  C   C6        1.0  0.8257222487468849  0.3959423102113248  0.9396135478490565  1.0000
  C   C7        1.0  0.8257197997581827  0.10405318726692771  0.5603849925955302  1.0000
  C   C8        1.0  0.17427706304818708  0.39594249083918226  0.06039018311417269  1.0000
  N   N1        1.0  0.9999948778811854  0.7945426467414478  0.500000849043353  1.0000
  N   N2        1.0  7.703333580000004e-07  0.7054528558613029  1.9214385887e-06  1.0000
  N   N3        1.0  5.782156279100002e-06  0.2054515103720504  0.4999961999840323  1.0000
  N   N4        1.0  8.226237500000036e-09  0.29454874643047185  7.272858511000001e-07  1.0000
  N   N5        1.0  0.7308780081628257  0.5000022672816513  0.3022881226622403  1.0000
  N   N6        1.0  0.2691059372111154  3.5087564285e-06  0.8023125725608935  1.0000
  N   N7        1.0  0.2691226519751808  0.5000008722328317  0.6977114922683468  1.0000
  N   N8        1.0  0.7308947229313106  0.9999981336783036  0.19768789768575346  1.0000
  O   O1        1.0  0.9744269335403997  0.5000045207861135  0.3268867915308107  1.0000
  O   O2        1.0  0.02553692139009911  2.2569583109e-06  0.8268917238099505  1.0000
  O   O3        1.0  0.025564225576530895  0.4999941275188533  0.6731085468291056  1.0000
  O   O4        1.0  0.9744629602544707  7.773010822000018e-07  0.1731086636354533  1.0000
  O   O5        1.0  0.5758775241479058  0.49999781132800086  0.383979242459155  1.0000
  O   O6        1.0  0.42407759278841434  0.9999974419606872  0.8840021994305047  1.0000
  O   O7        1.0  0.4241231359098235  0.500003831158409  0.6160160959211112  1.0000
  O   O8        1.0  0.5759230673301944  2.7034115178000006e-06  0.11599741551007979  1.0000
  O   O9        1.0  0.6680277232534876  0.5000030394033743  0.19989179205277452  1.0000
  O   O10       1.0  0.3319699438902076  1.2284732612499999e-05  0.6998995372979097  1.0000
  O   O11       1.0  0.3319672362946164  0.5000030942643362  0.8001044016053527  1.0000
  O   O12       1.0  0.6680288160723507  0.9999878606145316  0.3001017882587291  1.0000
