data_image0
_chemical_formula_structural       CoH22C26N6O10
_chemical_formula_sum              "Co1 H22 C26 N6 O10"
_cell_length_a       7.63499844383234
_cell_length_b       9.412389086434677
_cell_length_c       9.51717535090584
_cell_angle_alpha    75.02212318410085
_cell_angle_beta     83.08491320619015
_cell_angle_gamma    90.73456123081174

_space_group_name_H-M_alt    "P 1"
_space_group_IT_number       1

loop_
  _space_group_symop_operation_xyz
  'x, y, z'

loop_
  _atom_site_type_symbol
  _atom_site_label
  _atom_site_symmetry_multiplicity
  _atom_site_fract_x
  _atom_site_fract_y
  _atom_site_fract_z
  _atom_site_occupancy
  Co  Co1       1.0  0.4999985639167906  0.5000103486398758  0.5000015645092688  1.0000
  H   H1        1.0  0.26475610114420794  0.5553358977875862  0.6817188587139142  1.0000
  H   H2        1.0  0.735244551428295  0.4446716079421408  0.3182891387657065  1.0000
  H   H3        1.0  0.15941255990200182  0.4184378119451112  0.6577629089594268  1.0000
  H   H4        1.0  0.8406036874323349  0.5815633157947177  0.34224741038344325  1.0000
  H   H5        1.0  0.2498865311028595  0.2712991057963095  0.49840082717931716  1.0000
  H   H6        1.0  0.7501090905217681  0.7287160372184546  0.5016047583813475  1.0000
  H   H7        1.0  0.43746947013866605  0.868931211417369  0.752773207783676  1.0000
  H   H8        1.0  0.5625250709237691  0.13107027524250012  0.2472114414575159  1.0000
  H   H9        1.0  0.7064866285236634  0.017440186942195606  0.7780644818733649  1.0000
  H   H10       1.0  0.293508760528141  0.9825544295296496  0.2219322004758198  1.0000
  H   H11       1.0  0.7313112405264947  0.2868851376635604  0.6577607992919638  1.0000
  H   H12       1.0  0.2686907305238934  0.7131127806142743  0.3422387952638601  1.0000
  H   H13       1.0  0.15871707168236782  0.8602797784694405  0.6448381189646782  1.0000
  H   H14       1.0  0.8412890240727222  0.13972585418837724  0.3551614628806803  1.0000
  H   H15       1.0  0.10089242191106963  0.4242482198218768  0.2750697832556384  1.0000
  H   H16       1.0  0.8990942805517648  0.5757262456217235  0.7249396158382311  1.0000
  H   H17       1.0  0.8848830587240644  0.33664659520471935  0.13325366128876232  1.0000
  H   H18       1.0  0.11511100694936971  0.6633469266178126  0.8667423293131762  1.0000
  H   H19       1.0  0.3161702604892512  0.20943398102470928  0.8621938552677975  1.0000
  H   H20       1.0  0.6838363891124503  0.7905516652506892  0.13781766151927846  1.0000
  H   H21       1.0  0.5315196751139979  0.29184922242905753  0.006929198311659931  1.0000
  H   H22       1.0  0.4684750506702714  0.7081404383055416  0.9930886580585251  1.0000
  C   C1        1.0  0.34901608637168385  0.21167995369894044  0.5601050184901412  1.0000
  C   C2        1.0  0.6509783381831583  0.7883384959149354  0.4398988477082072  1.0000
  C   C3        1.0  0.32689165633017586  0.05938157043296142  0.6199570224744165  1.0000
  C   C4        1.0  0.6731092854845999  0.9406283693899625  0.38004197850043653  1.0000
  C   C5        1.0  0.4548894018477157  0.9870767408599481  0.7028035812425485  1.0000
  C   C6        1.0  0.5451089397838588  0.012927854646129304  0.2971895052633258  1.0000
  C   C7        1.0  0.6021369720078057  0.06882032412613631  0.7168768167575337  1.0000
  C   C8        1.0  0.3978571983455126  0.9311797120181569  0.28312081343327833  1.0000
  C   C9        1.0  0.6175716425034424  0.21939584333389212  0.6510764666287088  1.0000
  C   C10       1.0  0.38242133741238155  0.7806096416664804  0.3489210510665686  1.0000
  C   C11       1.0  0.17562145649117164  0.9791042579641602  0.5935145825547251  1.0000
  C   C12       1.0  0.8243818977757301  0.0208958844587173  0.4064843865074296  1.0000
  C   C13       1.0  0.4595861770747334  0.4093801500731047  0.23758310518459072  1.0000
  C   C14       1.0  0.5404118254248688  0.5906240952295152  0.7624227053671361  1.0000
  C   C15       1.0  0.3295471728022222  0.3650985825543105  0.14832288517682465  1.0000
  C   C16       1.0  0.670457227281034  0.6348948939658997  0.8516806946332522  1.0000
  C   C17       1.0  0.14761108777390322  0.37779316620531495  0.184386645998039  1.0000
  C   C18       1.0  0.8523948434631593  0.6222048226350128  0.8156126134993684  1.0000
  C   C19       1.0  0.026738964426606098  0.32841325980227515  0.10731565867615701  1.0000
  C   C20       1.0  0.9732553006581456  0.6715900772783387  0.8926812008033592  1.0000
  C   C21       1.0  0.0913293033399043  0.2701273870645481  0.9914634514890396  1.0000
  C   C22       1.0  0.9086662120204922  0.7298716306557155  0.008532203245088993  1.0000
  C   C23       1.0  0.27153669212211906  0.2576792594684889  0.9517686072814585  1.0000
  C   C24       1.0  0.7284625224436708  0.7423174239047088  0.04823464856186632  1.0000
  C   C25       1.0  0.3903046107017332  0.3036945346439596  0.03257461198970191  1.0000
  C   C26       1.0  0.6096999439511138  0.696303372308286  0.9674268798681496  1.0000
  N   N1        1.0  0.49014415072927875  0.29020737500473365  0.5757718002797033  1.0000
  N   N2        1.0  0.5098503320793527  0.709802593132139  0.42422245744006654  1.0000
  N   N3        1.0  0.06647576687464612  0.0467593092961422  0.5076645615555577  1.0000
  N   N4        1.0  0.9335207943020978  0.9532330425214541  0.49233570392648573  1.0000
  N   N5        1.0  0.9651716347161072  0.22157050616902307  0.9085110797282426  1.0000
  N   N6        1.0  0.034843844511357205  0.7784268972084905  0.09147493082411981  1.0000
  O   O1        1.0  0.3953857388218864  0.47907845344485633  0.33090026566913633  1.0000
  O   O2        1.0  0.6046073872994172  0.5209378595748433  0.6691010450114163  1.0000
  O   O3        1.0  0.6178280995377533  0.3731439473138495  0.2192072559133891  1.0000
  O   O4        1.0  0.3821602303946676  0.6268479423589215  0.780805343394185  1.0000
  O   O5        1.0  0.8180007134147619  0.16991880721509042  0.9735916361533157  1.0000
  O   O6        1.0  0.18201353053346742  0.830078660192456  0.026391305073715843  1.0000
  O   O7        1.0  0.011218133972605003  0.23505660325110267  0.7746956552992615  1.0000
  O   O8        1.0  0.9888065790581353  0.7649388225152624  0.22528796658335176  1.0000
  O   O9        1.0  0.2172426058638024  0.5141698509590499  0.6052982162986353  1.0000
  O   O10       1.0  0.782761943741086  0.4858355247089608  0.39470995993009694  1.0000
