data_image0
_chemical_formula_structural       Al2H12C20O11
_chemical_formula_sum              "Al2 H12 C20 O11"
_cell_length_a       6.653837806519764
_cell_length_b       11.135656156042577
_cell_length_c       13.385784281106803
_cell_angle_alpha    69.78671016417822
_cell_angle_beta     72.13097016967716
_cell_angle_gamma    72.54414567768455

_space_group_name_H-M_alt    "P 1"
_space_group_IT_number       1

loop_
  _space_group_symop_operation_xyz
  'x, y, z'

loop_
  _atom_site_type_symbol
  _atom_site_label
  _atom_site_symmetry_multiplicity
  _atom_site_fract_x
  _atom_site_fract_y
  _atom_site_fract_z
  _atom_site_occupancy
  Al  Al1       1.0  0.4982565300762546  0.5013528658758517  0.5005411540480653  1.0000
  Al  Al2       1.0  0.00033485164794913645  0.49603884973903695  0.5019996571251185  1.0000
  H   H1        1.0  0.2731419841597785  0.6058740556028968  0.36916766951031843  1.0000
  H   H2        1.0  0.7755105154462145  0.3360602341002449  0.5822253154555314  1.0000
  H   H3        1.0  0.14120702243120323  0.12490575239140612  0.46747282857072053  1.0000
  H   H4        1.0  0.7431810010165522  0.10710550795781874  0.5363135820713084  1.0000
  H   H5        1.0  0.26808572478102394  0.891072860110384  0.46469757464187483  1.0000
  H   H6        1.0  0.6770157729437332  0.4470918537156622  0.18910530495151792  1.0000
  H   H7        1.0  0.20612922323121544  0.6081703730095358  0.16699708624329193  1.0000
  H   H8        1.0  0.34808099443432633  0.6097597896680045  0.971492761443706  1.0000
  H   H9        1.0  0.3227892917220315  0.5560225372674098  0.809948698370228  1.0000
  H   H10       1.0  0.7919197928924648  0.39700152534965844  0.8315292705271065  1.0000
  H   H11       1.0  0.6506680056942358  0.39432957730218754  0.02784574485285418  1.0000
  H   H12       1.0  0.930931350349809  0.7744272943751298  0.5340044897979794  1.0000
  C   C1        1.0  0.850153894832637  0.5264426496946656  0.30588352280999237  1.0000
  C   C2        1.0  0.6436549313395047  0.7287420223920833  0.497511859898623  1.0000
  C   C3        1.0  0.1480576844034828  0.4775814329763508  0.6934839088076004  1.0000
  C   C4        1.0  0.35763752721428693  0.2691233673891205  0.5054891110455628  1.0000
  C   C5        1.0  0.5753192662085171  0.8672123529857457  0.4985214084490155  1.0000
  C   C6        1.0  0.43478270662618707  0.1298000525644909  0.5021274095103438  1.0000
  C   C7        1.0  0.7112401546166257  0.9286828550667464  0.5193464824644638  1.0000
  C   C8        1.0  0.29994589550792483  0.06927922519847843  0.48140441075540974  1.0000
  C   C9        1.0  0.6386874240875641  0.0602530113026276  0.5204297982683458  1.0000
  C   C10       1.0  0.371119065681313  0.9397348164377277  0.4794256991564084  1.0000
  C   C11       1.0  0.8238660701494285  0.48196328624494106  0.14086400204976712  1.0000
  C   C12       1.0  0.12410102011515534  0.5729028987147161  0.1272709102528964  1.0000
  C   C13       1.0  0.2025600382418133  0.5730838487764488  0.01945433102915931  1.0000
  C   C14       1.0  0.09637073757053127  0.5252572361485762  0.9684527614323247  1.0000
  C   C15       1.0  0.17550549677371663  0.5217589208955005  0.8583812302951446  1.0000
  C   C16       1.0  0.8743108763201162  0.4312675124572038  0.8718932287936669  1.0000
  C   C17       1.0  0.7963823225789  0.43081516116135554  0.9798137297134846  1.0000
  C   C18       1.0  0.9030110759701486  0.47841782522242243  0.03080730824482461  1.0000
  C   C19       1.0  0.9322418020856206  0.5275744293247228  0.18885649602135157  1.0000
  C   C20       1.0  0.06652707811132781  0.47641021623834956  0.8105468584728754  1.0000
  O   O1        1.0  0.6583937280934224  0.5091385401048072  0.3519391997291096  1.0000
  O   O2        1.0  0.8333458861115587  0.666611953958217  0.5150572002301106  1.0000
  O   O3        1.0  0.02316673036889224  0.4557301944315954  0.6490925431079617  1.0000
  O   O4        1.0  0.4860434501430576  0.32199839505545913  0.5217803273687951  1.0000
  O   O5        1.0  0.33556867029781046  0.5005706242141559  0.6454076807996644  1.0000
  O   O6        1.0  0.16597427755716154  0.32552870008478163  0.4924304684119535  1.0000
  O   O7        1.0  0.978371383488259  0.542893085984126  0.3518545633499174  1.0000
  O   O8        1.0  0.5174299214606676  0.6772893202117063  0.4790766682451848  1.0000
  O   O9        1.0  0.24660364251766972  0.5671348018428759  0.44767222123291384  1.0000
  O   O10       1.0  0.7510883132570711  0.4304395523893163  0.551889108734912  1.0000
  O   O11       1.0  0.9087439796899661  0.8654823493461378  0.5390098472836514  1.0000
