data_image0
_chemical_formula_structural       Zn6P6H54C54O24
_chemical_formula_sum              "Zn6 P6 H54 C54 O24"
_cell_length_a       7.961891674279232
_cell_length_b       15.38630315259665
_cell_length_c       15.385453268012407
_cell_angle_alpha    117.074145416745
_cell_angle_beta     99.94528107810022
_cell_angle_gamma    99.93263787502778

_space_group_name_H-M_alt    "P 1"
_space_group_IT_number       1

loop_
  _space_group_symop_operation_xyz
  'x, y, z'

loop_
  _atom_site_type_symbol
  _atom_site_label
  _atom_site_symmetry_multiplicity
  _atom_site_fract_x
  _atom_site_fract_y
  _atom_site_fract_z
  _atom_site_occupancy
  Zn  Zn1       1.0  0.1869085196212907  0.15032126181334599  0.6032510803809572  1.0000
  Zn  Zn2       1.0  0.03672879939079373  0.4528807034608846  0.8496486393086684  1.0000
  Zn  Zn3       1.0  0.5840893219883158  0.3968155519575588  0.5472136417314672  1.0000
  Zn  Zn4       1.0  0.8130977470236828  0.8496800929137507  0.39674767633714236  1.0000
  Zn  Zn5       1.0  0.9632667792497499  0.5471145564302944  0.15034834839909184  1.0000
  Zn  Zn6       1.0  0.41590194986986967  0.6031812308368173  0.4527895112921527  1.0000
  P   P1        1.0  0.7779026266613441  0.3460368642133743  0.9469382344452697  1.0000
  P   P2        1.0  0.432200918190638  0.6010586495107119  0.6539753872168106  1.0000
  P   P3        1.0  0.8306815229473441  0.05316371739442619  0.3991580160362886  1.0000
  P   P4        1.0  0.222093211311737  0.6539614426688157  0.053062115253915396  1.0000
  P   P5        1.0  0.5677952039462468  0.3989427039326969  0.3460328762317602  1.0000
  P   P6        1.0  0.1693303362801047  0.9468361142829381  0.6008366382803133  1.0000
  H   H1        1.0  0.6755552189971255  0.18937087288027502  0.0018075887547369391  1.0000
  H   H2        1.0  0.48709937903099404  0.8126458325449877  0.8102714935803094  1.0000
  H   H3        1.0  0.6739203783498339  0.9979365769657632  0.18769703395398096  1.0000
  H   H4        1.0  0.3244375376892563  0.8106289578023578  0.9981899349053763  1.0000
  H   H5        1.0  0.512909928216814  0.18736161673063384  0.1897290094334778  1.0000
  H   H6        1.0  0.3260817573729398  0.0020617314555196  0.8122895710250191  1.0000
  H   H7        1.0  0.6728130651743953  0.0070834463678864  0.9212837704630203  1.0000
  H   H8        1.0  0.6663706226134564  0.9145020035437311  0.9926865991479801  1.0000
  H   H9        1.0  0.7509109262482241  0.07835724548652927  0.08567610444222139  1.0000
  H   H10       1.0  0.32719411340315224  0.9929171462866505  0.07871796882197649  1.0000
  H   H11       1.0  0.33363651882754636  0.0855062073983888  0.007314710644763478  1.0000
  H   H12       1.0  0.2490940155760911  0.9216441100624807  0.9143134365990024  1.0000
  H   H13       1.0  0.7759650764808442  0.9294264888447473  0.7673049067693256  1.0000
  H   H14       1.0  0.8463950121974974  0.8381370393259217  0.07071627507667698  1.0000
  H   H15       1.0  0.007304911204869319  0.23269806636795917  0.16187839266377324  1.0000
  H   H16       1.0  0.22405512720008855  0.0705771509318396  0.2327039171212704  1.0000
  H   H17       1.0  0.15360857729086771  0.1618742182486201  0.9292906612291532  1.0000
  H   H18       1.0  0.992696852534358  0.7673070977394969  0.8381158552380014  1.0000
  H   H19       1.0  0.8767287575278288  0.03366568017939639  0.6901630161952922  1.0000
  H   H20       1.0  0.8426626144956014  0.6567111303404828  0.9667685296618559  1.0000
  H   H21       1.0  0.1852125559988167  0.3102711161046585  0.3432690648025627  1.0000
  H   H22       1.0  0.1232836645959096  0.9663326270696114  0.30984009209868885  1.0000
  H   H23       1.0  0.1573385640427034  0.3432978416639472  0.03323845243604507  1.0000
  H   H24       1.0  0.8147773716387618  0.6897332854922169  0.6567276943076267  1.0000
  H   H25       1.0  0.8730356821693802  0.2137795444251011  0.7671862732430981  1.0000
  H   H26       1.0  0.6593052529530112  0.5535853985769491  0.7865292037924334  1.0000
  H   H27       1.0  0.10540612528701133  0.23333533669183742  0.4466282337824197  1.0000
  H   H28       1.0  0.12696818062017476  0.7862195246090807  0.23281382976934145  1.0000
  H   H29       1.0  0.34068614241879663  0.4464167166418207  0.21347769135975622  1.0000
  H   H30       1.0  0.8945852026856824  0.7666667796935086  0.5533663065981784  1.0000
  H   H31       1.0  0.4846932072694088  0.31831533269531315  0.9691275185449939  1.0000
  H   H32       1.0  0.16646358108082648  0.6506102822772634  0.6817708593109374  1.0000
  H   H33       1.0  0.515303100741498  0.031197673309705503  0.3491215586062424  1.0000
  H   H34       1.0  0.515295603976213  0.68167916538853  0.030866576754789266  1.0000
  H   H35       1.0  0.8335265230595539  0.3493842155372561  0.31822659940549153  1.0000
  H   H36       1.0  0.4847007691426981  0.9688013956016801  0.6508798449084664  1.0000
  H   H37       1.0  0.5636200301415214  0.4351087453045537  0.9730357718472432  1.0000
  H   H38       1.0  0.12885145687293686  0.5379445040944829  0.5648695196400269  1.0000
  H   H39       1.0  0.5899755945152804  0.026996744895292597  0.4618932955024847  1.0000
  H   H40       1.0  0.436369179802888  0.5648865142755212  0.02696195555797226  1.0000
  H   H41       1.0  0.8711510285287714  0.46204923210925125  0.43513063058969687  1.0000
  H   H42       1.0  0.41004177468553854  0.9730038482447511  0.5381073903168031  1.0000
  H   H43       1.0  0.5328122356226501  0.33023326304866873  0.7796700661470267  1.0000
  H   H44       1.0  0.2028407977935629  0.4489974291962539  0.6692131861708362  1.0000
  H   H45       1.0  0.7531580185470332  0.22036319117713526  0.5506231714508445  1.0000
  H   H46       1.0  0.46718205555443865  0.6697696146626271  0.22033093166547252  1.0000
  H   H47       1.0  0.7971480418306313  0.5509970683964056  0.33078611113803896  1.0000
  H   H48       1.0  0.24684928520748173  0.7796351162282136  0.4493762369435999  1.0000
  H   H49       1.0  0.4189681383189948  0.22178537969648457  0.7806598669104972  1.0000
  H   H50       1.0  0.19789836568192948  0.5582791021945467  0.7779776682521202  1.0000
  H   H51       1.0  0.6382572884431353  0.21960202928870126  0.4412942680011369  1.0000
  H   H52       1.0  0.5810358248162614  0.778211404518295  0.21933335345343605  1.0000
  H   H53       1.0  0.8020928919869732  0.4417176808454214  0.22202288376695387  1.0000
  H   H54       1.0  0.36174899948576905  0.7803993250699928  0.5587083902237778  1.0000
  C   C1        1.0  0.7745119883445923  0.21349302340106388  0.8895718889650936  1.0000
  C   C2        1.0  0.5614958123701612  0.6762789184999106  0.786522252159159  1.0000
  C   C3        1.0  0.8847862780382485  0.11057790281827098  0.32400025623566364  1.0000
  C   C4        1.0  0.225488159958168  0.7865037605165384  0.1104229456693631  1.0000
  C   C5        1.0  0.43850015975851864  0.3237247206224794  0.2134837904220106  1.0000
  C   C6        1.0  0.1152129335006791  0.8894196436016698  0.6759870440739348  1.0000
  C   C7        1.0  0.7178752708443523  0.1548765481811429  0.9328903580141841  1.0000
  C   C8        1.0  0.5636405588274016  0.7782437232702436  0.844965077679845  1.0000
  C   C9        1.0  0.7848342692428644  0.0670142443040405  0.22202747478071672  1.0000
  C   C10       1.0  0.28211825131371876  0.8451248060465203  0.06710857759654931  1.0000
  C   C11       1.0  0.4363539703983007  0.22176220180045902  0.15503538061726374  1.0000
  C   C12       1.0  0.2151658400393544  0.9329825402889468  0.7779602070912333  1.0000
  C   C13       1.0  0.7171066718110523  0.05293183563136239  0.8880898862184595  1.0000
  C   C14       1.0  0.6646417774994761  0.8354235146900848  0.946959757943887  1.0000
  C   C15       1.0  0.828472332979935  0.11172138979240029  0.16473847408058623  1.0000
  C   C16       1.0  0.2828948964474237  0.9470702803799045  0.11191270421234391  1.0000
  C   C17       1.0  0.33536027749818936  0.16458469585578678  0.053043704209557105  1.0000
  C   C18       1.0  0.17153503398372996  0.8882822510811293  0.8352536221731056  1.0000
  C   C19       1.0  0.7746377566826864  0.008809740135859598  0.8010239693072592  1.0000
  C   C20       1.0  0.7658545593965869  0.7924615627248599  0.9913004802253909  1.0000
  C   C21       1.0  0.9725879855188424  0.19898830170958348  0.20759252159228234  1.0000
  C   C22       1.0  0.22537580832759824  0.9911908525228055  0.19898028153595942  1.0000
  C   C23       1.0  0.23413959596157236  0.2075436004198323  0.008700897724246226  1.0000
  C   C24       1.0  0.02740766342549255  0.8010122915269732  0.792398454476995  1.0000
  C   C25       1.0  0.8306726105558866  0.06687539966268469  0.7576373616867615  1.0000
  C   C26       1.0  0.7636723721610111  0.6909766543582523  0.9334053051245592  1.0000
  C   C27       1.0  0.07204742768319512  0.24263373437777597  0.30908294499106864  1.0000
  C   C28       1.0  0.16933165093245617  0.9331244308677213  0.24236637343110354  1.0000
  C   C29       1.0  0.2363229260837015  0.30903079419609  0.06659721537431548  1.0000
  C   C30       1.0  0.9279475828503935  0.757370667676753  0.6909110115072893  1.0000
  C   C31       1.0  0.8294473295036081  0.16860912268337805  0.8012602262760353  1.0000
  C   C32       1.0  0.6610015776100011  0.6328467873939231  0.8315878164958264  1.0000
  C   C33       1.0  0.027669675358502788  0.19907301320889556  0.3673658316327391  1.0000
  C   C34       1.0  0.17055653683326003  0.8313899462894057  0.1987405269875424  1.0000
  C   C35       1.0  0.3389959148200887  0.3671598990027291  0.16841909923318338  1.0000
  C   C36       1.0  0.9723243139181715  0.8009268182481861  0.6326240011746904  1.0000
  C   C37       1.0  0.5515388932721664  0.3532435000746118  0.9312297616791412  1.0000
  C   C38       1.0  0.19863510596223927  0.5778727321289024  0.6467471086598309  1.0000
  C   C39       1.0  0.6199868055809147  0.0689469710651167  0.42198585491253493  1.0000
  C   C40       1.0  0.448457202149477  0.6467502361863993  0.06876722674122249  1.0000
  C   C41       1.0  0.8013612523392766  0.4221240510617149  0.35325389200310303  1.0000
  C   C42       1.0  0.3800241913764565  0.9310536218252138  0.5780149203530769  1.0000
  C   C43       1.0  0.44998823096228346  0.30533984158589084  0.8193398970707263  1.0000
  C   C44       1.0  0.14509670677495728  0.5136237911788512  0.6944197369534068  1.0000
  C   C45       1.0  0.6305673662398519  0.18083280208480804  0.48611331296220334  1.0000
  C   C46       1.0  0.5500126970014562  0.6946584656311501  0.18065895051890374  1.0000
  C   C47       1.0  0.854897856039976  0.4863745156656734  0.30558050058481706  1.0000
  C   C48       1.0  0.3694445320081314  0.8191670289171711  0.5138884941168912  1.0000
  C   C49       1.0  0.2790879969828665  0.33230083096554347  0.7991799838465994  1.0000
  C   C50       1.0  0.947176516552865  0.46668715072508593  0.6675610145214748  1.0000
  C   C51       1.0  0.47994561311435996  0.20102013340129332  0.53331020607056  1.0000
  C   C52       1.0  0.7209092697039097  0.6676951902139264  0.20082334913210081  1.0000
  C   C53       1.0  0.052812054980798044  0.5333119176729468  0.3324396933128142  1.0000
  C   C54       1.0  0.5200697544771558  0.7989789354806618  0.4666961083996384  1.0000
  O   O1        1.0  0.8753337162687344  0.3978347749316314  0.060983831636804146  1.0000
  O   O2        1.0  0.4772743506405418  0.6633452024197621  0.6021475289060235  1.0000
  O   O3        1.0  0.8139020359458797  0.939123260766486  0.3368962766674172  1.0000
  O   O4        1.0  0.1246549981784996  0.6021620079102163  0.9390177965626166  1.0000
  O   O5        1.0  0.5227210254245946  0.33664700949803  0.3978565008284889  1.0000
  O   O6        1.0  0.186094279787774  0.06087352316092161  0.6630969209818716  1.0000
  O   O7        1.0  0.8540532504945445  0.3896949923506979  0.8863924338438312  1.0000
  O   O8        1.0  0.46500646176663457  0.49695304554263225  0.610270073954922  1.0000
  O   O9        1.0  0.9672920763253288  0.11357935244617318  0.5034010193513012  1.0000
  O   O10       1.0  0.14594908678293453  0.6103086471442013  0.11361221878873821  1.0000
  O   O11       1.0  0.5349911103678693  0.503046021829661  0.389745074279979  1.0000
  O   O12       1.0  0.03272206679123726  0.8864174324383074  0.49658919679352215  1.0000
  O   O13       1.0  0.2535194227890614  0.40932656118736327  0.8704417344340102  1.0000
  O   O14       1.0  0.8445470128926117  0.46086717321062304  0.5904500851573714  1.0000
  O   O15       1.0  0.3829998451123018  0.12971445111546126  0.5390198993892383  1.0000
  O   O16       1.0  0.7464763271436182  0.5906664126564395  0.12956137564797388  1.0000
  O   O17       1.0  0.1554401583059359  0.5391341803989319  0.4095528414065015  1.0000
  O   O18       1.0  0.6170264082703766  0.8702808084516532  0.4609927852043612  1.0000
  O   O19       1.0  0.16731129125649605  0.27955241210005255  0.710692670163013  1.0000
  O   O20       1.0  0.8880126147723287  0.4310745084182273  0.7203470741123753  1.0000
  O   O21       1.0  0.45687578143472507  0.2895353395277311  0.5691890263849118  1.0000
  O   O22       1.0  0.8326861992896114  0.7204466566844163  0.2893075222957507  1.0000
  O   O23       1.0  0.11198067643177019  0.5689237983272407  0.27965370151602553  1.0000
  O   O24       1.0  0.5431170230301773  0.7104568726831245  0.4308108775208551  1.0000
