data_image0
_chemical_formula_structural       Hf6H16C40N12O32
_chemical_formula_sum              "Hf6 H16 C40 N12 O32"
_cell_length_a       16.445678329021025
_cell_length_b       17.11710639240129
_cell_length_c       17.140958726392114
_cell_angle_alpha    71.30564833543048
_cell_angle_beta     89.9752317669192
_cell_angle_gamma    89.80679082986605

_space_group_name_H-M_alt    "P 1"
_space_group_IT_number       1

loop_
  _space_group_symop_operation_xyz
  'x, y, z'

loop_
  _atom_site_type_symbol
  _atom_site_label
  _atom_site_symmetry_multiplicity
  _atom_site_fract_x
  _atom_site_fract_y
  _atom_site_fract_z
  _atom_site_occupancy
  Hf  Hf1       1.0  0.10261052999241123  0.9001374864350422  0.1057838980539998  1.0000
  Hf  Hf2       1.0  0.8881384079442257  0.9084138603406585  0.09842267759124475  1.0000
  Hf  Hf3       1.0  0.11212171317961862  0.0767623080986368  0.929977728759809  1.0000
  Hf  Hf4       1.0  0.898174110482728  0.08409239863508589  0.921427170190185  1.0000
  Hf  Hf5       1.0  0.0006227536416006012  0.9026936540964741  0.9255051479542473  1.0000
  Hf  Hf6       1.0  0.9998471351255847  0.08135737850630419  0.10293723557169442  1.0000
  H   H1        1.0  0.999106325174047  0.920647744449546  0.22415201510201405  1.0000
  H   H2        1.0  0.8289910356570971  0.9279033088828966  0.940549910168926  1.0000
  H   H3        1.0  0.0022817923450376013  0.20352550760055982  0.9405442827831507  1.0000
  H   H4        1.0  0.17315204669491643  0.9191084343016342  0.9490324501068345  1.0000
  H   H5        1.0  0.7250074186950928  0.893157214350616  0.07572025856420346  1.0000
  H   H6        1.0  0.7576303074490413  0.008525269617798903  0.0010509440107995002  1.0000
  H   H7        1.0  0.9021317454531401  0.19308586611125383  0.7702207925419203  1.0000
  H   H8        1.0  0.017257415600575105  0.1908868487935109  0.8133794707022872  1.0000
  H   H9        1.0  0.27033484115593615  0.09432272904852822  0.9540058468474513  1.0000
  H   H10       1.0  0.24280366529635705  0.9787590698010077  0.02908576548133374  1.0000
  H   H11       1.0  0.09630794121886051  0.7486029760235909  0.21354187957395243  1.0000
  H   H12       1.0  0.9836393226460204  0.7918867097073203  0.21276457242538527  1.0000
  H   H13       1.0  0.10269293010735231  0.17443329262437143  0.770387165189419  1.0000
  H   H14       1.0  0.2603464799046407  0.9370135177347406  0.12867855162176053  1.0000
  H   H15       1.0  0.8949495670306863  0.7950820043486003  0.2584385973020674  1.0000
  H   H16       1.0  0.7405492753982941  0.10809740846264049  0.9580214292964725  1.0000
  C   C1        1.0  0.1274570159436763  0.7598098835876498  0.018357513773913967  1.0000
  C   C2        1.0  0.8612548482994173  0.9988139440319014  0.23636797208394006  1.0000
  C   C3        1.0  0.8662859717343566  0.767188266629972  0.010153820873377182  1.0000
  C   C4        1.0  0.13730964601406007  0.00022904285224709995  0.2370576076888327  1.0000
  C   C5        1.0  0.141454791111002  0.211537136287383  0.023344338080264038  1.0000
  C   C6        1.0  0.874005170735302  0.9947021061242792  0.7822621712545228  1.0000
  C   C7        1.0  0.8632269761955911  0.21593827552806033  0.021596811492123905  1.0000
  C   C8        1.0  0.13197775669541303  0.9880357292354488  0.7866493533378289  1.0000
  C   C9        1.0  0.2595346976155923  0.9973114033860498  0.44551037210244004  1.0000
  C   C10       1.0  0.3770661651814465  0.9923129075995117  0.5154120037651496  1.0000
  C   C11       1.0  0.2564513370601418  0.9897124716458232  0.5796220269024205  1.0000
  C   C12       1.0  0.7417295207172573  0.9967883770684265  0.44598529787072755  1.0000
  C   C13       1.0  0.7452227757455746  0.9929505544592273  0.5789883437155795  1.0000
  C   C14       1.0  0.6244448921491356  0.9931000165736775  0.5159541970329329  1.0000
  C   C15       1.0  0.25975533421821956  0.42064176234966055  0.024456275245810823  1.0000
  C   C16       1.0  0.25490889170693265  0.5536925758702081  0.02096020310325743  1.0000
  C   C17       1.0  0.3763364135591374  0.4906707676972815  0.023211617714920897  1.0000
  C   C18       1.0  0.74160413649674  0.4235007753859178  0.024547443640933943  1.0000
  C   C19       1.0  0.7437168922989273  0.5576644838914575  0.0174578261378215  1.0000
  C   C20       1.0  0.6236011087062253  0.4922463137199244  0.022718242325382183  1.0000
  C   C21       1.0  0.4630292784417024  0.4927126738919299  0.02347182001649629  1.0000
  C   C22       1.0  0.5368692495366859  0.4931220061697984  0.023430597487632116  1.0000
  C   C23       1.0  0.5376811787169163  0.9922237197836731  0.5176265973611226  1.0000
  C   C24       1.0  0.46382841475218584  0.9919732439105715  0.5170930179947887  1.0000
  C   C25       1.0  0.8301390204610685  0.9935587878159708  0.709551971850253  1.0000
  C   C26       1.0  0.7907957327828613  0.9926604570713875  0.6498373700543496  1.0000
  C   C27       1.0  0.7831734758846808  0.9989337054958939  0.3722678421007757  1.0000
  C   C28       1.0  0.8184224052455563  2.939387012899999e-05  0.3096075865237324  1.0000
  C   C29       1.0  0.17402667532741137  0.9873544741045989  0.712709243534846  1.0000
  C   C30       1.0  0.21157820971437502  0.987546139139006  0.6515397610564336  1.0000
  C   C31       1.0  0.21768598749001467  0.0007502129297022997  0.37159566628600527  1.0000
  C   C32       1.0  0.18163081332009773  0.0022245529181503998  0.3092493509859224  1.0000
  C   C33       1.0  0.8190078932559431  0.2879130047867378  0.024996090349688402  1.0000
  C   C34       1.0  0.783623471551053  0.35006608167856956  0.025904269892130644  1.0000
  C   C35       1.0  0.8247701541867727  0.6924590931636843  0.011343827573476498  1.0000
  C   C36       1.0  0.7879416878929748  0.6303194863978944  0.013655230442687186  1.0000
  C   C37       1.0  0.21917518251796514  0.34688268730118915  0.025373856544241836  1.0000
  C   C38       1.0  0.1847564596531441  0.284213023705469  0.025281495112267332  1.0000
  C   C39       1.0  0.17035002305289743  0.6857936449747796  0.018928271591995793  1.0000
  C   C40       1.0  0.20903462987477892  0.6249864246598521  0.0195078328276352  1.0000
  N   N1        1.0  0.3414674572414071  0.9969818027264733  0.44319481350555645  1.0000
  N   N2        1.0  0.33822296399370805  0.9882355701809827  0.5858500501216214  1.0000
  N   N3        1.0  0.21339124455516872  0.9940324277304948  0.511492981121343  1.0000
  N   N4        1.0  0.7880651864430989  0.9955065336094505  0.511199919341678  1.0000
  N   N5        1.0  0.6634702012551871  0.9914219102027103  0.5856214955135428  1.0000
  N   N6        1.0  0.6598257739139302  0.995774225556104  0.4441909648894653  1.0000
  N   N7        1.0  0.21273859960532357  0.48584590577448944  0.022577433636399705  1.0000
  N   N8        1.0  0.33660877839979264  0.5603087705555009  0.021079800575073266  1.0000
  N   N9        1.0  0.3416915680227888  0.41885166661499074  0.024983276871410054  1.0000
  N   N10       1.0  0.7872614433260169  0.4899357808024191  0.020448420567674878  1.0000
  N   N11       1.0  0.6618762492320657  0.5630760935789425  0.018091887014108504  1.0000
  N   N12       1.0  0.6597122652309154  0.42035351587952613  0.026331649395473278  1.0000
  O   O1        1.0  0.143389500877646  0.7868534028057113  0.07781348098136218  1.0000
  O   O2        1.0  0.07931538694106881  0.7911530263440482  0.9583106261245861  1.0000
  O   O3        1.0  0.8443959757989108  0.9390965914512818  0.2100137674121783  1.0000
  O   O4        1.0  0.9123139230595784  0.056409196765869786  0.20661581693629222  1.0000
  O   O5        1.0  0.8460399477945092  0.7972259111971952  0.0663034277201219  1.0000
  O   O6        1.0  0.9178125625010837  0.7960278323631939  0.9525804807744153  1.0000
  O   O7        1.0  0.15774867868617554  0.9436157541065028  0.20744735789239852  1.0000
  O   O8        1.0  0.081496588801798  0.054102428339525895  0.2112562257972215  1.0000
  O   O9        1.0  0.07081492056131822  0.8007006131521947  0.210910796955787  1.0000
  O   O10       1.0  0.23579410607537454  0.9253176674027157  0.08191129349874164  1.0000
  O   O11       1.0  0.9186038801852875  0.7965770639868095  0.20599577952501855  1.0000
  O   O12       1.0  0.764479112885951  0.9358563895943562  0.07323919997674007  1.0000
  O   O13       1.0  0.9967551985154802  0.8808227630240069  0.05002815132327498  1.0000
  O   O14       1.0  0.9984807733703178  0.9425971165057871  0.16447170986278795  1.0000
  O   O15       1.0  0.16153388757684442  0.1822139391097508  0.9664678191063987  1.0000
  O   O16       1.0  0.08683585702492282  0.18497483818082117  0.0779670851135279  1.0000
  O   O17       1.0  0.8580818595587374  0.05496744104166849  0.8082604884037892  1.0000
  O   O18       1.0  0.9229552285513026  0.9350749042519481  0.8134409605958197  1.0000
  O   O19       1.0  0.8431347393027339  0.18689148735155914  0.9647073982502833  1.0000
  O   O20       1.0  0.9190390666508607  0.1896382349397285  0.07523776152630293  1.0000
  O   O21       1.0  0.14766728681081534  0.0483835455780337  0.8123220283641146  1.0000
  O   O22       1.0  0.0843883732845043  0.9278641203762208  0.8192513249110362  1.0000
  O   O23       1.0  0.0818813061274639  0.1851609816389796  0.8192354547143453  1.0000
  O   O24       1.0  0.2359048798930061  0.0486629150110147  0.9529254878759731  1.0000
  O   O25       1.0  0.9287705183062586  0.1888359797671555  0.822008027921818  1.0000
  O   O26       1.0  0.7650345136848177  0.06083882947678629  0.9468676202895238  1.0000
  O   O27       1.0  0.0033554281400683013  0.14367400465624058  0.9623910419992469  1.0000
  O   O28       1.0  0.0037371719458150015  0.02690965519768439  0.9040262422758901  1.0000
  O   O29       1.0  0.08827960767817443  0.027841030538041895  0.0534799994285535  1.0000
  O   O30       1.0  0.8786605556194047  0.9468616797957237  0.9590846255114513  1.0000
  O   O31       1.0  0.12365892943754633  0.9385829936830415  0.9678159767049835  1.0000
  O   O32       1.0  0.9106156208647892  0.0321167163216245  0.04980106357490399  1.0000
