data_image0
_chemical_formula_structural       Zn8H24C48O26
_chemical_formula_sum              "Zn8 H24 C48 O26"
_cell_length_a       18.42016625322469
_cell_length_b       18.420164594437427
_cell_length_c       18.420169903474136
_cell_angle_alpha    60.0000337357177
_cell_angle_beta     60.00005244654214
_cell_angle_gamma    60.0000545511564

_space_group_name_H-M_alt    "P 1"
_space_group_IT_number       1

loop_
  _space_group_symop_operation_xyz
  'x, y, z'

loop_
  _atom_site_type_symbol
  _atom_site_label
  _atom_site_symmetry_multiplicity
  _atom_site_fract_x
  _atom_site_fract_y
  _atom_site_fract_z
  _atom_site_occupancy
  Zn  Zn1       1.0  0.7064846975292269  0.7064835297187883  0.8805494367890957  1.0000
  Zn  Zn2       1.0  0.706484014712473  0.8805496011263332  0.7064837592466233  1.0000
  Zn  Zn3       1.0  0.880550150797888  0.7064834286814659  0.7064837981221287  1.0000
  Zn  Zn4       1.0  0.7064843468042813  0.7064821346181207  0.7064824176785649  1.0000
  Zn  Zn5       1.0  0.2935177816870578  0.29351563465527164  0.11944948063262469  1.0000
  Zn  Zn6       1.0  0.2935170731225156  0.1194492576317999  0.2935158230677715  1.0000
  Zn  Zn7       1.0  0.2935186752947915  0.29351648687303833  0.2935164997432764  1.0000
  Zn  Zn8       1.0  0.11945341418396552  0.29351464992679144  0.29351511929983326  1.0000
  H   H1        1.0  0.5483079951264502  0.8351554538461272  0.06822822163772461  1.0000
  H   H2        1.0  0.5483083870972508  0.06822826080535566  0.8351551008840444  1.0000
  H   H3        1.0  0.06822939488201747  0.5483071318020266  0.5483068121168913  1.0000
  H   H4        1.0  0.8351564365891309  0.5483069090881046  0.5483070353108346  1.0000
  H   H5        1.0  0.548308587813651  0.5483084880537634  0.835155133378869  1.0000
  H   H6        1.0  0.5483080941382422  0.548308176740221  0.0682282022221798  1.0000
  H   H7        1.0  0.06822861534147502  0.8351558999104683  0.5483074964254442  1.0000
  H   H8        1.0  0.8351556393288603  0.06822934259290762  0.5483076677091105  1.0000
  H   H9        1.0  0.5483081124162157  0.06822805433149173  0.5483082491226978  1.0000
  H   H10       1.0  0.548307900686993  0.8351552452519115  0.5483083010329609  1.0000
  H   H11       1.0  0.06822886702454431  0.5483076215023887  0.835156323450434  1.0000
  H   H12       1.0  0.8351564930037085  0.548307079656965  0.0682289505948859  1.0000
  H   H13       1.0  0.45169277145659964  0.16484416942594743  0.9317706957835269  1.0000
  H   H14       1.0  0.45169206605196177  0.9317710490328324  0.1648438165370933  1.0000
  H   H15       1.0  0.16484478107371814  0.45169207949822276  0.45169121721740874  1.0000
  H   H16       1.0  0.9317721440327631  0.4516910922703586  0.4516921053044882  1.0000
  H   H17       1.0  0.931771861533626  0.45169196374433096  0.16484458865010507  1.0000
  H   H18       1.0  0.16484500006809824  0.45169218433790065  0.9317712966127517  1.0000
  H   H19       1.0  0.4516922010035103  0.16484371312702004  0.4516926110673579  1.0000
  H   H20       1.0  0.45169230270812516  0.9317712174813336  0.4516926629777344  1.0000
  H   H21       1.0  0.16484413329160227  0.9317714582478089  0.4516919146050284  1.0000
  H   H22       1.0  0.931771700161768  0.16484435804735412  0.4516920858888156  1.0000
  H   H23       1.0  0.4516925761881156  0.4516926184028804  0.16484378404259556  1.0000
  H   H24       1.0  0.4516930698635234  0.4516929297164224  0.931770715199292  1.0000
  C   C1        1.0  0.6110105691355093  0.8889893090883946  0.888988909485434  1.0000
  C   C2        1.0  0.8889915249496172  0.6110105271474708  0.6110097990932957  1.0000
  C   C3        1.0  0.6110113604777754  0.6110112592182022  0.8889902204566055  1.0000
  C   C4        1.0  0.8889895180139149  0.8889895329552572  0.6110098179080339  1.0000
  C   C5        1.0  0.6110106659108255  0.8889905577278369  0.611011066795868  1.0000
  C   C6        1.0  0.8889899909500161  0.6110100128145748  0.888989636461794  1.0000
  C   C7        1.0  0.38899041907838955  0.11101053581472807  0.1110093430427952  1.0000
  C   C8        1.0  0.11101054902984948  0.38898823198984894  0.388988453435175  1.0000
  C   C9        1.0  0.11101226663542023  0.3889889299284377  0.1110099458529419  1.0000
  C   C10       1.0  0.38898997084435655  0.11100893571603619  0.388989180411535  1.0000
  C   C11       1.0  0.11101210488575221  0.11100986086781013  0.3889890995134522  1.0000
  C   C12       1.0  0.38899034640677144  0.3889893043555475  0.1110086969649799  1.0000
  C   C13       1.0  0.553639387864017  0.9463596601196328  0.9463598627679277  1.0000
  C   C14       1.0  0.9463600532863695  0.5536396947125795  0.5536388458099991  1.0000
  C   C15       1.0  0.5536406821398286  0.5536405568985857  0.9463591712935723  1.0000
  C   C16       1.0  0.9463603261797219  0.9463603651030748  0.5536395372849157  1.0000
  C   C17       1.0  0.5536399236208498  0.946359203492591  0.5536407527800904  1.0000
  C   C18       1.0  0.946360657073214  0.5536391193513098  0.9463606153705013  1.0000
  C   C19       1.0  0.4463607518513585  0.05363933628466105  0.0536390546530967  1.0000
  C   C20       1.0  0.05364085094264952  0.44635898043986094  0.44635940671813046  1.0000
  C   C21       1.0  0.053640614367743845  0.44635992301250843  0.05364029673015841  1.0000
  C   C22       1.0  0.44636017806965356  0.0536397548863406  0.4463601593202283  1.0000
  C   C23       1.0  0.05363998932352129  0.053639892854739926  0.4463600450293512  1.0000
  C   C24       1.0  0.4463607952957674  0.4463608629919449  0.053639746128006  1.0000
  C   C25       1.0  0.5266878921638567  0.9073965484188734  0.0392262480716568  1.0000
  C   C26       1.0  0.526688714276716  0.03922644536039165  0.9073957280311902  1.0000
  C   C27       1.0  0.03922769039388649  0.5266875487776944  0.5266871381477286  1.0000
  C   C28       1.0  0.9073984519250684  0.5266877480496035  0.5266873908060177  1.0000
  C   C29       1.0  0.5266893488028332  0.5266892279684683  0.90739709081204  1.0000
  C   C30       1.0  0.5266887582450297  0.5266888438465784  0.0392262223032773  1.0000
  C   C31       1.0  0.039226227768843235  0.9073979141031999  0.5266878288092088  1.0000
  C   C32       1.0  0.9073976339100087  0.03922695348363467  0.5266880227045476  1.0000
  C   C33       1.0  0.5266885280420156  0.0392263496512227  0.5266885768022362  1.0000
  C   C34       1.0  0.5266887475667518  0.907396202145854  0.5266893004584433  1.0000
  C   C35       1.0  0.03922707409008575  0.5266879277133469  0.9073969489488718  1.0000
  C   C36       1.0  0.9073973368664455  0.5266878346662126  0.0392269979915341  1.0000
  C   C37       1.0  0.47331170466873834  0.09260299086832216  0.9607726693492465  1.0000
  C   C38       1.0  0.47331196050334534  0.9607730861088439  0.0926025244969253  1.0000
  C   C39       1.0  0.09260384368524663  0.473311232718764  0.4733101968294307  1.0000
  C   C40       1.0  0.9607746130345305  0.47331035404284477  0.4733111143807562  1.0000
  C   C41       1.0  0.9607744189817214  0.47331133628151867  0.09260329825876569  1.0000
  C   C42       1.0  0.09260415620536132  0.4733114293286463  0.9607732492161033  1.0000
  C   C43       1.0  0.47331198880952047  0.09260230515302939  0.47331227653512536  1.0000
  C   C44       1.0  0.4733118870823249  0.9607729221616025  0.4733123352981963  1.0000
  C   C45       1.0  0.09260330846090906  0.9607739313419613  0.4733115596099395  1.0000
  C   C46       1.0  0.9607740799162984  0.09260342180245845  0.4733110886120214  1.0000
  C   C47       1.0  0.4733121286327633  0.4733121919220694  0.0926018266095383  1.0000
  C   C48       1.0  0.4733127191905666  0.4733125760439593  0.9607726951183011  1.0000
  O   O1        1.0  0.7500006227933085  0.7499994938685218  0.7499996867357623  1.0000
  O   O2        1.0  0.25000271273960106  0.24999944105653069  0.24999923068619267  1.0000
  O   O3        1.0  0.6331670198822436  0.8049806620148203  0.9286843581512727  1.0000
  O   O4        1.0  0.6331670818349409  0.9286842204296731  0.8049810051203251  1.0000
  O   O5        1.0  0.9286840756365748  0.6331668765787414  0.6331667098355354  1.0000
  O   O6        1.0  0.8049805751191528  0.6331668208129884  0.6331666738348787  1.0000
  O   O7        1.0  0.633168609543823  0.6331674464882864  0.8049796553321826  1.0000
  O   O8        1.0  0.6331678406150378  0.6331677339104617  0.9286836816290602  1.0000
  O   O9        1.0  0.9286844168361341  0.8049809666158154  0.6331667214650593  1.0000
  O   O10       1.0  0.804980973856253  0.9286844354352367  0.6331666938374313  1.0000
  O   O11       1.0  0.6331667874194483  0.9286839668682918  0.6331679736216033  1.0000
  O   O12       1.0  0.6331688935949418  0.804979348699362  0.6331673003560283  1.0000
  O   O13       1.0  0.9286847831069874  0.6331664574290203  0.8049810711205296  1.0000
  O   O14       1.0  0.8049808270946106  0.6331670025193292  0.9286850614168642  1.0000
  O   O15       1.0  0.3668342895835934  0.19501841837435308  0.07131455927009969  1.0000
  O   O16       1.0  0.3668340060000403  0.0713146383284596  0.1950185771940696  1.0000
  O   O17       1.0  0.19502118542648372  0.3668316248904517  0.3668315786934854  1.0000
  O   O18       1.0  0.07131737147522449  0.36683125569080494  0.366831542692715  1.0000
  O   O19       1.0  0.07131671778292059  0.3668317286180098  0.1950198409801374  1.0000
  O   O20       1.0  0.19501958021162122  0.3668333472413324  0.07131518579053159  1.0000
  O   O21       1.0  0.36683368524243326  0.1950188295297082  0.366832946851858  1.0000
  O   O22       1.0  0.3668336277048924  0.07131530494453392  0.3668329384788293  1.0000
  O   O23       1.0  0.19502011397873534  0.07131442332289586  0.3668328884769636  1.0000
  O   O24       1.0  0.07131697661458261  0.19501928352404013  0.3668321959564125  1.0000
  O   O25       1.0  0.36683364022351145  0.3668325742025616  0.19501926208952364  1.0000
  O   O26       1.0  0.36683386626951625  0.36683282966328085  0.07131523579253239  1.0000
