data_image0
_chemical_formula_structural       ZnH16C10O10
_chemical_formula_sum              "Zn1 H16 C10 O10"
_cell_length_a       4.813300263456024
_cell_length_b       5.645270867372344
_cell_length_c       12.019492200202427
_cell_angle_alpha    92.80466133120837
_cell_angle_beta     94.59938598106676
_cell_angle_gamma    96.01213913396286

_space_group_name_H-M_alt    "P 1"
_space_group_IT_number       1

loop_
  _space_group_symop_operation_xyz
  'x, y, z'

loop_
  _atom_site_type_symbol
  _atom_site_label
  _atom_site_symmetry_multiplicity
  _atom_site_fract_x
  _atom_site_fract_y
  _atom_site_fract_z
  _atom_site_occupancy
  Zn  Zn1       1.0  0.4999950724784343  0.4999930762722187  0.5000001271202167  1.0000
  H   H1        1.0  0.28334506642656987  0.1380939118013984  0.5769141713834715  1.0000
  H   H2        1.0  0.716638813272354  0.8618922830504588  0.4230875357663849  1.0000
  H   H3        1.0  0.047325862480214205  0.21142673706175688  0.48175473205750313  1.0000
  H   H4        1.0  0.9526603667306761  0.7885612164630444  0.5182445964002725  1.0000
  H   H5        1.0  0.0994225421702239  0.5765831274589814  0.6495814729812396  1.0000
  H   H6        1.0  0.900559529736995  0.4234048429083829  0.3504168831832005  1.0000
  H   H7        1.0  0.33425400439744385  0.8065333490556694  0.6543329485832602  1.0000
  H   H8        1.0  0.6657361489315433  0.1934527986191696  0.34566647384304633  1.0000
  H   H9        1.0  0.009174126924875728  0.930804379117646  0.19511654153408395  1.0000
  H   H10       1.0  0.9908345713362081  0.0691959840285321  0.8048888057791646  1.0000
  H   H11       1.0  0.2328198803355761  0.7739149515500543  0.11195645002172944  1.0000
  H   H12       1.0  0.7671963160883523  0.2260942753689292  0.8880451814931053  1.0000
  H   H13       1.0  0.5303826104306922  0.2075286515263102  0.14739349475846103  1.0000
  H   H14       1.0  0.46961284879569837  0.7924967520497361  0.8526077827167953  1.0000
  H   H15       1.0  0.8427078065399058  0.8623363020402904  0.0074384104396259115  1.0000
  H   H16       1.0  0.15728804462044368  0.13767660171507148  0.9925626117005211  1.0000
  C   C1        1.0  0.3157539871348547  0.7536581715875527  0.2889425611592671  1.0000
  C   C2        1.0  0.6842615181044422  0.24634568343967092  0.7110556035670685  1.0000
  C   C3        1.0  0.11263138981228593  0.7660498568152008  0.18617778045700112  1.0000
  C   C4        1.0  0.887384081938521  0.2339540176903796  0.8138237115258136  1.0000
  C   C5        1.0  0.7122278036389176  0.5385352835203321  0.08818318352454922  1.0000
  C   C6        1.0  0.28776921436124075  0.46147044361020306  0.911812731927782  1.0000
  C   C7        1.0  0.5169506738775099  0.3354255645056341  0.0825229953390121  1.0000
  C   C8        1.0  0.48305729074839826  0.6645997690643526  0.9174778717597505  1.0000
  C   C9        1.0  0.6939642039257166  0.7030426527467314  0.0049739434784826075  1.0000
  C   C10       1.0  0.3060369713781199  0.2969630575412411  0.9950229442671772  1.0000
  O   O1        1.0  0.2499953883874824  0.5970213094767658  0.3577752191623845  1.0000
  O   O2        1.0  0.7500051540146303  0.4029647985264687  0.6422270499043066  1.0000
  O   O3        1.0  0.5358064772731979  0.9002827088429226  0.297921318316341  1.0000
  O   O4        1.0  0.4642067618534043  0.09970514250959892  0.7020855777692461  1.0000
  O   O5        1.0  0.9110168422493814  0.5610876069189885  0.17753896123928573  1.0000
  O   O6        1.0  0.0889949636852876  0.4389198478351729  0.8224608196574295  1.0000
  O   O7        1.0  0.2460560395084315  0.18415147006634675  0.4981403369116039  1.0000
  O   O8        1.0  0.7539320142384156  0.8158346982037584  0.5018606789033414  1.0000
  O   O9        1.0  0.2292034934328768  0.6753533504488017  0.6056254778145276  1.0000
  O   O10       1.0  0.7707897173369532  0.3246399180515738  0.39437336907996473  1.0000
