data_image0
_chemical_formula_structural       Fe2H16C20S4N12
_chemical_formula_sum              "Fe2 H16 C20 S4 N12"
_cell_length_a       8.238222770596119
_cell_length_b       9.400249865310524
_cell_length_c       9.399252833223667
_cell_angle_alpha    122.31661115335017
_cell_angle_beta     90.8148074672701
_cell_angle_gamma    89.0670003558536

_space_group_name_H-M_alt    "P 1"
_space_group_IT_number       1

loop_
  _space_group_symop_operation_xyz
  'x, y, z'

loop_
  _atom_site_type_symbol
  _atom_site_label
  _atom_site_symmetry_multiplicity
  _atom_site_fract_x
  _atom_site_fract_y
  _atom_site_fract_z
  _atom_site_occupancy
  Fe  Fe1       1.0  0.9903549310266723  0.4936791204852255  0.5047422341277255  1.0000
  Fe  Fe2       1.0  0.4894246474614832  0.005012606098915705  0.9936617793283631  1.0000
  H   H1        1.0  0.7526358848346033  0.2963128816201602  0.21303292152723693  1.0000
  H   H2        1.0  0.25550588855895734  0.20256000054232712  0.2864296706099482  1.0000
  H   H3        1.0  0.25661498107957204  0.7129096248184155  0.796277194252788  1.0000
  H   H4        1.0  0.7519483230693211  0.7863016333562028  0.7024695815140802  1.0000
  H   H5        1.0  0.7602332204304288  0.995430451004772  0.5029807470213971  1.0000
  H   H6        1.0  0.24460420902690322  0.5075004285411707  0.0006455218781126749  1.0000
  H   H7        1.0  0.24508209575312628  0.0003412892225967074  0.49291952728632554  1.0000
  H   H8        1.0  0.759826990439265  0.49838282171440057  0.0053605273954033085  1.0000
  H   H9        1.0  0.9665092441699269  0.21479830564969396  0.5674210470333776  1.0000
  H   H10       1.0  0.4555178032356081  0.2849068909730477  0.9328917191375581  1.0000
  H   H11       1.0  0.5429868486793339  0.942303545611388  0.2869530208399312  1.0000
  H   H12       1.0  0.032079939639352496  0.5587610581924379  0.2146521899978779  1.0000
  H   H13       1.0  0.032695440660972984  0.7866904683919673  0.4418222540947668  1.0000
  H   H14       1.0  0.5425278196196428  0.714667802268778  0.05843247342407664  1.0000
  H   H15       1.0  0.4556891655835215  0.06720713945218648  0.7149259610828765  1.0000
  H   H16       1.0  0.9663325682008903  0.4326802779513415  0.7850325910565419  1.0000
  C   C1        1.0  0.7525171484674259  0.23156776737540946  0.2800082730386677  1.0000
  C   C2        1.0  0.25078402287793  0.26800045179579257  0.2201574987846726  1.0000
  C   C3        1.0  0.25161601018172053  0.7796642468189461  0.7313137085789095  1.0000
  C   C4        1.0  0.7519408382838577  0.7198341749505843  0.7677258404013971  1.0000
  C   C5        1.0  0.7568738359401547  0.0635827738809525  0.43893366778182513  1.0000
  C   C6        1.0  0.24524976070274818  0.43736493935181636  0.0626512067307345  1.0000
  C   C7        1.0  0.24572500836602976  0.9380659330948191  0.5628048340876718  1.0000
  C   C8        1.0  0.7565163795449903  0.5619884843515948  0.9367689829496798  1.0000
  C   C9        1.0  0.869372809205707  0.1870840626428034  0.4773390146521308  1.0000
  C   C10       1.0  0.3601924671086819  0.3128610457338681  0.023052466802120412  1.0000
  C   C11       1.0  0.639702285779606  0.031962761746378014  0.318618650267247  1.0000
  C   C12       1.0  0.1306986243863903  0.4687629599073873  0.1828041118504018  1.0000
  C   C13       1.0  0.13131993575019854  0.8180928388319515  0.531462658967371  1.0000
  C   C14       1.0  0.6392661915858964  0.6824936567514115  0.9684113987110623  1.0000
  C   C15       1.0  0.3605639777289084  0.9771345994160113  0.6869695665485481  1.0000
  C   C16       1.0  0.8690504537696241  0.522884684347197  0.8127755151207554  1.0000
  C   C17       1.0  0.7122755626353906  0.6188886485013823  0.3802360514646495  1.0000
  C   C18       1.0  0.21813258386354306  0.8820874411246109  0.11716794888943849  1.0000
  C   C19       1.0  0.7776309793120716  0.11889790166743101  0.8809912532996622  1.0000
  C   C20       1.0  0.2843146188171629  0.37941356674193816  0.6206660372209428  1.0000
  S   S1        1.0  0.5415149996827606  0.6680529842267687  0.33126271631279286  1.0000
  S   S2        1.0  0.04859218991439459  0.8349166386716291  0.16418720447823898  1.0000
  S   S3        1.0  0.9528267925862008  0.16165037551653683  0.839540367633113  1.0000
  S   S4        1.0  0.4608174754827558  0.3361908093703648  0.6652081024363954  1.0000
  N   N1        1.0  0.8616095109361764  0.2808784109538891  0.4068359672312454  1.0000
  N   N2        1.0  0.35707274283051044  0.21854195529009246  0.0929043449737392  1.0000
  N   N3        1.0  0.6444183430533525  0.1093061550179115  0.23245876249520592  1.0000
  N   N4        1.0  0.14024152709772858  0.3910627165218372  0.2687687066460285  1.0000
  N   N5        1.0  0.14112449921879028  0.73184132612338  0.6087872543733824  1.0000
  N   N6        1.0  0.6438228125797208  0.7682321960494461  0.8905786147261169  1.0000
  N   N7        1.0  0.3576612154225243  0.9068829698739479  0.7809686925619419  1.0000
  N   N8        1.0  0.861141500371076  0.5928680345922643  0.7185463469386665  1.0000
  N   N9        1.0  0.8369784302464749  0.5810880043368982  0.418002937211064  1.0000
  N   N10       1.0  0.3418645907770212  0.9185957085873255  0.08086084773656665  1.0000
  N   N11       1.0  0.6501738244462201  0.0855984390475371  0.9135303770099699  1.0000
  N   N12       1.0  0.15582992345282068  0.4132031079025609  0.5860515410951807  1.0000
