data_image0
_chemical_formula_structural       Cu8H16C24N4Cl4O8
_chemical_formula_sum              "Cu8 H16 C24 N4 Cl4 O8"
_cell_length_a       3.606839151024371
_cell_length_b       10.392366305189833
_cell_length_c       18.88142721427206
_cell_angle_alpha    90.00173114662387
_cell_angle_beta     90.00040101934968
_cell_angle_gamma    90.00011845276599

_space_group_name_H-M_alt    "P 1"
_space_group_IT_number       1

loop_
  _space_group_symop_operation_xyz
  'x, y, z'

loop_
  _atom_site_type_symbol
  _atom_site_label
  _atom_site_symmetry_multiplicity
  _atom_site_fract_x
  _atom_site_fract_y
  _atom_site_fract_z
  _atom_site_occupancy
  Cu  Cu1       1.0  0.04506283104098689  0.15400568909679183  0.5019130500588603  1.0000
  Cu  Cu2       1.0  0.45494982456956723  0.845999042160656  0.0019123807517402998  1.0000
  Cu  Cu3       1.0  0.9549449348259531  0.6540029360680675  0.9980868830413315  1.0000
  Cu  Cu4       1.0  0.5450607819606716  0.3460024278474377  0.4980900628656215  1.0000
  Cu  Cu5       1.0  0.36766766804852585  0.6804592372169509  0.4568537805459343  1.0000
  Cu  Cu6       1.0  0.13235574345591064  0.3195503006693485  0.9568530807305607  1.0000
  Cu  Cu7       1.0  0.6323195957417482  0.18044535853843507  0.0431512105973795  1.0000
  Cu  Cu8       1.0  0.8676504125503683  0.8195484630566835  0.5431453640126662  1.0000
  H   H1        1.0  0.5263866228894258  0.4593241932481646  0.7128385284618944  1.0000
  H   H2        1.0  0.9736643233303824  0.5406770338298016  0.2128370523141996  1.0000
  H   H3        1.0  0.4736399223728612  0.9593143707114322  0.7871617073306681  1.0000
  H   H4        1.0  0.0263690913926808  0.04068487488999039  0.28716297007540004  1.0000
  H   H5        1.0  0.475984802601424  0.4715300573277117  0.8457226179345554  1.0000
  H   H6        1.0  0.024001356805811697  0.5284791436770958  0.345719265519385  1.0000
  H   H7        1.0  0.5240224208265688  0.9715206561586383  0.6542783501282017  1.0000
  H   H8        1.0  0.9759515693839803  0.0284725399906165  0.15428055416878556  1.0000
  H   H9        1.0  0.955813825296147  0.1163331989986105  0.8550662184948408  1.0000
  H   H10       1.0  0.5441202267703886  0.8836854707067445  0.3550714392693949  1.0000
  H   H11       1.0  0.04416595076417449  0.6163201145446634  0.644929381661946  1.0000
  H   H12       1.0  0.45579083411192295  0.3836761221382828  0.1449363964861234  1.0000
  H   H13       1.0  0.9845151722678267  0.09167589878286007  0.7228159671409886  1.0000
  H   H14       1.0  0.5155084064688963  0.9083326127352008  0.2228199692034138  1.0000
  H   H15       1.0  0.015494928179308  0.5916575596393654  0.777177634734791  1.0000
  H   H16       1.0  0.48451095545542705  0.4083353637577218  0.277186687090115  1.0000
  C   C1        1.0  0.2704872441073292  0.26391588091632906  0.6289135203876697  1.0000
  C   C2        1.0  0.2295327344390117  0.7360804371102033  0.12890859959946252  1.0000
  C   C3        1.0  0.7295296112226238  0.7639108235262028  0.871086648720187  1.0000
  C   C4        1.0  0.770474327507351  0.2360894820496355  0.3710883116923683  1.0000
  C   C5        1.0  0.2543748573535182  0.274617235647824  0.7074844595912069  1.0000
  C   C6        1.0  0.24565070914162854  0.7253843648929034  0.20748838674644085  1.0000
  C   C7        1.0  0.7456476180906789  0.7746059431689574  0.7925132390427622  1.0000
  C   C8        1.0  0.7543645953536213  0.225385231107019  0.2925178800695534  1.0000
  C   C9        1.0  0.3950946481223028  0.38242237854510813  0.7428493028400354  1.0000
  C   C10       1.0  0.10490446028056509  0.6175638459014224  0.24284859951455223  1.0000
  C   C11       1.0  0.6049119495097487  0.8824254169581489  0.7571512450765638  1.0000
  C   C12       1.0  0.8950768167739654  0.11757728434549357  0.2571521698478563  1.0000
  C   C13       1.0  0.3667941967277528  0.38964795497183485  0.8160858623418366  1.0000
  C   C14       1.0  0.1332186258608843  0.6103625032416602  0.3160813705842216  1.0000
  C   C15       1.0  0.633220769191027  0.8896335120101995  0.6839185127514043  1.0000
  C   C16       1.0  0.8667653730111765  0.11035169130128959  0.1839176901489736  1.0000
  C   C17       1.0  0.07715772034404719  0.19041716201616765  0.8213611539420427  1.0000
  C   C18       1.0  0.4228331113226814  0.809588775263059  0.3213656620477749  1.0000
  C   C19       1.0  0.9228419836057425  0.6904083728252033  0.6786335578262026  1.0000
  C   C20       1.0  0.5771439693767987  0.3095842380463764  0.1786393546723417  1.0000
  C   C21       1.0  0.09598171360074298  0.17690235932787599  0.7484253604711598  1.0000
  C   C22       1.0  0.40401204962945064  0.823085134023202  0.2484274189891167  1.0000
  C   C23       1.0  0.9040040329105778  0.6769043049412885  0.7515691269849114  1.0000
  C   C24       1.0  0.5959789884685875  0.32309808964106423  0.2515772923503051  1.0000
  N   N1        1.0  0.2057616079382285  0.29595617868454843  0.8554072138574754  1.0000
  N   N2        1.0  0.2942165809201284  0.7040429701260962  0.35540449764044985  1.0000
  N   N3        1.0  0.7942249747858838  0.7959541021036072  0.6445913687485927  1.0000
  N   N4        1.0  0.7057375783020844  0.2040404859293473  0.14459400007238096  1.0000
  Cl  Cl1       1.0  0.350363092910257  0.919986921966149  0.4900804702021305  1.0000
  Cl  Cl2       1.0  0.14962269388477273  0.0800225181527594  0.9900742281691068  1.0000
  Cl  Cl3       1.0  0.6496369432246566  0.4199750756007175  0.0099253202162757  1.0000
  Cl  Cl4       1.0  0.8503651446606496  0.5800188436145601  0.5099181210854341  1.0000
  O   O1        1.0  0.11817020688625489  0.16487987801106388  0.6010757153935913  1.0000
  O   O2        1.0  0.3818737268926782  0.8351293431680274  0.10107317683031881  1.0000
  O   O3        1.0  0.8818598154181885  0.6648648940345439  0.8989254574108047  1.0000
  O   O4        1.0  0.6181589833368475  0.33512635752480685  0.39892802703326424  1.0000
  O   O5        1.0  0.43418708829221936  0.35456232340390403  0.5957786480904019  1.0000
  O   O6        1.0  0.06584556563080209  0.6454446820253921  0.09577570600634293  1.0000
  O   O7        1.0  0.5658498111811311  0.8545484066706948  0.9042193186504193  1.0000
  O   O8        1.0  0.934160859706104  0.14544313592482175  0.4042207595768659  1.0000
