data_image0
_chemical_formula_structural       Zn2H32C40N4O8
_chemical_formula_sum              "Zn2 H32 C40 N4 O8"
_cell_length_a       9.424416412462332
_cell_length_b       10.266422781309432
_cell_length_c       10.52181043013747
_cell_angle_alpha    113.59291376119675
_cell_angle_beta     103.96841158430962
_cell_angle_gamma    97.52075131417452

_space_group_name_H-M_alt    "P 1"
_space_group_IT_number       1

loop_
  _space_group_symop_operation_xyz
  'x, y, z'

loop_
  _atom_site_type_symbol
  _atom_site_label
  _atom_site_symmetry_multiplicity
  _atom_site_fract_x
  _atom_site_fract_y
  _atom_site_fract_z
  _atom_site_occupancy
  Zn  Zn1       1.0  0.6241455795834483  0.9579831863229412  0.1718027720733628  1.0000
  Zn  Zn2       1.0  0.37585406049123554  0.042019098451142184  0.8281968327101978  1.0000
  H   H1        1.0  0.7869000891320254  0.8818162088186766  0.9495840017356655  1.0000
  H   H2        1.0  0.21310361711577744  0.118189285018822  0.05042163084615232  1.0000
  H   H3        1.0  0.799306783930497  0.6674603811059966  0.7336505099464643  1.0000
  H   H4        1.0  0.20070644424080797  0.332543988274736  0.2663587198003085  1.0000
  H   H5        1.0  0.43634255669034877  0.6299371122227058  0.9895864957821771  1.0000
  H   H6        1.0  0.563656129957252  0.3700617546826734  0.010416256417847956  1.0000
  H   H7        1.0  0.4372612379270606  0.40124176827998065  0.7789229888695316  1.0000
  H   H8        1.0  0.5627461165666929  0.5987606064055554  0.2210755448921658  1.0000
  H   H9        1.0  0.5985276735719228  0.2276147357720859  0.6979917390714545  1.0000
  H   H10       1.0  0.4014759996195494  0.7723863878048431  0.3020111574233509  1.0000
  H   H11       1.0  0.6187946129469993  0.023023240553769097  0.477548139352585  1.0000
  H   H12       1.0  0.38119561272090857  0.9769723830865186  0.5224485280183371  1.0000
  H   H13       1.0  0.6593019799657612  0.5086589177859011  0.48837288137087137  1.0000
  H   H14       1.0  0.3407127038954698  0.4913466495323674  0.5116333621183953  1.0000
  H   H15       1.0  0.8264076493379093  0.3973199389680389  0.9217180344359901  1.0000
  H   H16       1.0  0.1736020766607638  0.6026870034300914  0.07827623897308196  1.0000
  H   H17       1.0  0.06582286646109729  0.8750910584309037  0.38056390453185407  1.0000
  H   H18       1.0  0.9341699463282112  0.12491087445535946  0.6194473229638787  1.0000
  H   H19       1.0  0.9568106483178769  0.8385173409128867  0.4837121581051277  1.0000
  H   H20       1.0  0.04317576896122691  0.16147254112410542  0.5162908192152641  1.0000
  H   H21       1.0  0.8601932651875117  0.6622002607696159  0.0733013705186494  1.0000
  H   H22       1.0  0.13981211254743192  0.3378031118627334  0.9267009250022934  1.0000
  H   H23       1.0  0.9331184214350188  0.1381682773590569  0.0738352031154079  1.0000
  H   H24       1.0  0.06688397975192113  0.8618311502394247  0.9261467511577378  1.0000
  H   H25       1.0  0.8921956621300849  0.16358840488125279  0.9106140059652289  1.0000
  H   H26       1.0  0.10779893516333759  0.8364064904047337  0.08936909322479628  1.0000
  H   H27       1.0  0.9937854882930781  0.6045375961496688  0.46368894266726807  1.0000
  H   H28       1.0  0.0062037885034982  0.3954502874549988  0.5363062627117471  1.0000
  H   H29       1.0  0.9596982935227344  0.3374243915006332  0.3103911188560602  1.0000
  H   H30       1.0  0.040302144391922895  0.6625681282199735  0.6895999402320213  1.0000
  H   H31       1.0  0.6666300857292669  0.2883712140459807  0.27427388719743817  1.0000
  H   H32       1.0  0.3333720100052773  0.7116321509702317  0.7257276630548687  1.0000
  C   C1        1.0  0.7095009320751942  0.774202383378899  0.9061701801966744  1.0000
  C   C2        1.0  0.29050051550392914  0.225798687026959  0.09383409277371867  1.0000
  C   C3        1.0  0.7161725973147455  0.6542517672078958  0.7864515996545264  1.0000
  C   C4        1.0  0.2838298036914608  0.34575272106665966  0.2135495258994097  1.0000
  C   C5        1.0  0.5161016730734858  0.6329075176430479  0.9304928178563469  1.0000
  C   C6        1.0  0.48390271362229964  0.3670923890269435  0.06951449840239825  1.0000
  C   C7        1.0  0.5171850505193234  0.5058203338977947  0.8133324537686233  1.0000
  C   C8        1.0  0.48282084828450433  0.49418084285021285  0.1866690662505874  1.0000
  C   C9        1.0  0.619722931355298  0.5157858180833016  0.7385461198506957  1.0000
  C   C10       1.0  0.38027871853451967  0.4842198390045451  0.26145245926064564  1.0000
  C   C11       1.0  0.6139051828274519  0.24762452086990547  0.6073041592995451  1.0000
  C   C12       1.0  0.3860980257132667  0.7523788707318387  0.39269670271496415  1.0000
  C   C13       1.0  0.623979830395122  0.13255391233943928  0.4846818555823731  1.0000
  C   C14       1.0  0.3760104847472334  0.8674461537018914  0.515314737893547  1.0000
  C   C15       1.0  0.6487418556594663  0.4029316719289184  0.4910741922804219  1.0000
  C   C16       1.0  0.35126357849360096  0.597071772843897  0.5089252932584996  1.0000
  C   C17       1.0  0.6981516308910259  0.11979395762874384  0.9784433205156802  1.0000
  C   C18       1.0  0.3018529581154539  0.8802105357232434  0.02155830188401352  1.0000
  C   C19       1.0  0.8628914575683808  0.4423333213811345  0.04077371446019371  1.0000
  C   C20       1.0  0.13712085041291286  0.5576669397153821  0.959222227509265  1.0000
  C   C21       1.0  0.6267945796952504  0.3872963187365172  0.611864817147719  1.0000
  C   C22       1.0  0.37321252138920613  0.6127093269980718  0.3881359407386923  1.0000
  C   C23       1.0  0.9552250399237965  0.8157723511961662  0.37195005302941525  1.0000
  C   C24       1.0  0.044766378149461196  0.18422413372611857  0.628056741333445  1.0000
  C   C25       1.0  0.881519451928611  0.5915366455195681  0.12646270479331886  1.0000
  C   C26       1.0  0.11848200020626361  0.40846010271936706  0.873536958768703  1.0000
  C   C27       1.0  0.8936549358331405  0.3493964056013894  0.10568145305803256  1.0000
  C   C28       1.0  0.10635048406963682  0.6506026929576834  0.8943143597331937  1.0000
  C   C29       1.0  0.8657598566217858  0.18637100798116532  0.012298466485368965  1.0000
  C   C30       1.0  0.1342401873105246  0.8136281981184723  0.9876914208880833  1.0000
  C   C31       1.0  0.9570152131200729  0.5591526666408624  0.3445787820798427  1.0000
  C   C32       1.0  0.04297826149190342  0.44083859435499306  0.6554158944727033  1.0000
  C   C33       1.0  0.939365818509671  0.40975464149926916  0.2588274777212192  1.0000
  C   C34       1.0  0.060633483237019406  0.5902421497558876  0.7411698156737001  1.0000
  C   C35       1.0  0.9297902117147386  0.652798429708774  0.2798117418887926  1.0000
  C   C36       1.0  0.07020131919476567  0.3471981994944571  0.7201894325100183  1.0000
  C   C37       1.0  0.6531751943209513  0.2813337613997006  0.37138858189238266  1.0000
  C   C38       1.0  0.3468241969001938  0.7186674722565058  0.6286086376075274  1.0000
  C   C39       1.0  0.8338904245276525  0.8757865873840698  0.3056252100763713  1.0000
  C   C40       1.0  0.1661034634557481  0.12421532399408618  0.6943872025029164  1.0000
  N   N1        1.0  0.6107752146208725  0.76476824330107  0.9772213597080391  1.0000
  N   N2        1.0  0.3892219133758346  0.23523288909041176  0.022779109588810825  1.0000
  N   N3        1.0  0.6413118475247045  0.14790622160332842  0.36768839659490027  1.0000
  N   N4        1.0  0.35868284361819047  0.8520938545928516  0.6323091905725418  1.0000
  O   O1        1.0  0.8688577189442485  0.9607896121491848  0.2506576820675191  1.0000
  O   O2        1.0  0.131134187724598  0.0392176193426934  0.7493631016793856  1.0000
  O   O3        1.0  0.6984148150298851  0.8355473858462403  0.30301317194647476  1.0000
  O   O4        1.0  0.3015702308949599  0.16443275010666267  0.6969798261719973  1.0000
  O   O5        1.0  0.6605900411144461  0.09447367041659048  0.07545743218599206  1.0000
  O   O6        1.0  0.3394216141556754  0.9055286182364949  0.9245458419099177  1.0000
  O   O7        1.0  0.6057911232137131  0.10528557211024749  0.8599263280625706  1.0000
  O   O8        1.0  0.3942101604305677  0.8947232117456991  0.14008009513752728  1.0000
