data_image0
_chemical_formula_structural       Zn4H33C53N16Cl5
_chemical_formula_sum              "Zn4 H33 C53 N16 Cl5"
_cell_length_a       15.782183625283222
_cell_length_b       15.864476309608376
_cell_length_c       17.823451574105583
_cell_angle_alpha    109.42412571507586
_cell_angle_beta     105.06848832239871
_cell_angle_gamma    110.02610252648742

_space_group_name_H-M_alt    "P 1"
_space_group_IT_number       1

loop_
  _space_group_symop_operation_xyz
  'x, y, z'

loop_
  _atom_site_type_symbol
  _atom_site_label
  _atom_site_symmetry_multiplicity
  _atom_site_fract_x
  _atom_site_fract_y
  _atom_site_fract_z
  _atom_site_occupancy
  Zn  Zn1       1.0  0.1258136663690763  0.1241644055089282  0.4997528310095944  1.0000
  Zn  Zn2       1.0  0.8764518598013071  0.8672716211259371  0.4968126013495111  1.0000
  Zn  Zn3       1.0  0.005352807658439901  0.8731980082683889  0.3812260766675806  1.0000
  Zn  Zn4       1.0  0.9991995655930666  0.11813824588331563  0.6226255931902713  1.0000
  H   H1        1.0  0.6675334499306659  0.8162340524278876  0.5228315742745693  1.0000
  H   H2        1.0  0.845288901476998  0.8498453077197113  0.20805571701256306  1.0000
  H   H3        1.0  0.68436469486997  0.8694114113392286  0.37182900698776683  1.0000
  H   H4        1.0  0.9840125841935079  0.13339167850620035  0.34226935061871444  1.0000
  H   H5        1.0  0.8193798296956062  0.14127002989316412  0.6868024611721566  1.0000
  H   H6        1.0  0.30577126103415964  0.3634859199907439  0.6216620345142801  1.0000
  H   H7        1.0  0.1546947282753308  0.8161406553185842  0.48406000781180586  1.0000
  H   H8        1.0  0.0002939412340695024  0.7999428919556377  0.6167254430290328  1.0000
  H   H9        1.0  0.1703225177959524  0.34359083052787287  0.8017225248161779  1.0000
  H   H10       1.0  0.9822781171409077  0.6362360365284304  0.31751519022413544  1.0000
  H   H11       1.0  0.19835975717864335  0.09568385770082703  0.03411042917313983  1.0000
  H   H12       1.0  0.1275471169465376  0.8661956578867984  0.9655009085081759  1.0000
  H   H13       1.0  0.37223131594249287  0.4020787246675112  0.41501733164054855  1.0000
  H   H14       1.0  0.3469111141113502  0.4083561800667681  0.5072925354606427  1.0000
  H   H15       1.0  0.4596083689731927  0.40966295611756454  0.5062904942860342  1.0000
  H   H16       1.0  0.33814176736783  0.23710463167044074  0.4759371350666157  1.0000
  H   H17       1.0  0.3645134621201223  0.23059109521658877  0.3846345412147656  1.0000
  H   H18       1.0  0.20734324979359542  0.2305840429385171  0.3103109546950762  1.0000
  H   H19       1.0  0.18285363893001974  0.24874067355309393  0.4041637215502263  1.0000
  H   H20       1.0  0.6241409544423462  0.4980045981000743  0.49434349361141733  1.0000
  H   H21       1.0  0.6252592326179853  0.6166651989099421  0.5213011357685106  1.0000
  H   H22       1.0  0.5317698361039334  0.508313026363311  0.42175944338818283  1.0000
  H   H23       1.0  0.6610218545556704  0.6186481790547305  0.3908347842995142  1.0000
  H   H24       1.0  0.6596902468799898  0.5007795001643487  0.364305558042922  1.0000
  H   H25       1.0  0.8054966458236166  0.5772999942865054  0.50808820877522  1.0000
  H   H26       1.0  0.8057645245552723  0.6954065628137512  0.5370779993056658  1.0000
  H   H27       1.0  0.9058197981326899  0.441976830523636  0.6891073452062885  1.0000
  H   H28       1.0  0.9741898405269184  0.4024115381162047  0.7530357369941783  1.0000
  H   H29       1.0  0.03764025722711751  0.5127603329187876  0.7445268871279183  1.0000
  H   H30       1.0  0.05458872768129201  0.3694040391226138  0.6490937539131139  1.0000
  H   H31       1.0  0.9874226389241656  0.40799851707662066  0.5846945779290351  1.0000
  H   H32       1.0  0.8278926345682366  0.26376452809267203  0.5433624133075129  1.0000
  H   H33       1.0  0.8867691032768195  0.22886400374645188  0.6176514190132993  1.0000
  C   C1        1.0  0.16349449789579754  0.10177310574976421  0.33220727565969815  1.0000
  C   C2        1.0  0.7197544744021015  0.8966358193404813  0.5609594550195424  1.0000
  C   C3        1.0  0.8209521669168326  0.859505521583408  0.2605629395236876  1.0000
  C   C4        1.0  0.9189165355492934  0.20014938633214305  0.5056764500889842  1.0000
  C   C5        1.0  0.7380552607695777  0.869219250942983  0.344200002866188  1.0000
  C   C6        1.0  0.965732382794798  0.1473132671330008  0.39835792686797344  1.0000
  C   C7        1.0  0.7976885158643372  0.0629532695211879  0.644793062561071  1.0000
  C   C8        1.0  0.09128542532597093  0.9339847192190119  0.2584191543416877  1.0000
  C   C9        1.0  0.14144244310519843  0.022100541470841527  0.2516091384540857  1.0000
  C   C10       1.0  0.7047916482356555  0.9765050302237482  0.6093965343671641  1.0000
  C   C11       1.0  0.7268294642751414  0.8471559007890902  0.2575708460359393  1.0000
  C   C12       1.0  0.9227552658909063  0.20802657271813985  0.4293385601500219  1.0000
  C   C13       1.0  0.2585005608098855  0.34235397569740667  0.6538862069755426  1.0000
  C   C14       1.0  0.8527185869076704  0.650833388855503  0.4353552136739511  1.0000
  C   C15       1.0  0.1832558266539125  0.8977079411695073  0.5140483817529216  1.0000
  C   C16       1.0  0.09990304153086531  0.04529883602073432  0.7384997343712314  1.0000
  C   C17       1.0  0.02818714865197341  0.8813994635997486  0.6483395426993681  1.0000
  C   C18       1.0  0.2728584183335272  0.06459632709171362  0.587274676211088  1.0000
  C   C19       1.0  0.1892624632393094  0.331517189196795  0.7460770338282574  1.0000
  C   C20       1.0  0.9420115416782978  0.6523164038099766  0.35665645706610155  1.0000
  C   C21       1.0  0.2713426848378191  0.39709024113893315  0.7401251875902943  1.0000
  C   C22       1.0  0.8907085647193684  0.5925488718037997  0.38961772962585445  1.0000
  C   C23       1.0  0.2816035667461705  0.9749640814230388  0.5708130782669797  1.0000
  C   C24       1.0  0.08843377677909811  0.9523464248153815  0.7375367239729584  1.0000
  C   C25       1.0  0.8998319986061675  0.27347969919182463  0.40152279247056566  1.0000
  C   C26       1.0  0.8878847417637488  0.34140814723218676  0.3896853614296987  1.0000
  C   C27       1.0  0.8826843386167482  0.42206038797101536  0.3834552497983453  1.0000
  C   C28       1.0  0.883661558085187  0.49994445600502496  0.383677027454688  1.0000
  C   C29       1.0  0.6166700786363251  0.9719685244409959  0.6153536514978413  1.0000
  C   C30       1.0  0.5375764190180021  0.9688497403399337  0.6145459657219732  1.0000
  C   C31       1.0  0.4499960080558481  0.9678240883035727  0.6074356800049048  1.0000
  C   C32       1.0  0.36984343258946245  0.9681810823377929  0.5947712147652169  1.0000
  C   C33       1.0  0.6406773107604594  0.8061801557302959  0.18141389975358638  1.0000
  C   C34       1.0  0.4867733183038966  0.6895154358603578  0.029874273507644565  1.0000
  C   C35       1.0  0.49247734196349313  0.6505448710070638  0.9509397983334581  1.0000
  C   C36       1.0  0.4141893260165546  0.568639167595542  0.8737281335971546  1.0000
  C   C37       1.0  0.5682653576418205  0.7574594266060473  0.11035875072593626  1.0000
  C   C38       1.0  0.3484833800313893  0.49084908525322385  0.8082279961582587  1.0000
  C   C39       1.0  0.11912389894936132  0.9390381322527473  0.8119434533363689  1.0000
  C   C40       1.0  0.14846176691252572  0.9381603653116171  0.9631367983810151  1.0000
  C   C41       1.0  0.1762588588604288  0.0239068429370519  0.03696542660170372  1.0000
  C   C42       1.0  0.1718229968303007  0.0250809900698385  0.11458651135972531  1.0000
  C   C43       1.0  0.13804081517421452  0.9377100853315525  0.8825721348320243  1.0000
  C   C44       1.0  0.16077850198578153  0.02700243540889602  0.18056402231854213  1.0000
  C   C45       1.0  0.21737344090401223  0.21351485810923523  0.3660330405226589  1.0000
  C   C46       1.0  0.3290268408264083  0.2611298385652105  0.4242843321935723  1.0000
  C   C47       1.0  0.3798797362613726  0.3765015074003059  0.4655342387145325  1.0000
  C   C48       1.0  0.7882444337521906  0.6254136340938602  0.4808464548034836  1.0000
  C   C49       1.0  0.6767140201047328  0.570994754218276  0.41959005353148626  1.0000
  C   C50       1.0  0.6108606282038807  0.5472544819640248  0.46674315861253035  1.0000
  C   C51       1.0  0.8976043951375133  0.2628581252348496  0.5739451724132395  1.0000
  C   C52       1.0  0.9840731982855575  0.37223804720476755  0.627928904329572  1.0000
  C   C53       1.0  0.9746896237568948  0.4357510902507684  0.7078497049163487  1.0000
  N   N1        1.0  0.129388228174129  0.062135658785159406  0.380864331661222  1.0000
  N   N2        1.0  0.8130136870204014  0.9330667119773254  0.5670706327703597  1.0000
  N   N3        1.0  0.8809308723915097  0.8844126914213463  0.34157791466574855  1.0000
  N   N4        1.0  0.9551961884119325  0.13752496061440683  0.5160159716255706  1.0000
  N   N5        1.0  0.8306054494994513  0.8904421589412196  0.3930701417287564  1.0000
  N   N6        1.0  0.9861399900254214  0.10645669475414375  0.4517891902394737  1.0000
  N   N7        1.0  0.8614768750734572  0.036534595752556305  0.6189430322719291  1.0000
  N   N8        1.0  0.08445448623974983  0.9580164989831701  0.33525624727143116  1.0000
  N   N9        1.0  0.17609523821625575  0.25233838443736534  0.6127947951021824  1.0000
  N   N10       1.0  0.8804778035731219  0.7376754159332746  0.42934395245602264  1.0000
  N   N11       1.0  0.12343880800278133  0.9388322491148884  0.49760589408433026  1.0000
  N   N12       1.0  0.050116106273201  0.030202274837449705  0.6576295044304814  1.0000
  N   N13       1.0  0.005339320154185102  0.9288195185827773  0.6022982900167264  1.0000
  N   N14       1.0  0.17826869610319562  0.04194599105024821  0.5430811528180328  1.0000
  N   N15       1.0  0.1333416194361874  0.24575720116419567  0.6703928656151136  1.0000
  N   N16       1.0  0.935633780534751  0.7387214787039511  0.3808017376265198  1.0000
  Cl  Cl1       1.0  0.16250762564862953  0.16140756108043067  0.8277513931771594  1.0000
  Cl  Cl2       1.0  0.3660184490686191  0.18576867604335232  0.6498408254073242  1.0000
  Cl  Cl3       1.0  0.6077372120222293  0.6999598320496287  0.9479812572046455  1.0000
  Cl  Cl4       1.0  0.37065330393303964  0.6429586715154585  0.03190369892361395  1.0000
  Cl  Cl5       1.0  0.0407116863328838  0.8104650252711707  0.1832331877415997  1.0000
