data_image0
_chemical_formula_structural       Al4H16C22O22
_chemical_formula_sum              "Al4 H16 C22 O22"
_cell_length_a       6.668791030767213
_cell_length_b       11.118248987858797
_cell_length_c       16.17238872315125
_cell_angle_alpha    100.40551155823225
_cell_angle_beta     90.00504585539784
_cell_angle_gamma    89.98625329219884

_space_group_name_H-M_alt    "P 1"
_space_group_IT_number       1

loop_
  _space_group_symop_operation_xyz
  'x, y, z'

loop_
  _atom_site_type_symbol
  _atom_site_label
  _atom_site_symmetry_multiplicity
  _atom_site_fract_x
  _atom_site_fract_y
  _atom_site_fract_z
  _atom_site_occupancy
  Al  Al1       1.0  0.9993744650913142  0.5011552528594975  0.4966722503482615  1.0000
  Al  Al2       1.0  0.0004948330980738998  0.0011639479249367461  0.9966807357430625  1.0000
  Al  Al3       1.0  0.49823153731777836  0.49709384350971675  0.4984506362764023  1.0000
  Al  Al4       1.0  0.5016116921148139  0.9971654892065587  0.9984521948955065  1.0000
  H   H1        1.0  0.376012723679338  0.24646710674427647  0.6784160444115701  1.0000
  H   H2        1.0  0.6238731467980118  0.7465914613167398  0.17839734066608062  1.0000
  H   H3        1.0  0.9484078976943522  0.18943826339583578  0.810695132167467  1.0000
  H   H4        1.0  0.05120468909356649  0.689705665203242  0.310940511277373  1.0000
  H   H5        1.0  0.4025039314166037  0.23985648012265412  0.8129960311785781  1.0000
  H   H6        1.0  0.5969708825897797  0.7396514475667642  0.3129131902335303  1.0000
  H   H7        1.0  0.8396365299040482  0.4704853504640241  0.794630490320131  1.0000
  H   H8        1.0  0.7368437776138846  0.32647071353639484  0.8091425167900042  1.0000
  H   H9        1.0  0.6288986603948458  0.4066274324278254  0.7328004395309762  1.0000
  H   H10       1.0  0.261772552728452  0.8272367203238034  0.3096362488070811  1.0000
  H   H11       1.0  0.1601263825229893  0.9710958132171256  0.294207369235906  1.0000
  H   H12       1.0  0.37113374028997004  0.9062546346717466  0.23299405958085373  1.0000
  H   H13       1.0  0.7560818041622993  0.3546191251996405  0.5195603170741165  1.0000
  H   H14       1.0  0.24393939320155056  0.8546914213288445  0.019543310726419297  1.0000
  H   H15       1.0  0.25226142326720685  0.6489000290888356  0.552637942535789  1.0000
  H   H16       1.0  0.7476223441462793  0.14892916474380508  0.0526066158420235  1.0000
  C   C1        1.0  0.7428396104008499  0.6368851963506188  0.39936623165563395  1.0000
  C   C2        1.0  0.25681006544512286  0.13690876551751066  0.8993662258999822  1.0000
  C   C3        1.0  0.7528953981872987  0.6441393582474504  0.6303274906633548  1.0000
  C   C4        1.0  0.24692187569661425  0.1442031747740415  0.1302931490219734  1.0000
  C   C5        1.0  0.24738371024441358  0.3566550828823408  0.5940035544867258  1.0000
  C   C6        1.0  0.7526011354986152  0.8567166012235248  0.09399637256544931  1.0000
  C   C7        1.0  0.2446944623777014  0.36159586241315367  0.3647380640124709  1.0000
  C   C8        1.0  0.7550525786986597  0.8616143876445578  0.8647218231560174  1.0000
  C   C9        1.0  0.24888678939186085  0.28430260871205354  0.2823163256567441  1.0000
  C   C10       1.0  0.7508955689278168  0.7843071244617404  0.7823248199573101  1.0000
  C   C11       1.0  0.2497038823894826  0.22078512902692174  0.2128692676322999  1.0000
  C   C12       1.0  0.7500406985841436  0.7207369192321024  0.712886276544687  1.0000
  C   C13       1.0  0.0754311367682732  0.28291223164549  0.7144153818446098  1.0000
  C   C14       1.0  0.9243435589244555  0.7829275001543934  0.21449472724390264  1.0000
  C   C15       1.0  0.2371471526691593  0.28926349935875356  0.6634774649267784  1.0000
  C   C16       1.0  0.7627550836082193  0.7892913228484346  0.16347932533761886  1.0000
  C   C17       1.0  0.08763623990638789  0.22424363755618512  0.7882309677858859  1.0000
  C   C18       1.0  0.9120134758043861  0.7244025682324846  0.28837065070172946  1.0000
  C   C19       1.0  0.2567462361574258  0.20715967288760592  0.8299739832949983  1.0000
  C   C20       1.0  0.7428192669684677  0.7071525635311814  0.3299830244568156  1.0000
  C   C21       1.0  0.7684688891096699  0.38537503277089513  0.7628223963237348  1.0000
  C   C22       1.0  0.23110751299780216  0.8856187322657902  0.2629275367527342  1.0000
  O   O1        1.0  0.5837959117749563  0.6200256828129654  0.5946664702323617  1.0000
  O   O2        1.0  0.4161101095127576  0.1200301023323718  0.0947133787986587  1.0000
  O   O3        1.0  0.9102905657851394  0.6183109040893697  0.4328297054620692  1.0000
  O   O4        1.0  0.08930824850188658  0.11817780953906272  0.9327142716879139  1.0000
  O   O5        1.0  0.0741188527871302  0.4028293180067379  0.39065820973276294  1.0000
  O   O6        1.0  0.9256107849884996  0.902725806709114  0.8907065701088259  1.0000
  O   O7        1.0  0.9249099818317532  0.6087527817398097  0.6017928788811346  1.0000
  O   O8        1.0  0.0749100702980954  0.10889918449583999  0.1017283276743726  1.0000
  O   O9        1.0  0.0857894074397407  0.37853221025288514  0.5570494432403663  1.0000
  O   O10       1.0  0.9142483403667541  0.8786504940680828  0.057127765645667204  1.0000
  O   O11       1.0  0.5722278798344433  0.6004410806481529  0.4202957357477501  1.0000
  O   O12       1.0  0.4274985837268233  0.1006465197911908  0.920418519794957  1.0000
  O   O13       1.0  0.7498342526861065  0.42499839578125903  0.49169961263719836  1.0000
  O   O14       1.0  0.2500752234084517  0.9250788694170851  0.9916926127720416  1.0000
  O   O15       1.0  0.4235754903758959  0.3900201669267673  0.5748108484621428  1.0000
  O   O16       1.0  0.5764021968500401  0.8900358727739502  0.07473871759156481  1.0000
  O   O17       1.0  0.41120781797845035  0.38016958047928284  0.4029703388614721  1.0000
  O   O18       1.0  0.5885205439681727  0.8803044905877471  0.9029201653919117  1.0000
  O   O19       1.0  0.2502786264788739  0.5755989854016335  0.509720761141935  1.0000
  O   O20       1.0  0.7495742944904363  0.0756185803244946  0.0096930741957593  1.0000
  O   O21       1.0  0.8939276438103717  0.3261140288489628  0.695102886409515  1.0000
  O   O22       1.0  0.1059706343432865  0.8260154882550877  0.19517555341780485  1.0000
