data_image0
_chemical_formula_structural       Gd2P2H22C18S2N2O18
_chemical_formula_sum              "Gd2 P2 H22 C18 S2 N2 O18"
_cell_length_a       6.786890377260612
_cell_length_b       7.544423167008123
_cell_length_c       13.356303489463906
_cell_angle_alpha    90.68616577038283
_cell_angle_beta     93.22789573062205
_cell_angle_gamma    101.86742543604755

_space_group_name_H-M_alt    "P 1"
_space_group_IT_number       1

loop_
  _space_group_symop_operation_xyz
  'x, y, z'

loop_
  _atom_site_type_symbol
  _atom_site_label
  _atom_site_symmetry_multiplicity
  _atom_site_fract_x
  _atom_site_fract_y
  _atom_site_fract_z
  _atom_site_occupancy
  Gd  Gd1       1.0  0.28510401785646183  0.7685719544787092  0.4549740342103945  1.0000
  Gd  Gd2       1.0  0.7148959314926344  0.23142746596347047  0.5450249764730728  1.0000
  P   P1        1.0  0.25014808641042663  0.3851910079416926  0.6222531928989881  1.0000
  P   P2        1.0  0.7498548129099233  0.6148084057207371  0.3777459020353149  1.0000
  H   H1        1.0  0.1614027666264022  0.10603715895835111  0.7757979823129445  1.0000
  H   H2        1.0  0.838604029752247  0.8939663156039048  0.2242019948443073  1.0000
  H   H3        1.0  0.16386984811610722  0.12613602479130753  0.9628065824448127  1.0000
  H   H4        1.0  0.8361304175008045  0.8738647536952513  0.03719319339897  1.0000
  H   H5        1.0  0.21031819191340875  0.3202233904270386  0.12098991127905377  1.0000
  H   H6        1.0  0.7896725929705113  0.679774698763559  0.8790095790004243  1.0000
  H   H7        1.0  0.2738841441924293  0.62776147658073  0.1997106441180136  1.0000
  H   H8        1.0  0.7261143318874376  0.37223795370486096  0.8002898219488586  1.0000
  H   H9        1.0  0.3364935961933783  0.8987766988141246  0.09652519852230769  1.0000
  H   H10       1.0  0.6635078307159289  0.1012227279184827  0.9034761005497953  1.0000
  H   H11       1.0  0.33801976072693674  0.8698041083875907  0.9083921463466922  1.0000
  H   H12       1.0  0.6619819815919853  0.1301966731626223  0.091609169131317  1.0000
  H   H13       1.0  0.31275732732829914  0.6760781036465104  0.767413993026693  1.0000
  H   H14       1.0  0.6872450449516592  0.3239253843121475  0.2325866065087254  1.0000
  H   H15       1.0  0.22877860572793204  0.3887966600303158  0.3430664546410682  1.0000
  H   H16       1.0  0.7712213436211643  0.6112027604118637  0.6569325560424062  1.0000
  H   H17       1.0  0.022554133496697732  0.4178657578900484  0.3838487616134714  1.0000
  H   H18       1.0  0.9774461321202144  0.5821350205965036  0.6161510142303115  1.0000
  H   H19       1.0  0.2280323901002817  0.9189922546952474  0.6465706017688007  1.0000
  H   H20       1.0  0.7719684059897959  0.0810044624021486  0.35343066449149757  1.0000
  H   H21       1.0  0.10729690114055762  0.03777268006830071  0.579223287296081  1.0000
  H   H22       1.0  0.8927009466946602  0.9622240502623854  0.420779392222201  1.0000
  C   C1        1.0  0.23807615519039166  0.3953754597995172  0.7595569511773446  1.0000
  C   C2        1.0  0.7619270595395732  0.6046253086805178  0.24044216016285697  1.0000
  C   C3        1.0  0.19403705740187863  0.23628392175587726  0.815454861611954  1.0000
  C   C4        1.0  0.805967949439719  0.7637182046054252  0.18454580576838708  1.0000
  C   C5        1.0  0.19454142237312066  0.24837758278275862  0.9184787191871847  1.0000
  C   C6        1.0  0.8054591577952054  0.7516245472946397  0.0815203243080944  1.0000
  C   C7        1.0  0.23373460683076536  0.4189558560598527  0.9689666826056962  1.0000
  C   C8        1.0  0.7662674491813919  0.5810462738544263  0.0310331517694067  1.0000
  C   C9        1.0  0.23567667308524426  0.4398594614084744  0.0745763224033453  1.0000
  C   C10       1.0  0.7643203280089922  0.5601399722669953  0.9254241015381055  1.0000
  C   C11       1.0  0.27291367761781526  0.6105016700384382  0.11867463608281528  1.0000
  C   C12       1.0  0.7270880638429134  0.3894991082850083  0.8813259306407915  1.0000
  C   C13       1.0  0.30846022184100974  0.766117540815287  0.05891903935714989  1.0000
  C   C14       1.0  0.6915426800539208  0.2338818825274487  0.9410823018403817  1.0000
  C   C15       1.0  0.30883516027660113  0.7516532021595524  0.9556905730371098  1.0000
  C   C16       1.0  0.6911698474231897  0.24834892742851622  0.04431084309764089  1.0000
  C   C17       1.0  0.27236186421021813  0.5772814034357908  0.9100004664824296  1.0000
  C   C18       1.0  0.7276390330841239  0.4227220879127388  0.0900000909275676  1.0000
  S   S1        1.0  0.3982297007522463  0.08154444937612482  0.30839883004471597  1.0000
  S   S2        1.0  0.601766455317396  0.9184576940976612  0.6916008358287229  1.0000
  N   N1        1.0  0.27388313833701977  0.5563226461523669  0.8077864786902466  1.0000
  N   N2        1.0  0.7261200772511387  0.44367812555443453  0.19221338140436467  1.0000
  O   O1        1.0  0.24615065866498048  0.5780355986824405  0.589556271367229  1.0000
  O   O2        1.0  0.7538501348505096  0.4219611087346564  0.4104427486298546  1.0000
  O   O3        1.0  0.44254426231015753  0.32049918470731603  0.605161358166498  1.0000
  O   O4        1.0  0.5574565329217266  0.6794975291633136  0.3948391593393978  1.0000
  O   O5        1.0  0.05921767603384613  0.24842223860112264  0.5862908712957378  1.0000
  O   O6        1.0  0.9407837517336546  0.7515771913582584  0.4137111765307822  1.0000
  O   O7        1.0  0.27123771164295385  0.8984558986333798  0.2863113026103576  1.0000
  O   O8        1.0  0.7287640289595816  0.10154487646329359  0.7136885153588395  1.0000
  O   O9        1.0  0.43439033185579495  0.0879273508810954  0.4220155370707346  1.0000
  O   O10       1.0  0.5656087733269075  0.9120747825861741  0.5779834642991304  1.0000
  O   O11       1.0  0.2995221621991036  0.2272475914992782  0.2738735853849832  1.0000
  O   O12       1.0  0.7004715709396835  0.7727504844580366  0.7261244916365115  1.0000
  O   O13       1.0  0.5965325844706585  0.09966892023599172  0.2613083950643258  1.0000
  O   O14       1.0  0.40346504744280776  0.9003332230746893  0.738692061688937  1.0000
  O   O15       1.0  0.15909873967147803  0.48200355983045995  0.36915553601761525  1.0000
  O   O16       1.0  0.8409030009310572  0.5179972152662131  0.6308442819515818  1.0000
  O   O17       1.0  0.13864162622443396  0.9145907242994653  0.5847026931332877  1.0000
  O   O18       1.0  0.8613580102896281  0.08540735100541501  0.41529854740750244  1.0000
