data_image0
_chemical_formula_structural       Cu2H16C24N2Cl2O2
_chemical_formula_sum              "Cu2 H16 C24 N2 Cl2 O2"
_cell_length_a       3.7103617541567004
_cell_length_b       11.48295086653907
_cell_length_c       11.644072919935331
_cell_angle_alpha    88.05720146606548
_cell_angle_beta     81.25297846610435
_cell_angle_gamma    85.2068610183081

_space_group_name_H-M_alt    "P 1"
_space_group_IT_number       1

loop_
  _space_group_symop_operation_xyz
  'x, y, z'

loop_
  _atom_site_type_symbol
  _atom_site_label
  _atom_site_symmetry_multiplicity
  _atom_site_fract_x
  _atom_site_fract_y
  _atom_site_fract_z
  _atom_site_occupancy
  Cu  Cu1       1.0  0.3364523485629505  0.11085742432197779  0.5138496845878607  1.0000
  Cu  Cu2       1.0  0.6635470711896189  0.8891402050319426  0.48615128018878545  1.0000
  H   H1        1.0  0.36661302929402934  0.5540444380986785  0.3120167354376023  1.0000
  H   H2        1.0  0.6333618014239732  0.4459532858773018  0.6879820005821743  1.0000
  H   H3        1.0  0.9531435768848766  0.29132858322198274  0.5610271035756256  1.0000
  H   H4        1.0  0.046834570866302314  0.7086665119314831  0.43897153223996815  1.0000
  H   H5        1.0  0.740656706975976  0.0704214303383495  0.2690341707172479  1.0000
  H   H6        1.0  0.25935928789252216  0.9295752762557259  0.7309668600735222  1.0000
  H   H7        1.0  0.10532020457911527  0.0751096412184964  0.07400047756719631  1.0000
  H   H8        1.0  0.8946678924839946  0.9248897801991307  0.9259992833208344  1.0000
  H   H9        1.0  0.39079472100405604  0.08124312926709372  0.8665801530090605  1.0000
  H   H10       1.0  0.6092089784533599  0.9187597310038667  0.1334204762457745  1.0000
  H   H11       1.0  0.32275725687216544  0.26080675236669043  0.7474646624296142  1.0000
  H   H12       1.0  0.6772624621601935  0.7391977728008569  0.25253943366075765  1.0000
  H   H13       1.0  0.9801378360606207  0.44075936265611654  0.837275564586335  1.0000
  H   H14       1.0  0.019877194348609396  0.5592416969301155  0.16272712720705582  1.0000
  H   H15       1.0  0.6936481000185635  0.4357098413145978  0.04358533484956691  1.0000
  H   H16       1.0  0.306353050668143  0.5642921688335677  0.9564137223473708  1.0000
  C   C1        1.0  0.18344668869096376  0.41140110148276693  0.42701820919255334  1.0000
  C   C2        1.0  0.8165624098155959  0.5886018057713542  0.5729761415475778  1.0000
  C   C3        1.0  0.20233901588087375  0.5301996615682755  0.3936270908394306  1.0000
  C   C4        1.0  0.7976519810347682  0.469798904983584  0.6063699713756776  1.0000
  C   C5        1.0  0.9774684278686224  0.3828154560348054  0.5346825177087027  1.0000
  C   C6        1.0  0.02252024952250756  0.6171813518633371  0.4653164183077436  1.0000
  C   C7        1.0  0.3767194129853237  0.3212780213294906  0.3529398347594892  1.0000
  C   C8        1.0  0.6232797857834099  0.6787205079343366  0.6470585428078695  1.0000
  C   C9        1.0  0.6464172747917233  0.1621858853454441  0.2736901378713982  1.0000
  C   C10       1.0  0.3535735507141808  0.8378135293901892  0.726309489034094  1.0000
  C   C11       1.0  0.6997973005873777  0.2500537968754059  0.1919450353489225  1.0000
  C   C12       1.0  0.300198777344974  0.7499464871640956  0.8080534536820708  1.0000
  C   C13       1.0  0.8758517162845506  0.2550693057635343  0.07247400409247011  1.0000
  C   C14       1.0  0.12414418197570846  0.7449318350807631  0.9275261909789592  1.0000
  C   C15       1.0  0.07460358245796779  0.154961837399  0.0217579865496589  1.0000
  C   C16       1.0  0.9253977644255398  0.8450392987023251  0.9782410819067381  1.0000
  C   C17       1.0  0.23341488981334627  0.15807858045601364  0.905728560890573  1.0000
  C   C18       1.0  0.7665967905133185  0.8419251424368142  0.09427079650722453  1.0000
  C   C19       1.0  0.19822931797840224  0.26036809692181623  0.8384089344050453  1.0000
  C   C20       1.0  0.8017823788729643  0.7396356087289745  0.1615921402926404  1.0000
  C   C21       1.0  0.006482005608141627  0.360199241030834  0.8886785460148304  1.0000
  C   C22       1.0  0.9935380645060548  0.6398035791481506  0.11132127934472891  1.0000
  C   C23       1.0  0.8459598896246944  0.3579972925568883  0.0048161466715015075  1.0000
  C   C24       1.0  0.15404672620995538  0.6420046956062606  0.9951835012102991  1.0000
  N   N1        1.0  0.44315846515783613  0.2077047455832713  0.3742664556356345  1.0000
  N   N2        1.0  0.5568384388734344  0.7922919991637655  0.6257363716828978  1.0000
  Cl  Cl1       1.0  0.20790960896859187  0.9210099196967718  0.3734583212291653  1.0000
  Cl  Cl2       1.0  0.792089622849538  0.0789885750829669  0.6265434909379763  1.0000
  O   O1        1.0  0.5278570954589981  0.3517280650741482  0.24238197090290473  1.0000
  O   O2        1.0  0.47213374657160034  0.6482713324194478  0.7576193733024751  1.0000
