data_image0
_chemical_formula_structural       Cu24H120C120Br24N72
_chemical_formula_sum              "Cu24 H120 C120 Br24 N72"
_cell_length_a       19.4402871555411
_cell_length_b       19.440187366732783
_cell_length_c       19.44008247180627
_cell_angle_alpha    109.471364773946
_cell_angle_beta     109.47124721844078
_cell_angle_gamma    109.47158959338226

_space_group_name_H-M_alt    "P 1"
_space_group_IT_number       1

loop_
  _space_group_symop_operation_xyz
  'x, y, z'

loop_
  _atom_site_type_symbol
  _atom_site_label
  _atom_site_symmetry_multiplicity
  _atom_site_fract_x
  _atom_site_fract_y
  _atom_site_fract_z
  _atom_site_occupancy
  Cu  Cu1       1.0  0.6183178967872679  0.78719352044444  0.23291918216580132  1.0000
  Cu  Cu2       1.0  0.9457278718919472  0.7128094821760773  0.8311270124946049  1.0000
  Cu  Cu3       1.0  0.5542623455581009  0.8853896883450434  0.26706481826347067  1.0000
  Cu  Cu4       1.0  0.8816816245035071  0.6146021827716411  0.6688743746496468  1.0000
  Cu  Cu5       1.0  0.21279892432151823  0.8311255380490153  0.4457373224382763  1.0000
  Cu  Cu6       1.0  0.28720733247764935  0.23294733590131497  0.11832958441316777  1.0000
  Cu  Cu7       1.0  0.1145993226742236  0.6688695182045878  0.38167863264848023  1.0000
  Cu  Cu8       1.0  0.3854074845422702  0.2670827905456792  0.05427791453362834  1.0000
  Cu  Cu9       1.0  0.16887611431054939  0.3816765999790447  0.614605196232766  1.0000
  Cu  Cu10      1.0  0.7670734626764144  0.054263919929049005  0.8853903354349624  1.0000
  Cu  Cu11      1.0  0.33112569817605236  0.4457271155694331  0.7128040108031044  1.0000
  Cu  Cu12      1.0  0.7329111680660108  0.11831408460591328  0.787182360628563  1.0000
  Cu  Cu13      1.0  0.8311257356253777  0.21280689702230404  0.9457285118984229  1.0000
  Cu  Cu14      1.0  0.23292237789885206  0.2871850163244645  0.6183203182570338  1.0000
  Cu  Cu15      1.0  0.6688750648681251  0.11460538443401447  0.8816831794575035  1.0000
  Cu  Cu16      1.0  0.2670750836198081  0.38539057102254765  0.554264333307529  1.0000
  Cu  Cu17      1.0  0.3816945843744506  0.16888654766887615  0.1146261249731211  1.0000
  Cu  Cu18      1.0  0.05426512746764447  0.7670706380146373  0.38539533688649646  1.0000
  Cu  Cu19      1.0  0.4457322167314289  0.3311350560994769  0.21281249013654957  1.0000
  Cu  Cu20      1.0  0.11831323495687221  0.7329326004924255  0.2871946568157142  1.0000
  Cu  Cu21      1.0  0.7871896822979919  0.618306570771452  0.732920149768077  1.0000
  Cu  Cu22      1.0  0.7128056003513026  0.9457301020924266  0.3311118159992006  1.0000
  Cu  Cu23      1.0  0.8853919947429888  0.5542576817030496  0.7670780242626237  1.0000
  Cu  Cu24      1.0  0.6146034515963593  0.8816807193277543  0.16885562631811266  1.0000
  H   H1        1.0  0.5180830745256629  0.720367482129902  0.3053624113261648  1.0000
  H   H2        1.0  0.08499023206645981  0.7796245438990966  0.7977160910172713  1.0000
  H   H3        1.0  0.41500212321646773  0.7127190390520612  0.19462893238969056  1.0000
  H   H4        1.0  0.9819142990190528  0.7872816358823799  0.7022834062355514  1.0000
  H   H5        1.0  0.27962874054259146  0.7977141748590384  0.5849954552097714  1.0000
  H   H6        1.0  0.22036622987414495  0.3053685158788967  0.018086339890821517  1.0000
  H   H7        1.0  0.2872762660914319  0.7022825314756035  0.4819170666998289  1.0000
  H   H8        1.0  0.212730133390629  0.19463837165477577  0.9150154869615647  1.0000
  H   H9        1.0  0.2022818637423215  0.4819160760947058  0.7872743114802248  1.0000
  H   H10       1.0  0.6946385271424802  0.9150046959407447  0.7127201993972393  1.0000
  H   H11       1.0  0.2977184914915154  0.5849911334681792  0.7796301846826735  1.0000
  H   H12       1.0  0.8053567861976774  0.018083925183425775  0.7203620882658227  1.0000
  H   H13       1.0  0.7977154395867601  0.27962681429474406  0.08498994386569331  1.0000
  H   H14       1.0  0.30536115237673306  0.2203696406112742  0.5180891615708275  1.0000
  H   H15       1.0  0.7022838368092367  0.2872779990045445  0.9819148979983082  1.0000
  H   H16       1.0  0.19463615145331659  0.21272288787591984  0.4150107021351984  1.0000
  H   H17       1.0  0.48191800732303863  0.20228337861211554  0.2872847720163493  1.0000
  H   H18       1.0  0.9150029326322837  0.6946329309811219  0.21271946336992897  1.0000
  H   H19       1.0  0.5849872639601231  0.29771914590543963  0.2796253548493651  1.0000
  H   H20       1.0  0.01808149240859784  0.8053615924247381  0.22036647822834968  1.0000
  H   H21       1.0  0.7203763696075998  0.5180901527121621  0.8053693133696811  1.0000
  H   H22       1.0  0.7796188285278661  0.08499163359734768  0.297710850761689  1.0000
  H   H23       1.0  0.7127260878079157  0.4150108771451217  0.694636296760862  1.0000
  H   H24       1.0  0.7872784976051792  0.9819168198034024  0.2022885867142819  1.0000
  H   H25       1.0  0.6476391539813663  0.5466367184969202  0.26781402978684804  1.0000
  H   H26       1.0  0.22118633287492875  0.9533738369218626  0.10100979437634561  1.0000
  H   H27       1.0  0.27881576440612593  0.8798258476362906  0.23218472533762488  1.0000
  H   H28       1.0  0.8523607086699628  0.6201740137098145  0.3989962759716761  1.0000
  H   H29       1.0  0.453367401477557  0.1010035771358133  0.721179643198603  1.0000
  H   H30       1.0  0.04663352530823768  0.2678140355733589  0.14763881996879746  1.0000
  H   H31       1.0  0.12017423576313753  0.39898903492720456  0.35235904388997596  1.0000
  H   H32       1.0  0.37982130450600954  0.23218022808275413  0.7788148135554777  1.0000
  H   H33       1.0  0.8989954855195637  0.35236306447268384  0.6201724793867882  1.0000
  H   H34       1.0  0.7321876069152394  0.7788185050557885  0.8798266627012551  1.0000
  H   H35       1.0  0.6010056798649829  0.7211804158301122  0.9533634525303325  1.0000
  H   H36       1.0  0.7678175279506404  0.1476403398035232  0.5466300268022264  1.0000
  H   H37       1.0  0.10100596430103793  0.4533654131828727  0.22118170502999854  1.0000
  H   H38       1.0  0.26781523220029163  0.0466324578058419  0.6476406394281539  1.0000
  H   H39       1.0  0.39899462989836126  0.12017437279558875  0.8523634476317666  1.0000
  H   H40       1.0  0.23218634195243473  0.3798241132288567  0.2788206670659931  1.0000
  H   H41       1.0  0.35236078370211044  0.8989944296171191  0.12017320318724972  1.0000
  H   H42       1.0  0.7788126884931189  0.7321840506594344  0.3798250211473047  1.0000
  H   H43       1.0  0.7211895746957995  0.6010115176476634  0.45337114121984  1.0000
  H   H44       1.0  0.14764203123429812  0.7678203870098984  0.046637003110987583  1.0000
  H   H45       1.0  0.546632933626796  0.6476381177316383  0.767815357352873  1.0000
  H   H46       1.0  0.9533676179433925  0.22118539291949457  0.601006516951628  1.0000
  H   H47       1.0  0.8798259159448351  0.2788186986055692  0.7321803250911144  1.0000
  H   H48       1.0  0.6201766346128893  0.8523594378048148  0.8989912119211212  1.0000
  H   H49       1.0  0.46049671856442137  0.43936544294437146  0.35128191290480254  1.0000
  H   H50       1.0  0.41191419098189647  0.06063525306220904  0.02112170895632911  1.0000
  H   H51       1.0  0.08808716637744135  0.6092060533802696  0.14872020829774604  1.0000
  H   H52       1.0  0.03950557583493722  0.890783190982589  0.4788702037651192  1.0000
  H   H53       1.0  0.5606346965845005  0.021122597074715116  0.9119130261233291  1.0000
  H   H54       1.0  0.9393691918587381  0.35128000039256346  0.9604910661247246  1.0000
  H   H55       1.0  0.3907898176317844  0.4788823685241896  0.539510710781407  1.0000
  H   H56       1.0  0.10921443957279554  0.1487197164400698  0.5880872500761923  1.0000
  H   H57       1.0  0.9788742333079483  0.539507688451437  0.8907855826653943  1.0000
  H   H58       1.0  0.6487231368736416  0.5880869119492899  0.6092134601651579  1.0000
  H   H59       1.0  0.5211272054380771  0.9119114596589458  0.060632432953170265  1.0000
  H   H60       1.0  0.8512795818056487  0.960493152271205  0.43936601849331675  1.0000
  H   H61       1.0  0.021123258139532208  0.5606322125943777  0.4119134561796898  1.0000
  H   H62       1.0  0.3512764878131166  0.9393675163864261  0.46048626315906915  1.0000
  H   H63       1.0  0.4788760923617943  0.3907867641565802  0.03950714467206499  1.0000
  H   H64       1.0  0.1487236029006951  0.1092086867417592  0.0880876843702723  1.0000
  H   H65       1.0  0.5395037222135104  0.9788750244321636  0.39078590728901474  1.0000
  H   H66       1.0  0.5880836232936346  0.648723012310093  0.10920763990162634  1.0000
  H   H67       1.0  0.9119154234463951  0.521129816708694  0.5606417155014896  1.0000
  H   H68       1.0  0.9604999214691645  0.8512843819421579  0.9393707376025304  1.0000
  H   H69       1.0  0.4393641361717827  0.4604898194060711  0.8512814576326592  1.0000
  H   H70       1.0  0.06063585960690427  0.4119194675948918  0.5211236888282968  1.0000
  H   H71       1.0  0.6092109650834701  0.0880865223916204  0.6487181678312481  1.0000
  H   H72       1.0  0.8907915817032191  0.03951272001482692  0.9788789519389878  1.0000
  H   H73       1.0  0.5254496591980526  0.5421561140073196  0.4436100770431323  1.0000
  H   H74       1.0  0.40144884027669286  0.9578512853875908  0.9832918220370317  1.0000
  H   H75       1.0  0.09855008532338158  0.5818397857689633  0.05639951854340103  1.0000
  H   H76       1.0  0.9745514716479348  0.9181552133805087  0.5167048920019114  1.0000
  H   H77       1.0  0.45784915579610447  0.9832861254966688  0.901449824999645  1.0000
  H   H78       1.0  0.04215548528502923  0.4435998695109761  0.02544518198909176  1.0000
  H   H79       1.0  0.41815475628013116  0.5167096467305683  0.4745567293646217  1.0000
  H   H80       1.0  0.08183892434268349  0.05639545390611277  0.5985488375712577  1.0000
  H   H81       1.0  0.016706040762095174  0.4745541789331399  0.9181556400314291  1.0000
  H   H82       1.0  0.556401189133652  0.5985502078647756  0.5818447456225754  1.0000
  H   H83       1.0  0.48329404751714133  0.9014478058654236  0.957846488494404  1.0000
  H   H84       1.0  0.9435997390690432  0.025447725908712464  0.5421489924158036  1.0000
  H   H85       1.0  0.9832890207903092  0.457847645209114  0.4014481066858904  1.0000
  H   H86       1.0  0.4435975040509278  0.04215081311951969  0.5254444453110166  1.0000
  H   H87       1.0  0.5167097432416057  0.4181579979430766  0.9745578177360129  1.0000
  H   H88       1.0  0.056401420879829814  0.08184262424960313  0.098553031555241  1.0000
  H   H89       1.0  0.4745522869480112  0.016705747452007796  0.4181528427448525  1.0000
  H   H90       1.0  0.5985509316521558  0.5564034766070806  0.08184326894085096  1.0000
  H   H91       1.0  0.9014491085876629  0.48329432178417175  0.45785407581931287  1.0000
  H   H92       1.0  0.02545007855266584  0.9436062114522202  0.042157499169270876  1.0000
  H   H93       1.0  0.5421521071865173  0.5254419999652743  0.943602105680874  1.0000
  H   H94       1.0  0.9578490610076927  0.40145073006669935  0.48328887490400524  1.0000
  H   H95       1.0  0.5818446970970471  0.09855387866728202  0.5563978441627881  1.0000
  H   H96       1.0  0.91815765866707  0.9745596849261986  0.016711042230817007  1.0000
  H   H97       1.0  0.4508874102011617  0.5269516974802997  0.34798098468282024  1.0000
  H   H98       1.0  0.32102752061649675  0.9730520312583909  0.9239340730265583  1.0000
  H   H99       1.0  0.17897269458218562  0.6029102111197775  0.15202438417907166  1.0000
  H   H100      1.0  0.04911188025713628  0.8970888950492723  0.5760640799930243  1.0000
  H   H101      1.0  0.4730529165138862  0.9239327977628948  0.8210245356828664  1.0000
  H   H102      1.0  0.026948310871453846  0.3479737309565962  0.9508838624901585  1.0000
  H   H103      1.0  0.3970889733709555  0.5760669260880249  0.5491148854293684  1.0000
  H   H104      1.0  0.10290790067965357  0.15202453588054243  0.6789745238092804  1.0000
  H   H105      1.0  0.07606495810990317  0.5491167257555177  0.8970898444508606  1.0000
  H   H106      1.0  0.6520274726968794  0.6789735544198836  0.6029110992557989  1.0000
  H   H107      1.0  0.4239386475252333  0.8210253418740411  0.9730509300553223  1.0000
  H   H108      1.0  0.8479771251546283  0.9508875487580115  0.5269478812246716  1.0000
  H   H109      1.0  0.9239352914303964  0.4730479861579726  0.321025392241971  1.0000
  H   H110      1.0  0.3479755944443285  0.026951581164482374  0.4508861274714562  1.0000
  H   H111      1.0  0.5760645006115938  0.3970906551864887  0.04911558462578824  1.0000
  H   H112      1.0  0.15202458896833806  0.10290843920196838  0.1789751506305421  1.0000
  H   H113      1.0  0.5491101489754371  0.07606326182506248  0.3970862723179847  1.0000
  H   H114      1.0  0.6789701940615488  0.6520281891837956  0.10290670836077702  1.0000
  H   H115      1.0  0.8210312909141989  0.4239390455591376  0.4730624191990883  1.0000
  H   H116      1.0  0.9508917525867276  0.847980514375813  0.026954497737747784  1.0000
  H   H117      1.0  0.5269427404270816  0.4508801340531577  0.8479748872071936  1.0000
  H   H118      1.0  0.9730559820770497  0.3210351724151225  0.42393491139872447  1.0000
  H   H119      1.0  0.602910880960323  0.17897506024596765  0.6520233562053546  1.0000
  H   H120      1.0  0.8970907512466512  0.049115432414588336  0.07606839391749529  1.0000
  C   C1        1.0  0.5468438738612492  0.6809026820646908  0.2972531144565663  1.0000
  C   C2        1.0  0.11635159357357575  0.8190939355996036  0.8659413875251473  1.0000
  C   C3        1.0  0.3836467149124587  0.7495854596352205  0.20273989502015877  1.0000
  C   C4        1.0  0.9531582793674149  0.7504156864903779  0.6340637962505796  1.0000
  C   C5        1.0  0.3190923310636364  0.8659372415811647  0.6163522907266241  1.0000
  C   C6        1.0  0.18090471868193705  0.29725733977066693  0.0468409525862583  1.0000
  C   C7        1.0  0.2504100819209967  0.6340637717140964  0.4531590887966458  1.0000
  C   C8        1.0  0.2495936174267329  0.2027471400081425  0.883656108602345  1.0000
  C   C9        1.0  0.13406353866871254  0.45315883165577725  0.7504115027108681  1.0000
  C   C10       1.0  0.7027456872403167  0.8836491055175703  0.7495871485849577  1.0000
  C   C11       1.0  0.3659372945266669  0.6163482467339777  0.8190933354229202  1.0000
  C   C12       1.0  0.7972514316318428  0.046839410256758765  0.6809050958642473  1.0000
  C   C13       1.0  0.8659368856623716  0.31909092146898393  0.11634966488843904  1.0000
  C   C14       1.0  0.297254110709261  0.1809011086610965  0.546845237806913  1.0000
  C   C15       1.0  0.6340595374420918  0.2504135794289583  0.9531559451083566  1.0000
  C   C16       1.0  0.20274484550437671  0.24958864131512828  0.38364734702812336  1.0000
  C   C17       1.0  0.4531625054313865  0.13406965754307287  0.2504215421660447  1.0000
  C   C18       1.0  0.8836472015389704  0.7027419392117769  0.24958649580044326  1.0000
  C   C19       1.0  0.6163493657669221  0.36594195745006186  0.3190966132932686  1.0000
  C   C20       1.0  0.046840712250229934  0.7972529523443229  0.18090119086867426  1.0000
  C   C21       1.0  0.6809079234910271  0.5468460821966802  0.79726082579387  1.0000
  C   C22       1.0  0.8190897391342987  0.11634986989454191  0.36593429912602454  1.0000
  C   C23       1.0  0.7495902428828244  0.3836512961580211  0.7027444290611838  1.0000
  C   C24       1.0  0.7504117727935764  0.9531583497462678  0.13406022475572163  1.0000
  C   C25       1.0  0.5714804797643395  0.5808862737807702  0.31912159751405506  1.0000
  C   C26       1.0  0.23823824849508662  0.919119079940721  0.9905938432679304  1.0000
  C   C27       1.0  0.2617626672289859  0.7523573022598528  0.18088017754547533  1.0000
  C   C28       1.0  0.9285225815006302  0.7476461831006707  0.5094049597669326  1.0000
  C   C29       1.0  0.4191169115880199  0.9905914268135092  0.7382387837562304  1.0000
  C   C30       1.0  0.08088184386187443  0.3191214227575046  0.071474007976299  1.0000
  C   C31       1.0  0.24764210303711565  0.5094041714113332  0.4285227564087961  1.0000
  C   C32       1.0  0.2523544951181265  0.18087740659914436  0.7617646620811626  1.0000
  C   C33       1.0  0.00940680720904658  0.42852364577358776  0.7476418600858565  1.0000
  C   C34       1.0  0.6808812798026124  0.7617617990392348  0.7523576670773408  1.0000
  C   C35       1.0  0.4905944900162779  0.7382405532304901  0.9191157834947317  1.0000
  C   C36       1.0  0.8191225332530082  0.0714761243051854  0.5808804310830665  1.0000
  C   C37       1.0  0.9905926016919508  0.419113735193676  0.2382383626939698  1.0000
  C   C38       1.0  0.319117177121811  0.08087940261433606  0.5714741534370517  1.0000
  C   C39       1.0  0.5094076698965041  0.24764686074306771  0.928522323411002  1.0000
  C   C40       1.0  0.1808825920113435  0.25235576369753693  0.2617664416934531  1.0000
  C   C41       1.0  0.4285234686921271  0.009406470891384772  0.24764840770033192  1.0000
  C   C42       1.0  0.7617569170822379  0.680878231247718  0.25235148581580086  1.0000
  C   C43       1.0  0.7382397489876386  0.4905938438887748  0.41911870307096427  1.0000
  C   C44       1.0  0.0714808127406813  0.8191253430174401  0.08088870047114238  1.0000
  C   C45       1.0  0.5808868086800774  0.5714751157126944  0.819124095859827  1.0000
  C   C46       1.0  0.9191133325380961  0.23823609746728636  0.4905850955379804  1.0000
  C   C47       1.0  0.7523562102030965  0.2617649512780034  0.680876425243923  1.0000
  C   C48       1.0  0.7476444640783699  0.9285236407024586  0.0094080150661426  1.0000
  C   C49       1.0  0.6204078140200409  0.5869323001371926  0.27912327614749444  1.0000
  C   C50       1.0  0.19219353673233305  0.9130738492603073  0.03348256462311398  1.0000
  C   C51       1.0  0.3078062982344181  0.841286933411148  0.22087656899078212  1.0000
  C   C52       1.0  0.8795872156981872  0.6587077187244219  0.46652060770752235  1.0000
  C   C53       1.0  0.41306530548390447  0.033472284563544  0.6921871948007092  1.0000
  C   C54       1.0  0.08693581296287076  0.2791190447486827  0.1204082833173317  1.0000
  C   C55       1.0  0.15871254829251322  0.46652685724108534  0.3795933456191634  1.0000
  C   C56       1.0  0.3412824925177276  0.22087468139543634  0.8078101583045906  1.0000
  C   C57       1.0  0.9665242047767889  0.37959406258835326  0.6587110324421843  1.0000
  C   C58       1.0  0.7208798319082986  0.807810765325762  0.8412891281818986  1.0000
  C   C59       1.0  0.5334813854735572  0.6921873151805756  0.9130670965142755  1.0000
  C   C60       1.0  0.7791204246653649  0.1204109886493329  0.5869342705157263  1.0000
  C   C61       1.0  0.03348089524740771  0.41306740480563064  0.19219098342593813  1.0000
  C   C62       1.0  0.2791186176901519  0.0869285126929213  0.6204131021613506  1.0000
  C   C63       1.0  0.46651829658860333  0.15870697143974166  0.8795885254232374  1.0000
  C   C64       1.0  0.2208777871695418  0.34128563643614035  0.3078066464881388  1.0000
  C   C65       1.0  0.3795910723330069  0.9665277766959337  0.15870966653476168  1.0000
  C   C66       1.0  0.8078121578153984  0.7208764756110427  0.3412859647753805  1.0000
  C   C67       1.0  0.6921889095150108  0.5334749572342761  0.4130650894945375  1.0000
  C   C68       1.0  0.12041090484346754  0.7791234717572949  0.08693532320402407  1.0000
  C   C69       1.0  0.5869333881924061  0.6204097170212749  0.779124529790941  1.0000
  C   C70       1.0  0.9130684495447454  0.19219301475271797  0.5334754765558569  1.0000
  C   C71       1.0  0.8412871422910584  0.3078106637847073  0.72087366109006  1.0000
  C   C72       1.0  0.6587129420433868  0.8795902214629907  0.9665174108051175  1.0000
  C   C73       1.0  0.6299519472619934  0.6441965639093754  0.25119172489892355  1.0000
  C   C74       1.0  0.1070033044759243  0.8558083369677619  0.98576116855984  1.0000
  C   C75       1.0  0.3929966707572632  0.8787543084849859  0.24880056040355927  1.0000
  C   C76       1.0  0.8700481080560607  0.6212431632861098  0.5142451914160019  1.0000
  C   C77       1.0  0.35579854727858884  0.9857545137008616  0.6069992653491598  1.0000
  C   C78       1.0  0.14419853324037038  0.25119765677219874  0.12995381817397336  1.0000
  C   C79       1.0  0.12124182824442903  0.5142401729706948  0.3700469462528488  1.0000
  C   C80       1.0  0.3787601749089333  0.2488039241838109  0.8930007830989053  1.0000
  C   C81       1.0  0.014244420277414342  0.37004722475023755  0.6212395476510579  1.0000
  C   C82       1.0  0.7488050250979867  0.8930018319921019  0.8787587085506842  1.0000
  C   C83       1.0  0.4857545613771992  0.6069950355586544  0.8558004054723796  1.0000
  C   C84       1.0  0.7511960433107205  0.12995485985521088  0.6441929648489477  1.0000
  C   C85       1.0  0.9857563832424036  0.355800676506533  0.10699944966346923  1.0000
  C   C86       1.0  0.2511954624767795  0.14419566185735977  0.6299567543828244  1.0000
  C   C87       1.0  0.5142441135987568  0.12124052154990038  0.8700477236192368  1.0000
  C   C88       1.0  0.24880191655383754  0.378757367496391  0.3930025965685502  1.0000
  C   C89       1.0  0.37004849445808213  0.014246310324651363  0.12124375181931406  1.0000
  C   C90       1.0  0.892995738457586  0.748799452492563  0.378756476323808  1.0000
  C   C91       1.0  0.6070049843730274  0.48576514313580804  0.35580868477644856  1.0000
  C   C92       1.0  0.1299526609727621  0.7511958038556515  0.14420080550150524  1.0000
  C   C93       1.0  0.6441992460570634  0.6299545593530171  0.7511993125072466  1.0000
  C   C94       1.0  0.8558012636136356  0.10700179812091914  0.48575464966901194  1.0000
  C   C95       1.0  0.8787587031001183  0.3929997431966189  0.7488015548994439  1.0000
  C   C96       1.0  0.621242551028736  0.8700471727970014  0.014241414139945712  1.0000
  C   C97       1.0  0.4947910661713378  0.5073030636849296  0.37449626843456224  1.0000
  C   C98       1.0  0.367193914270196  0.992704611701001  0.9874820713323302  1.0000
  C   C99       1.0  0.13280398992766607  0.6202868744971967  0.12550757003732824  1.0000
  C   C100      1.0  0.005209947409198743  0.8797007671191537  0.5125102855753951  1.0000
  C   C101      1.0  0.49270150903232235  0.9874792722688641  0.8671930884619882  1.0000
  C   C102      1.0  0.0072993639764717825  0.3744920785976831  0.994779861509464  1.0000
  C   C103      1.0  0.37970898347922594  0.5125191472533501  0.5052175740442022  1.0000
  C   C104      1.0  0.12029235686564732  0.1255071944533483  0.6328080991061711  1.0000
  C   C105      1.0  0.012513106252171691  0.5052142519000498  0.879704097022902  1.0000
  C   C106      1.0  0.6255105894193066  0.6328069929587415  0.6202938698081367  1.0000
  C   C107      1.0  0.48748639526284887  0.8671936111128817  0.9927012831937175  1.0000
  C   C108      1.0  0.874492870468771  0.9947849627782832  0.5072967534817677  1.0000
  C   C109      1.0  0.9874832466903813  0.49269966188931874  0.3671904755182497  1.0000
  C   C110      1.0  0.3744897454645653  0.007299688780285944  0.4947810009273254  1.0000
  C   C111      1.0  0.5125173014644986  0.3797102650568932  0.005218645482315635  1.0000
  C   C112      1.0  0.1255104229519546  0.12028915709519343  0.13280819432870317  1.0000
  C   C113      1.0  0.5052151786991602  0.012515520548632324  0.37970808077481877  1.0000
  C   C114      1.0  0.6327990817272847  0.6255070276486592  0.12028222434560827  1.0000
  C   C115      1.0  0.8671971311809231  0.48748333984408293  0.4927086408772539  1.0000
  C   C116      1.0  0.9947885063847794  0.874495964345414  0.007303536863659837  1.0000
  C   C117      1.0  0.507296293722348  0.49477770808042026  0.8744938630369389  1.0000
  C   C118      1.0  0.992704261839407  0.3671995679407801  0.4874796091974785  1.0000
  C   C119      1.0  0.6202903266134427  0.13280734345632786  0.6255060612409975  1.0000
  C   C120      1.0  0.879710679320823  0.005221126426270948  0.012519318415804897  1.0000
  Br  Br1       1.0  0.7631603878057903  0.8619231360784457  0.26060974191278063  1.0000
  Br  Br2       1.0  0.8987017030905305  0.6380879579168663  0.9012291171141696  1.0000
  Br  Br3       1.0  0.6012983101915169  0.0025247504025714  0.23938269967260334  1.0000
  Br  Br4       1.0  0.7368427244674862  0.4974505207449128  0.5987615976287799  1.0000
  Br  Br5       1.0  0.1380673732113707  0.9012211205033441  0.398690876489269  1.0000
  Br  Br6       1.0  0.3619242695174806  0.26061795820704964  0.2631502764481723  1.0000
  Br  Br7       1.0  0.997469074136653  0.5987680996430244  0.23685540411192108  1.0000
  Br  Br8       1.0  0.5025317298834437  0.2393841570977386  0.10129802790255121  1.0000
  Br  Br9       1.0  0.09877792252929404  0.2368534146389508  0.4974709691908926  1.0000
  Br  Br10      1.0  0.7393834428835221  0.10130032650590706  0.0025244470622354668  1.0000
  Br  Br11      1.0  0.40122500856480064  0.3986941974424313  0.6380765277282947  1.0000
  Br  Br12      1.0  0.7606193414023326  0.26314530826442734  0.8619200048372659  1.0000
  Br  Br13      1.0  0.9012246603376682  0.13807994770873255  0.8986999577747027  1.0000
  Br  Br14      1.0  0.2606145666533237  0.36192067845853876  0.7631445199019921  1.0000
  Br  Br15      1.0  0.5987746207905645  0.9974641422814873  0.7368601198100322  1.0000
  Br  Br16      1.0  0.23938426214756697  0.5025242082792333  0.6013031354256241  1.0000
  Br  Br17      1.0  0.23686642287859905  0.09878916338127669  0.9974855685293775  1.0000
  Br  Br18      1.0  0.10129771198347735  0.7393841434833706  0.502531806094332  1.0000
  Br  Br19      1.0  0.3986967186398118  0.40123482438686864  0.13808164172231585  1.0000
  Br  Br20      1.0  0.2631438613239183  0.7606206723384902  0.36192916634676914  1.0000
  Br  Br21      1.0  0.8619142714043664  0.7631457615027704  0.7606083289675355  1.0000
  Br  Br22      1.0  0.638081806862502  0.898692055835632  0.4012246943887305  1.0000
  Br  Br23      1.0  0.002530379319253649  0.6012968692858324  0.7393960617329114  1.0000
  Br  Br24      1.0  0.4974652976614068  0.7368600407523406  0.09876541911080503  1.0000
  N   N1        1.0  0.5944676285543551  0.6936398662076827  0.2606791277240673  1.0000
  N   N2        1.0  0.06704651789260646  0.80636132304992  0.900835672325833  1.0000
  N   N3        1.0  0.43294745317617606  0.8337787135463303  0.23930793791531374  1.0000
  N   N4        1.0  0.9055280147702193  0.6662076437056188  0.5991687421910115  1.0000
  N   N5        1.0  0.30635400481418157  0.9008321831501789  0.5670463405700588  1.0000
  N   N6        1.0  0.19364016663264041  0.26068749292334564  0.09447433173808409  1.0000
  N   N7        1.0  0.16621028767861648  0.5991651239475644  0.4055305125580944  1.0000
  N   N8        1.0  0.33379327817688415  0.23931831127626427  0.9329611062992809  1.0000
  N   N9        1.0  0.09916959436071682  0.4055301286456228  0.6662127659112044  1.0000
  N   N10       1.0  0.739315261906043  0.9329540627522735  0.8337873730452827  1.0000
  N   N11       1.0  0.40083429556352  0.5670440212162405  0.8063597108449726  1.0000
  N   N12       1.0  0.7606801389975931  0.09447313032253424  0.6936347749014048  1.0000
  N   N13       1.0  0.9008326754684077  0.30635460405243736  0.06704486910339823  1.0000
  N   N14       1.0  0.2606852814173947  0.19363830909627208  0.5944780841990321  1.0000
  N   N15       1.0  0.5991661086730319  0.16621312261569454  0.9055282912384186  1.0000
  N   N16       1.0  0.2393116201458413  0.3337834814762034  0.4329529207330864  1.0000
  N   N17       1.0  0.40553187154851145  0.09917027334073235  0.16621686500154445  1.0000
  N   N18       1.0  0.9329504643311922  0.7393101661832946  0.33379072779882096  1.0000
  N   N19       1.0  0.5670441453665804  0.40084179166212425  0.306363428026863  1.0000
  N   N20       1.0  0.09446553249844669  0.7606821741718123  0.19363697790687703  1.0000
  N   N21       1.0  0.6936404820459856  0.5944731667634359  0.7606881747919302  1.0000
  N   N22       1.0  0.8063606141304194  0.06705041186059923  0.40083170812467733  1.0000
  N   N23       1.0  0.8337897262798677  0.4329552685862765  0.7393168570321575  1.0000
  N   N24       1.0  0.6662168342713882  0.9055322091728044  0.09916812040330573  1.0000
  N   N25       1.0  0.5338779879940317  0.6280765898498472  0.32653417459863465  1.0000
  N   N26       1.0  0.19844948031328605  0.8719216121501105  0.9058017407267939  1.0000
  N   N27       1.0  0.30154566583539827  0.7073487450472129  0.1734679593837996  1.0000
  N   N28       1.0  0.9661198565174588  0.7926553157642291  0.5941988341304381  1.0000
  N   N29       1.0  0.3719212672610795  0.9057986577285749  0.6984520900946193  1.0000
  N   N30       1.0  0.12807573485307702  0.3265285850060594  0.033878958864057986  1.0000
  N   N31       1.0  0.29264996984296227  0.5941977993250447  0.4661198646651599  1.0000
  N   N32       1.0  0.20735004044801286  0.17346978431089607  0.8015503253986791  1.0000
  N   N33       1.0  0.09419790151456203  0.4661222093770618  0.7926505116699117  1.0000
  N   N34       1.0  0.6734725783225528  0.8015453448951321  0.7073473470218516  1.0000
  N   N35       1.0  0.40580318991594316  0.6984481146634139  0.8719199795927536  1.0000
  N   N36       1.0  0.8265284351914346  0.03387777806382536  0.6280726087228031  1.0000
  N   N37       1.0  0.9058013296023192  0.3719200564395707  0.1984499124467689  1.0000
  N   N38       1.0  0.3265258647884933  0.12807397514039562  0.5338756162492756  1.0000
  N   N39       1.0  0.5941997073317682  0.29265078568209213  0.9661185290288542  1.0000
  N   N40       1.0  0.17347259927824868  0.2073472552536586  0.3015491071482543  1.0000
  N   N41       1.0  0.4661190337330794  0.09419539515079127  0.29265202362883963  1.0000
  N   N42       1.0  0.8015428979256073  0.6734705695093838  0.20734480887089293  1.0000
  N   N43       1.0  0.6984551651359682  0.4058013871606719  0.3719265046732615  1.0000
  N   N44       1.0  0.03388245485865592  0.8265307313619206  0.12808035903521653  1.0000
  N   N45       1.0  0.6280818612508058  0.5338811080787951  0.8265350368026462  1.0000
  N   N46       1.0  0.8719162812221555  0.19845055288202937  0.4057958620162692  1.0000
  N   N47       1.0  0.7073485433452477  0.30154570661245134  0.6734663210638914  1.0000
  N   N48       1.0  0.7926508867116268  0.9661223446427201  0.09420129110013431  1.0000
  N   N49       1.0  0.5577309034309934  0.5254186164795343  0.34803930993682997  1.0000
  N   N50       1.0  0.3226213347609956  0.974591494146985  0.03231201392019761  1.0000
  N   N51       1.0  0.1773797950015564  0.7096922403496182  0.15197125490669816  1.0000
  N   N52       1.0  0.9422683398360905  0.7903008088696598  0.4676849176537915  1.0000
  N   N53       1.0  0.47458677687203726  0.03231019439697042  0.8226207059948932  1.0000
  N   N54       1.0  0.025416324721291503  0.34803297128677  0.0577259018094765  1.0000
  N   N55       1.0  0.29030522592802305  0.4676896435115341  0.44227456092890793  1.0000
  N   N56       1.0  0.20969287830020283  0.15196384529572535  0.67738441228839  1.0000
  N   N57       1.0  0.9676868881764734  0.4422708418774663  0.7903015289643064  1.0000
  N   N58       1.0  0.6519685174518699  0.6773818230522721  0.7096957196837507  1.0000
  N   N59       1.0  0.5323138736940507  0.8226166348390154  0.9745812563279727  1.0000
  N   N60       1.0  0.8480337253348083  0.05773098981763543  0.5254163612847833  1.0000
  N   N61       1.0  0.03231053502119614  0.47458106347059476  0.3226171872140853  1.0000
  N   N62       1.0  0.34802715925001604  0.025410519213622435  0.5577240627678037  1.0000
  N   N63       1.0  0.4676890699409596  0.2903059132148228  0.9422706670626225  1.0000
  N   N64       1.0  0.1519702971758647  0.2096906041531952  0.17737858488288077  1.0000
  N   N65       1.0  0.44227043197904686  0.9676884454160943  0.2903029788655758  1.0000
  N   N66       1.0  0.6773822940973632  0.6519693309284664  0.20969055624649277  1.0000
  N   N67       1.0  0.8226204526123129  0.5323104783448331  0.47458808342424413  1.0000
  N   N68       1.0  0.057733784949817867  0.8480421257428363  0.02542132581235998  1.0000
  N   N69       1.0  0.5254129046947753  0.5577220769082061  0.8480318055220408  1.0000
  N   N70       1.0  0.9745872204600092  0.32261997548395993  0.5323046775359045  1.0000
  N   N71       1.0  0.7096909031740425  0.17738102844973747  0.6519638188556341  1.0000
  N   N72       1.0  0.7903096661062391  0.9422755285323561  0.9676892955025023  1.0000
