data_image0
_chemical_formula_structural       U2H10C12N2O10
_chemical_formula_sum              "U2 H10 C12 N2 O10"
_cell_length_a       6.328383516845031
_cell_length_b       7.869802442936933
_cell_length_c       8.358048910441296
_cell_angle_alpha    79.42165790833994
_cell_angle_beta     86.82505127214765
_cell_angle_gamma    78.77931552750827

_space_group_name_H-M_alt    "P 1"
_space_group_IT_number       1

loop_
  _space_group_symop_operation_xyz
  'x, y, z'

loop_
  _atom_site_type_symbol
  _atom_site_label
  _atom_site_symmetry_multiplicity
  _atom_site_fract_x
  _atom_site_fract_y
  _atom_site_fract_z
  _atom_site_occupancy
  U   U1        1.0  0.0998632398240957  0.3651620532786879  0.2057111278237186  1.0000
  U   U2        1.0  0.9001261804584858  0.6348433406945304  0.7942900327624043  1.0000
  H   H1        1.0  0.3254662894403283  0.5589843152927543  0.9178858374715514  1.0000
  H   H2        1.0  0.6745251083368373  0.4410329309402314  0.08211679340662668  1.0000
  H   H3        1.0  0.01353840306397562  0.100415468436502  0.5876452685131777  1.0000
  H   H4        1.0  0.986464409738936  0.8995794163704786  0.4123668040659678  1.0000
  H   H5        1.0  0.7100911223617886  0.25249781034352736  0.6754093008160138  1.0000
  H   H6        1.0  0.28991577628081444  0.7475009855808776  0.324580413353999  1.0000
  H   H7        1.0  0.14847712431124901  0.04077573830060291  0.8699341986325559  1.0000
  H   H8        1.0  0.8515405921959386  0.9592165091053246  0.13007301347927577  1.0000
  H   H9        1.0  0.4967795078773492  0.13160819014598246  0.9184535461965876  1.0000
  H   H10       1.0  0.5032408911970734  0.8683866710446961  0.08154235016380085  1.0000
  C   C1        1.0  0.4729070867164467  0.23590300598442582  0.5075185951915272  1.0000
  C   C2        1.0  0.5270899037141349  0.7640971208412353  0.49248081349171685  1.0000
  C   C3        1.0  0.5947854243741871  0.2969843465666884  0.3568250379312586  1.0000
  C   C4        1.0  0.40521063126483636  0.7030131413453516  0.6431712707046342  1.0000
  C   C5        1.0  0.16889087087735533  0.12943464734167517  0.6113498870382511  1.0000
  C   C6        1.0  0.831112024577365  0.8705602247190213  0.3886550058315874  1.0000
  C   C7        1.0  0.5570572654894477  0.21362584219760083  0.6618910598158576  1.0000
  C   C8        1.0  0.44294355134103114  0.7863716446811467  0.33810388306129346  1.0000
  C   C9        1.0  0.2449736703797782  0.09733826196850259  0.7698461693497973  1.0000
  C   C10       1.0  0.7550400267526242  0.9026579244776941  0.23015571890881853  1.0000
  C   C11       1.0  0.438127692437739  0.14609473978821794  0.7958589531457175  1.0000
  C   C12       1.0  0.5618863629731621  0.8539001220720623  0.204138365353593  1.0000
  N   N1        1.0  0.2774284623478849  0.20077640665441268  0.4823505035052021  1.0000
  N   N2        1.0  0.7225690931113817  0.7992210943676029  0.5176529284598173  1.0000
  O   O1        1.0  0.12071414960926323  0.15483657564254116  0.13974534508855635  1.0000
  O   O2        1.0  0.879279023494178  0.8451806412128133  0.8602404767543983  1.0000
  O   O3        1.0  0.7913426879792097  0.3052175679724342  0.36851978638663496  1.0000
  O   O4        1.0  0.2086536065424625  0.6947654316179805  0.6314730357677261  1.0000
  O   O5        1.0  0.49449931130695285  0.3342029253032024  0.2219928815641835  1.0000
  O   O6        1.0  0.5054898608995301  0.6658037762608869  0.7780032758355089  1.0000
  O   O7        1.0  0.20039634310781912  0.5019041523247408  0.9544575167794132  1.0000
  O   O8        1.0  0.7995862052265893  0.4981170446037026  0.045547139095390286  1.0000
  O   O9        1.0  0.08916370321551172  0.5619146371876625  0.29121687151013  1.0000
  O   O10       1.0  0.9108232297656542  0.43808025247988513  0.7088005513436426  1.0000
