data_image0
_chemical_formula_structural       Dy2H46C60S8O18
_chemical_formula_sum              "Dy2 H46 C60 S8 O18"
_cell_length_a       9.045328074276684
_cell_length_b       11.429120865529406
_cell_length_c       15.621770201820103
_cell_angle_alpha    90.63097777504633
_cell_angle_beta     100.36343392055872
_cell_angle_gamma    109.04240294440639

_space_group_name_H-M_alt    "P 1"
_space_group_IT_number       1

loop_
  _space_group_symop_operation_xyz
  'x, y, z'

loop_
  _atom_site_type_symbol
  _atom_site_label
  _atom_site_symmetry_multiplicity
  _atom_site_fract_x
  _atom_site_fract_y
  _atom_site_fract_z
  _atom_site_occupancy
  Dy  Dy1       1.0  0.2018543793583092  0.4782760523043521  0.5062286556188625  1.0000
  Dy  Dy2       1.0  0.7981458968822609  0.521726628158028  0.49377022405742116  1.0000
  H   H1        1.0  0.5065211120066024  0.6461897553863807  0.4751809026116619  1.0000
  H   H2        1.0  0.49347910761827773  0.3538101378151027  0.524819222201323  1.0000
  H   H3        1.0  0.12356007033150719  0.9926953502875833  0.9921624057303762  1.0000
  H   H4        1.0  0.8764392329481437  0.007297113159616199  0.007839468972321113  1.0000
  H   H5        1.0  0.5198898191046125  0.7827269854516528  0.6104131066005536  1.0000
  H   H6        1.0  0.4801149591735196  0.21727569307732605  0.3895868651278037  1.0000
  H   H7        1.0  0.36916169653202496  0.8160281013798496  0.5352932601144715  1.0000
  H   H8        1.0  0.6308423629964964  0.18397550434206517  0.464707289415614  1.0000
  H   H9        1.0  0.5559805636738346  0.8835538456875724  0.4298263700980841  1.0000
  H   H10       1.0  0.444023013402095  0.11644604938825145  0.570172811470002  1.0000
  H   H11       1.0  0.7066902926362103  0.8475634780054618  0.50393906837472  1.0000
  H   H12       1.0  0.29331176951339444  0.15243548782195399  0.4960605914419248  1.0000
  H   H13       1.0  0.6406770053170802  0.9696094386118829  0.532932871821302  1.0000
  H   H14       1.0  0.35932657175884947  0.0303904564639481  0.4670663097467839  1.0000
  H   H15       1.0  0.216680047827154  0.2797000383041137  0.2844738006436388  1.0000
  H   H16       1.0  0.7833186926756781  0.7203017165364685  0.7155236347896193  1.0000
  H   H17       1.0  0.1681377641092041  0.19172958404896429  0.13012466185611524  1.0000
  H   H18       1.0  0.8318644043346382  0.808274957509127  0.869871866856599  1.0000
  H   H19       1.0  0.3429234250473102  0.3065780966572761  0.03003870271898991  1.0000
  H   H20       1.0  0.6570818009977372  0.6934282985621606  0.9699594328187191  1.0000
  H   H21       1.0  0.5591563476292195  0.5048097625308686  0.08252140401826583  1.0000
  H   H22       1.0  0.4408493042527367  0.4951975560737551  0.9174793446181583  1.0000
  H   H23       1.0  0.826211195958308  0.5098709503545251  0.20800166252667654  1.0000
  H   H24       1.0  0.17377846886083853  0.4901252265778309  0.7919999240590272  1.0000
  H   H25       1.0  0.03025167753068556  0.42284626914241125  0.17934854433619313  1.0000
  H   H26       1.0  0.9697299729456431  0.5771443405804247  0.8206515387325555  1.0000
  H   H27       1.0  0.22815936303693007  0.5324769751615507  0.08934977027919191  1.0000
  H   H28       1.0  0.7718294062484006  0.4675117683899046  0.9106554886878089  1.0000
  H   H29       1.0  0.21854597461526026  0.7323983188047194  0.029631736717952606  1.0000
  H   H30       1.0  0.7814601545606833  0.26759412904921476  0.9703785047834331  1.0000
  H   H31       1.0  0.7327938571341974  0.32340226215434603  0.6619310282756389  1.0000
  H   H32       1.0  0.267210083344402  0.6765985671865167  0.338064998916373  1.0000
  H   H33       1.0  0.5775291577321228  0.17563425184787457  0.7559146704855523  1.0000
  H   H34       1.0  0.42246834688280904  0.8243647255839194  0.24407877063477207  1.0000
  H   H35       1.0  0.6415098387479646  0.9820375941363154  0.7897636023934497  1.0000
  H   H36       1.0  0.35848725390433606  0.01796045749254919  0.21022850728923004  1.0000
  H   H37       1.0  0.8534926646473906  0.9373009889701365  0.7293614881297685  1.0000
  H   H38       1.0  0.1465101589932374  0.0626998393429901  0.2706350670873903  1.0000
  H   H39       1.0  0.17598242890397128  0.0427496830049989  0.780802121786927  1.0000
  H   H40       1.0  0.8240182176764037  0.957253930513552  0.21919424434381807  1.0000
  H   H41       1.0  0.3747591743333913  0.02564560951472571  0.9058394351458363  1.0000
  H   H42       1.0  0.6252441814383829  0.9743617179142632  0.09415660206609291  1.0000
  H   H43       1.0  0.47476985882214223  0.8448466954405232  0.909148445446519  1.0000
  H   H44       1.0  0.5252282403581816  0.15515877022728827  0.09085024514335772  1.0000
  H   H45       1.0  0.3674164111902058  0.6820927562234971  0.7850733838544814  1.0000
  H   H46       1.0  0.6325748529195111  0.3179071323826861  0.21492904266808213  1.0000
  C   C1        1.0  0.4752141937876218  0.7876799317647637  0.5406250302570967  1.0000
  C   C2        1.0  0.5247890556899151  0.2123218199335426  0.45937413805876304  1.0000
  C   C3        1.0  0.6014706881908437  0.8768921778293615  0.49898357950424105  1.0000
  C   C4        1.0  0.3985340900872886  0.12311050069961738  0.5010163922241234  1.0000
  C   C5        1.0  0.44242157118163306  0.4785150127762278  0.3639826702246367  1.0000
  C   C6        1.0  0.5575764783201365  0.5214876644218052  0.6360179063324765  1.0000
  C   C7        1.0  0.41701476257376413  0.4364498457645354  0.2706262304674425  1.0000
  C   C8        1.0  0.5829836642049527  0.5635537632807939  0.7293724733746532  1.0000
  C   C9        1.0  0.291376166441438  0.3263395073001334  0.23903338523358295  1.0000
  C   C10       1.0  0.7086196146987047  0.673663173886787  0.7609650432211696  1.0000
  C   C11       1.0  0.2641684281407989  0.2785564003809641  0.15330566578499835  1.0000
  C   C12       1.0  0.7358296641023898  0.7214490664957154  0.8466923839743502  1.0000
  C   C13       1.0  0.36204278708488147  0.34317155556221474  0.09737679801699531  1.0000
  C   C14       1.0  0.6379594091075093  0.6568329811603846  0.9026222940178388  1.0000
  C   C15       1.0  0.4846688184784753  0.4543932208250395  0.12687825300985622  1.0000
  C   C16       1.0  0.515329537810274  0.5456076033771211  0.8731204143078842  1.0000
  C   C17       1.0  0.5146207677809471  0.5027212152159634  0.21364513900257265  1.0000
  C   C18       1.0  0.485377197356584  0.4972786795566576  0.7863541193691149  1.0000
  C   C19       1.0  0.8989847252460736  0.6667562595183298  0.13125272050897516  1.0000
  C   C20       1.0  0.10101164641943677  0.3332371254397088  0.8687527105373292  1.0000
  C   C21       1.0  0.9095341020599577  0.5571094869187405  0.16695308797387304  1.0000
  C   C22       1.0  0.0904629814180282  0.4428829720552372  0.833051124440175  1.0000
  C   C23       1.0  0.026593180331687408  0.5094188039306431  0.1517981491280693  1.0000
  C   C24       1.0  0.9734028429240169  0.4905764412764952  0.8482053461744246  1.0000
  C   C25       1.0  0.13794437752751065  0.5710092931814756  0.10161739130109032  1.0000
  C   C26       1.0  0.8620525857819672  0.42897759247956196  0.8983886705558322  1.0000
  C   C27       1.0  0.1320037991409322  0.681576089470049  0.06791422517044772  1.0000
  C   C28       1.0  0.8680035104258083  0.3184191454636576  0.9320948839996178  1.0000
  C   C29       1.0  0.013460497548031487  0.7306031784953433  0.08156658278825552  1.0000
  C   C30       1.0  0.9865360676730859  0.2693827789450225  0.9184394292920859  1.0000
  C   C31       1.0  0.011134053402280093  0.8482746426055529  0.045757396865674614  1.0000
  C   C32       1.0  0.9888920795000118  0.1517122468081453  0.9542471121175569  1.0000
  C   C33       1.0  0.9691330309816378  0.30494962021566613  0.5886181357401911  1.0000
  C   C34       1.0  0.03087093030836737  0.6950512054985865  0.41137981394341255  1.0000
  C   C35       1.0  0.8786927507320144  0.21439853572067588  0.642722787207646  1.0000
  C   C36       1.0  0.12131378570660441  0.7856004330088241  0.3572754013389528  1.0000
  C   C37       1.0  0.757572553482973  0.23825662347764626  0.6774469569393915  1.0000
  C   C38       1.0  0.24242803648171207  0.7617442027800009  0.3225506543280545  1.0000
  C   C39       1.0  0.6714533039125641  0.15583813608096622  0.7297905188766833  1.0000
  C   C40       1.0  0.32855136918992395  0.8441617636492181  0.27020621217466373  1.0000
  C   C41       1.0  0.7075615356716015  0.0476117816376416  0.7485918955202635  1.0000
  C   C42       1.0  0.2924416652459669  0.952389978522774  0.2514027869818776  1.0000
  C   C43       1.0  0.827708013196478  0.022558123106449595  0.7152847294329805  1.0000
  C   C44       1.0  0.17229529289674167  0.9774464158527679  0.2847131937461783  1.0000
  C   C45       1.0  0.9148515683701673  0.10429293329523397  0.661716777233579  1.0000
  C   C46       1.0  0.08515542277249465  0.8957097509158487  0.33828021595289937  1.0000
  C   C47       1.0  0.15138362018966228  0.8691086162377742  0.7140163400228519  1.0000
  C   C48       1.0  0.8486155392129362  0.1308940631968696  0.2859830676785791  1.0000
  C   C49       1.0  0.21484867158184068  0.9619012260851534  0.7826867515001936  1.0000
  C   C50       1.0  0.7851497413225984  0.038102385377918296  0.21731067068084545  1.0000
  C   C51       1.0  0.32884958241513823  0.9526980686963  0.852759564233999  1.0000
  C   C52       1.0  0.6711514761278747  0.0473064706251805  0.1472381333343975  1.0000
  C   C53       1.0  0.3844547471494834  0.8518318430364785  0.854837694718775  1.0000
  C   C54       1.0  0.615543693503504  0.1481717635911011  0.1451622907843912  1.0000
  C   C55       1.0  0.32388133935249647  0.760232209757291  0.786153936090308  1.0000
  C   C56       1.0  0.6761152160343611  0.23976953456570976  0.2138490412069558  1.0000
  C   C57       1.0  0.2053673671621253  0.7657082091881903  0.7165162511755839  1.0000
  C   C58       1.0  0.7946302842512907  0.23429353978917086  0.28348427560494127  1.0000
  C   C59       1.0  0.1376210617179794  0.6634338261712571  0.645857556881744  1.0000
  C   C60       1.0  0.8623744334465968  0.3365707043849113  0.35414470330397313  1.0000
  S   S1        1.0  0.6693397248014676  0.6435085971864609  0.25484587842603906  1.0000
  S   S2        1.0  0.33065721479946564  0.35649407777496117  0.7451558669867497  1.0000
  S   S3        1.0  0.7454309317858048  0.7255373880861029  0.14714500073073114  1.0000
  S   S4        1.0  0.2545655392368147  0.27446157381148595  0.8528566583811144  1.0000
  S   S5        1.0  0.0634591325879157  0.0709188726356729  0.6153704625269754  1.0000
  S   S6        1.0  0.9365478793661665  0.9290838079487853  0.38462845315109473  1.0000
  S   S7        1.0  0.013061449097634067  0.8821785626454072  0.6212240847598737  1.0000
  S   S8        1.0  0.9869399439809071  0.11782411884471601  0.37877426689127003  1.0000
  O   O1        1.0  0.4198026227218746  0.6640607189365397  0.4973976798352808  1.0000
  O   O2        1.0  0.5801991892564331  0.3359428871476382  0.5026026440840425  1.0000
  O   O3        1.0  0.3284108657133301  0.4340418849083178  0.40408413413610594  1.0000
  O   O4        1.0  0.67158447459704  0.5659570783792772  0.5959167713398231  1.0000
  O   O5        1.0  0.5771697684288811  0.5581024962921717  0.4002673359254915  1.0000
  O   O6        1.0  0.42282781249456747  0.44189646784202796  0.5997331543306785  1.0000
  O   O7        1.0  0.8929635643381175  0.8837364274186189  0.04337276376615056  1.0000
  O   O8        1.0  0.10701928845900707  0.11625976268925335  0.9566217376819283  1.0000
  O   O9        1.0  0.13993401498041175  0.9138693730960481  0.016745859420097993  1.0000
  O   O10       1.0  0.8600623208808289  0.0861212209744693  0.9832627392545065  1.0000
  O   O11       1.0  0.09613398426187557  0.29391537577303234  0.5708741388811944  1.0000
  O   O12       1.0  0.9038695015126733  0.7060817380862545  0.4291230836709375  1.0000
  O   O13       1.0  0.9247761091323099  0.3964904019699135  0.5609685727305946  1.0000
  O   O14       1.0  0.0752391812101436  0.6035132031495537  0.4390324640228159  1.0000
  O   O15       1.0  0.22171266270288462  0.5978826196145304  0.6303824538732955  1.0000
  O   O16       1.0  0.7782857918243735  0.4021209845953068  0.36961881329092716  1.0000
  O   O17       1.0  0.9974958300157581  0.6491504581750434  0.604360269536457  1.0000
  O   O18       1.0  0.002503413751085816  0.3508550036850125  0.39564045635040673  1.0000
