data_image0
_chemical_formula_structural       Al4H90C100N4Cl6O28
_chemical_formula_sum              "Al4 H90 C100 N4 Cl6 O28"
_cell_length_a       6.594267885402527
_cell_length_b       25.569486685164105
_cell_length_c       28.613785922969477
_cell_angle_alpha    89.45101890215001
_cell_angle_beta     91.22152805562835
_cell_angle_gamma    89.13568314534352

_space_group_name_H-M_alt    "P 1"
_space_group_IT_number       1

loop_
  _space_group_symop_operation_xyz
  'x, y, z'

loop_
  _atom_site_type_symbol
  _atom_site_label
  _atom_site_symmetry_multiplicity
  _atom_site_fract_x
  _atom_site_fract_y
  _atom_site_fract_z
  _atom_site_occupancy
  Al  Al1       1.0  0.23016433916247084  0.7469931638860177  0.2528775267309769  1.0000
  Al  Al2       1.0  0.7739323326116578  0.250431373779776  0.7455540682931314  1.0000
  Al  Al3       1.0  0.7299296564386212  0.7457034527323788  0.2501468420674655  1.0000
  Al  Al4       1.0  0.27281622477391926  0.2508620950396079  0.7446319500992403  1.0000
  H   H1        1.0  0.2968228526973817  0.5723831010188007  0.4286860998505517  1.0000
  H   H2        1.0  0.6705829594227525  0.42018512914108913  0.5686602741786118  1.0000
  H   H3        1.0  0.6531424522525029  0.6028886817760863  0.436613988351752  1.0000
  H   H4        1.0  0.3109344204031927  0.44193071741472784  0.59377870884218  1.0000
  H   H5        1.0  0.6708146872065516  0.6595747696455446  0.36604010207124565  1.0000
  H   H6        1.0  0.3124529180453165  0.3676846633169716  0.650399409171712  1.0000
  H   H7        1.0  0.24513157120283327  0.6114055811604543  0.051293316611030114  1.0000
  H   H8        1.0  0.8354265714293874  0.3705744148383445  0.954754434064455  1.0000
  H   H9        1.0  0.7258206598008314  0.5356893546521563  0.1085408462871555  1.0000
  H   H10       1.0  0.23925474915730405  0.47029674186466525  0.8791424718919743  1.0000
  H   H11       1.0  0.20437947808850512  0.12626477926719562  0.6560723985347253  1.0000
  H   H12       1.0  0.8052327432629057  0.8663647690998602  0.3421507317150017  1.0000
  H   H13       1.0  0.20519742746216713  0.058734938990888004  0.5938758625092079  1.0000
  H   H14       1.0  0.8136796086175053  0.932919649908229  0.4051309094298646  1.0000
  H   H15       1.0  0.8292696932902575  0.093623936246729  0.565976909360977  1.0000
  H   H16       1.0  0.1928073556771324  0.8983100256285681  0.43680786666902094  1.0000
  H   H17       1.0  0.831080134822166  0.15738865533987936  0.6312168376150853  1.0000
  H   H18       1.0  0.1828561741189532  0.8347439920442667  0.37147934416300643  1.0000
  H   H19       1.0  0.8245402894406483  0.006032001946216798  0.5488961215452974  1.0000
  H   H20       1.0  0.198694782707406  0.9862305244163851  0.4516289567861095  1.0000
  H   H21       1.0  0.8184154016453109  0.9419628194353037  0.4853604906729459  1.0000
  H   H22       1.0  0.20477957135099703  0.050331205484056306  0.5150486273207308  1.0000
  H   H23       1.0  0.3129204792003435  0.13273879677644373  0.9566458000456424  1.0000
  H   H24       1.0  0.7153053949390369  0.9642298257018213  0.1183207947391551  1.0000
  H   H25       1.0  0.7463445583704242  0.034746958589181504  0.885361349686633  1.0000
  H   H26       1.0  0.23139044110099152  0.885477389027763  0.045910646667970005  1.0000
  H   H27       1.0  0.8265860675015021  0.014265340856823601  0.9614134326279713  1.0000
  H   H28       1.0  0.17172515354517504  0.9904709922476514  0.041119723908437315  1.0000
  H   H29       1.0  0.8036327572031967  0.9506243842080763  0.026621242256695207  1.0000
  H   H30       1.0  0.19354189806169592  0.05415547826100919  0.9759376081686781  1.0000
  H   H31       1.0  0.5285010660681878  0.6129452319085618  0.29846807751489024  1.0000
  H   H32       1.0  0.2639597767737456  0.6093429792598783  0.2858902968091358  1.0000
  H   H33       1.0  0.5098394658545048  0.5300170552725163  0.3464919433330921  1.0000
  H   H34       1.0  0.24736184326012284  0.5264811289359344  0.33358178575802105  1.0000
  H   H35       1.0  0.32631185092157017  0.5197179679916459  0.24657459535740142  1.0000
  H   H36       1.0  0.43244899799230313  0.46717557193674975  0.2802715699544933  1.0000
  H   H37       1.0  0.5887067851273075  0.5187900280814333  0.2616440289170896  1.0000
  H   H38       1.0  0.474761840747597  0.27681952977580687  0.6306015001793455  1.0000
  H   H39       1.0  0.731262057937606  0.26788244702009223  0.6139813062450443  1.0000
  H   H40       1.0  0.39146412656308643  0.31880071370593305  0.5530428081833564  1.0000
  H   H41       1.0  0.6456848164908424  0.3105424024561643  0.535894046764227  1.0000
  H   H42       1.0  0.6134704316608649  0.21216063536368068  0.5422653644920389  1.0000
  H   H43       1.0  0.4267345207494558  0.2390030384586552  0.5030063774601317  1.0000
  H   H44       1.0  0.35995201888230344  0.21989097243644548  0.5604344970002657  1.0000
  H   H45       1.0  0.43023401270751543  0.4094390401212494  0.008567752009220404  1.0000
  H   H46       1.0  0.31698065585568014  0.36635873759814075  0.9671799600598165  1.0000
  H   H47       1.0  0.37779323411697163  0.3424818024859207  0.07197030870175072  1.0000
  H   H48       1.0  0.27259585533418124  0.299631983110686  0.030214888700641006  1.0000
  H   H49       1.0  0.606811123242835  0.2979715293434212  0.9874162707588356  1.0000
  H   H50       1.0  0.6385891247160842  0.27623908401780284  0.046145989576338316  1.0000
  H   H51       1.0  0.7128806297703959  0.3401538656722778  0.030324123458498806  1.0000
  H   H52       1.0  0.7064641052826632  0.6286543591847363  0.030767938580169102  1.0000
  H   H53       1.0  0.5887684626140341  0.5861524388074031  0.989563376490061  1.0000
  H   H54       1.0  0.7470854716316639  0.6956616573397343  0.9672211246065745  1.0000
  H   H55       1.0  0.6271240834331523  0.6538989027585629  0.9267614513054598  1.0000
  H   H56       1.0  0.303698825814152  0.657982420439282  0.9726391672034895  1.0000
  H   H57       1.0  0.3813945923692401  0.7217532791061316  0.9571722464193047  1.0000
  H   H58       1.0  0.42452423621675456  0.6980046587569576  0.015059332048650701  1.0000
  H   H59       1.0  0.5769455514757456  0.08921879488529781  0.7632499432901698  1.0000
  H   H60       1.0  0.6827606782761112  0.030211810295043103  0.7880813745146045  1.0000
  H   H61       1.0  0.8964311753369075  0.10978275629685193  0.7256577874652593  1.0000
  H   H62       1.0  0.025237216891795797  0.0579704246796453  0.7559161492468008  1.0000
  H   H63       1.0  0.8177571925232955  0.9917201924236779  0.7124652613087863  1.0000
  H   H64       1.0  0.9383976350992355  0.0337360796650259  0.6722711646419057  1.0000
  H   H65       1.0  0.6772798270078937  0.0426433107604751  0.6832355692355493  1.0000
  H   H66       1.0  0.07579461581877922  0.753817273565062  0.07074588414821653  1.0000
  H   H67       1.0  0.18149494656932316  0.805515021833294  0.037821773358722104  1.0000
  H   H68       1.0  0.8097031038965383  0.814338957503651  0.1005677509236875  1.0000
  H   H69       1.0  0.9024689289243853  0.8660879999324963  0.06656333304476192  1.0000
  H   H70       1.0  0.8338259394230151  0.8129007963890729  0.9926527629397982  1.0000
  H   H71       1.0  0.6106387438104125  0.8251323186227352  0.024679890089537103  1.0000
  H   H72       1.0  0.7322191477925984  0.7627396077559041  0.028135290441348104  1.0000
  H   H73       1.0  0.3320235068658165  0.5076358025460126  0.10824036538653561  1.0000
  H   H74       1.0  0.38424366400128224  0.4480640469836246  0.07835376975973672  1.0000
  H   H75       1.0  0.21455432541623762  0.4560112017666427  0.1771006834834168  1.0000
  H   H76       1.0  0.26068291773384544  0.3971975127168649  0.14682803823488652  1.0000
  H   H77       1.0  0.6360620030238665  0.4199050842109673  0.14283791664964704  1.0000
  H   H78       1.0  0.553856471092189  0.41567322573517623  0.20141664388047795  1.0000
  H   H79       1.0  0.5863950596064812  0.4777169922321037  0.1748567886315016  1.0000
  H   H80       1.0  0.631780560422257  0.5452914435357812  0.9176701315447392  1.0000
  H   H81       1.0  0.6923268917758919  0.48778120098349115  0.8855384469319887  1.0000
  H   H82       1.0  0.7528232505898913  0.6008343157964477  0.8521261028901466  1.0000
  H   H83       1.0  0.8119081936815818  0.5443314363895553  0.8196806056813345  1.0000
  H   H84       1.0  0.44373655063112244  0.5190066319445139  0.8176406887455203  1.0000
  H   H85       1.0  0.4704826775214387  0.5830051947165558  0.7946618204691519  1.0000
  H   H86       1.0  0.38039896996714634  0.5740791776661425  0.8521378176566828  1.0000
  H   H87       1.0  0.47494341124465234  0.6848229895927105  0.22748605081108766  1.0000
  H   H88       1.0  0.5215769153614219  0.3166415051940845  0.7602461356300695  1.0000
  H   H89       1.0  0.9743594776674488  0.8091012680030899  0.22825584729952206  1.0000
  H   H90       1.0  0.0322398080687378  0.19000079812413867  0.7726037244164132  1.0000
  C   C1        1.0  0.4865942230365335  0.8086531646744248  0.31421169998706233  1.0000
  C   C2        1.0  0.515604707619545  0.18530715930576488  0.6848956066157541  1.0000
  C   C3        1.0  0.46831580957923086  0.8121911392190098  0.18841089183452203  1.0000
  C   C4        1.0  0.5389199584692224  0.1898493167142234  0.8111426390301235  1.0000
  C   C5        1.0  0.9800044435013221  0.6804987591112949  0.18922896562849442  1.0000
  C   C6        1.0  0.0319143298411078  0.3160781362403213  0.8063821494498172  1.0000
  C   C7        1.0  0.9899914708130454  0.6841574487576735  0.3156282837145313  1.0000
  C   C8        1.0  0.00576506965564499  0.31122111606941166  0.679840782454619  1.0000
  C   C9        1.0  0.16832297744041821  0.6218030556585887  0.3743866034172926  1.0000
  C   C10       1.0  0.8126599244613504  0.3665101851295631  0.6175750463234024  1.0000
  C   C11       1.0  0.1588141723978751  0.5913794739955307  0.4149720912655894  1.0000
  C   C12       1.0  0.812621242262445  0.4086708947940566  0.5862003795809727  1.0000
  C   C13       1.0  0.9748813818887713  0.5842476913232204  0.43755123159719744  1.0000
  C   C14       1.0  0.9899305178538784  0.4362679181804835  0.5775952020064707  1.0000
  C   C15       1.0  0.79676821286985  0.6082459715198638  0.4192291829928437  1.0000
  C   C16       1.0  0.17242032985326722  0.42063069392584407  0.6003376010157595  1.0000
  C   C17       1.0  0.8073483749340511  0.639831127824728  0.37963518840780364  1.0000
  C   C18       1.0  0.17242824590442749  0.37912166322792024  0.6319578033077562  1.0000
  C   C19       1.0  0.9908145798614003  0.647552796176612  0.35654960337169683  1.0000
  C   C20       1.0  0.9950340727000723  0.3515175898554546  0.6418046251625142  1.0000
  C   C21       1.0  0.9816019769145259  0.48118126205340417  0.5451738593229365  1.0000
  C   C22       1.0  0.9730019096828358  0.5510248992646963  0.47958528898038116  1.0000
  C   C23       1.0  0.13560781237026023  0.642438920346805  0.115809067172826  1.0000
  C   C24       1.0  0.9197981449852508  0.3446690911107454  0.8865631201008599  1.0000
  C   C25       1.0  0.1302878514316745  0.6085424484493842  0.07791732312872311  1.0000
  C   C26       1.0  0.9230160475628183  0.3791827291033556  0.9239089651200062  1.0000
  C   C27       1.0  0.9817951146471203  0.5702979274047664  0.0746409149774294  1.0000
  C   C28       1.0  0.0378157941564581  0.4247290702637159  0.9216162987019489  1.0000
  C   C29       1.0  0.8383644005617088  0.5663677655826264  0.10969960924337131  1.0000
  C   C30       1.0  0.15126919121203738  0.4348055847372621  0.8817708998287446  1.0000
  C   C31       1.0  0.8396831930754515  0.6017552667361485  0.1464027941235599  1.0000
  C   C32       1.0  0.1496513995786088  0.39936757605754974  0.8450971132469149  1.0000
  C   C33       1.0  0.9859983422464255  0.64135780570318  0.15043594582940056  1.0000
  C   C34       1.0  0.0331547403774408  0.3537563011497582  0.8462545722444972  1.0000
  C   C35       1.0  0.043952450819894316  0.48081326233025845  0.044242627736494504  1.0000
  C   C36       1.0  0.9739381525492449  0.5147024287251298  0.9518853312260732  1.0000
  C   C37       1.0  0.06858551976256423  0.44546536284349963  0.007345398613559  1.0000
  C   C38       1.0  0.9490483026578717  0.5499729173562855  0.988863944890298  1.0000
  C   C39       1.0  0.031683372462573786  0.4621703550336706  0.9607709676463474  1.0000
  C   C40       1.0  0.9861279071080493  0.5331360535322959  0.035223226124792006  1.0000
  C   C41       1.0  0.34040557215899275  0.11841180545221872  0.6361409325311131  1.0000
  C   C42       1.0  0.6721226785890624  0.8739246311660908  0.36314832135243347  1.0000
  C   C43       1.0  0.3413471224362327  0.08129534119159841  0.6009975560621967  1.0000
  C   C44       1.0  0.676334981066674  0.9105976032118479  0.3987191349550727  1.0000
  C   C45       1.0  0.5170048878196668  0.0715330529821685  0.5750991580118453  1.0000
  C   C46       1.0  0.503762806939456  0.9204533825490702  0.4255861537965586  1.0000
  C   C47       1.0  0.6931814362731928  0.09958957063081192  0.5863990971673232  1.0000
  C   C48       1.0  0.3261004345321936  0.8925063514480128  0.41539046784929934  1.0000
  C   C49       1.0  0.6944807862162533  0.13575173362082893  0.6223777422005696  1.0000
  C   C50       1.0  0.3201133935337667  0.8564926948051194  0.3793503815352041  1.0000
  C   C51       1.0  0.5173894429775103  0.14577044423165833  0.6471937266147165  1.0000
  C   C52       1.0  0.49345421014056273  0.8468685447763777  0.35304549546765435  1.0000
  C   C53       1.0  0.6876089137561225  0.0025711067532511998  0.5271196196793966  1.0000
  C   C54       1.0  0.33563835990833724  0.9897373378561057  0.47336717418779284  1.0000
  C   C55       1.0  0.6842525483747223  0.9663224713513613  0.49119897791433703  1.0000
  C   C56       1.0  0.33895339682498354  0.0259415064101347  0.5092760268586431  1.0000
  C   C57       1.0  0.5081666134993272  0.9590646677316457  0.46354938402505763  1.0000
  C   C58       1.0  0.5148958301116906  0.033125674796274006  0.5369975445507222  1.0000
  C   C59       1.0  0.41341610347151914  0.16053695913583255  0.8903419426841525  1.0000
  C   C60       1.0  0.600948439651205  0.89555817635528  0.15234311304346457  1.0000
  C   C61       1.0  0.4070977195481262  0.12418809583280678  0.9267800532514701  1.0000
  C   C62       1.0  0.60845943612199  0.9322555010514434  0.11609283613229593  1.0000
  C   C63       1.0  0.5245723365011729  0.07802840474241893  0.9255865813210065  1.0000
  C   C64       1.0  0.4749149137144857  0.9283311249459844  0.0777099861580623  1.0000
  C   C65       1.0  0.6531029369478463  0.07014351827417191  0.8877494850016632  1.0000
  C   C66       1.0  0.3332749042544735  0.8881260249821848  0.0761852045337506  1.0000
  C   C67       1.0  0.6624943375334951  0.1071639782684812  0.8517689391158216  1.0000
  C   C68       1.0  0.3299236029181075  0.8504342298570223  0.11199901170850522  1.0000
  C   C69       1.0  0.5388294615080725  0.1527034287298861  0.8518555543103616  1.0000
  C   C70       1.0  0.46513671669880813  0.8537691321786341  0.1511768977513555  1.0000
  C   C71       1.0  0.6821654732260287  0.009165718238726599  0.9786641933736676  1.0000
  C   C72       1.0  0.31510258806099506  0.9953919793933184  0.0233588595181047  1.0000
  C   C73       1.0  0.6699443674687445  0.9736427405973417  0.015616105638933703  1.0000
  C   C74       1.0  0.3282592083117635  0.0315617625593276  0.9869521618678831  1.0000
  C   C75       1.0  0.4862753717179587  0.966173258962499  0.038535219137799  1.0000
  C   C76       1.0  0.5119607017923472  0.039192115686887505  0.963910729124443  1.0000
  C   C77       1.0  0.3844825099979232  0.5981671470655527  0.3115241837832415  1.0000
  C   C78       1.0  0.3929132304266575  0.5391641261113804  0.3194725981245058  1.0000
  C   C79       1.0  0.4375048220884495  0.5096561789709854  0.274604027166987  1.0000
  C   C80       1.0  0.5938527972829563  0.2922433007467832  0.6082580253277499  1.0000
  C   C81       1.0  0.526117839270974  0.29304181476549473  0.5570506874987871  1.0000
  C   C82       1.0  0.4790368635221681  0.23807559746075677  0.539700105745581  1.0000
  C   C83       1.0  0.32233594065024807  0.3770797949583838  0.004433741741927099  1.0000
  C   C84       1.0  0.3848915622709442  0.3306352074899763  0.035132579739297405  1.0000
  C   C85       1.0  0.5972868745040217  0.3102542126660311  0.024032839515236  1.0000
  C   C86       1.0  0.6973654435022852  0.6184090091132575  0.9934179702293239  1.0000
  C   C87       1.0  0.6309678754324041  0.6653535338177433  0.9637583908260865  1.0000
  C   C88       1.0  0.42390578800220174  0.6868440803934064  0.9780248004000784  1.0000
  C   C89       1.0  0.7188776355760281  0.0703747422578047  0.7765980008558204  1.0000
  C   C90       1.0  0.8792789970821956  0.06975498620126791  0.7393072606159948  1.0000
  C   C91       1.0  0.8248253877414914  0.0323747167227708  0.699749640475062  1.0000
  C   C92       1.0  0.09317072041686461  0.7964625041471011  0.06914985708502293  1.0000
  C   C93       1.0  0.8860465945731665  0.8233548777638617  0.0677254676745065  1.0000
  C   C94       1.0  0.7588536613327649  0.8050522547703381  0.025937809417854403  1.0000
  C   C95       1.0  0.28791819192176865  0.4662333763692246  0.10498830603359013  1.0000
  C   C96       1.0  0.31352015935458877  0.4375209336763676  0.15130125319396373  1.0000
  C   C97       1.0  0.5346375142120863  0.43770542861703643  0.1684644797855981  1.0000
  C   C98       1.0  0.7315439626886332  0.5292650301793884  0.8906188646179772  1.0000
  C   C99       1.0  0.7067401536105323  0.5603225551843282  0.8454752813688631  1.0000
  C   C100      1.0  0.48838548652658903  0.5590068912030333  0.8265386899097324  1.0000
  N   N1        1.0  0.7935858691601754  0.5326588275941404  0.4942509118386554  1.0000
  N   N2        1.0  0.15420957292590742  0.50741368754791  0.537134907844667  1.0000
  N   N3        1.0  0.7976118238601801  0.49738096993668535  0.5280526705543097  1.0000
  N   N4        1.0  0.14980007154994723  0.5434600996930571  0.5039670760649315  1.0000
  Cl  Cl1       1.0  0.2682456207867149  0.2171813788658454  0.895055410254706  1.0000
  Cl  Cl2       1.0  0.7650824172662  0.9048238290152286  0.19964031920103056  1.0000
  Cl  Cl3       1.0  0.3351356403863194  0.6856077081428893  0.11776577534547532  1.0000
  Cl  Cl4       1.0  0.7750472476108854  0.28914229954015275  0.8917238952962947  1.0000
  Cl  Cl5       1.0  0.6596999484789239  0.5921652083991731  0.1888248353142998  1.0000
  Cl  Cl6       1.0  0.2899172676920898  0.41438630639432006  0.7962329934762877  1.0000
  O   O1        1.0  0.6424695953597137  0.7943488691281431  0.2007638139297754  1.0000
  O   O2        1.0  0.36829449837100736  0.1988592808850385  0.7908705513141003  1.0000
  O   O3        1.0  0.3123451708782312  0.79453745415276  0.2997254343173595  1.0000
  O   O4        1.0  0.6852497799437528  0.19683201983189497  0.7038514326456422  1.0000
  O   O5        1.0  0.15840096358950012  0.7019798606654394  0.3025877473622813  1.0000
  O   O6        1.0  0.8414447568869646  0.2907253258346074  0.6926919673842564  1.0000
  O   O7        1.0  0.299774056281045  0.7981647332708873  0.20470629129580695  1.0000
  O   O8        1.0  0.7083520665531681  0.2081271886219582  0.7994255616527328  1.0000
  O   O9        1.0  0.14823722851443227  0.6925157918526493  0.20826849311504964  1.0000
  O   O10       1.0  0.8612314980218373  0.3063116438134585  0.787319198961775  1.0000
  O   O11       1.0  0.6548369882738144  0.7932476214895063  0.2977462889980559  1.0000
  O   O12       1.0  0.34388225014284046  0.20458995698585622  0.6955940077754549  1.0000
  O   O13       1.0  0.48057787170718314  0.7140648692688599  0.24888064314205854  1.0000
  O   O14       1.0  0.521766078212714  0.28277156678242227  0.7452242109195666  1.0000
  O   O15       1.0  0.8066076833090038  0.6984136655759767  0.19969172088283935  1.0000
  O   O16       1.0  0.20313062614793861  0.2974780756848787  0.795128389355348  1.0000
  O   O17       1.0  0.8183491062933401  0.6956332942206486  0.2963978312660559  1.0000
  O   O18       1.0  0.17938562339738703  0.30066197627418495  0.698493253806177  1.0000
  O   O19       1.0  0.9772373172530566  0.7781589597623934  0.24825174919377702  1.0000
  O   O20       1.0  0.0259493632573111  0.21778440126992388  0.7491467307761612  1.0000
  O   O21       1.0  0.35509331843267233  0.6258828086020997  0.3547033889623209  1.0000
  O   O22       1.0  0.6282807501052262  0.34458241722324356  0.6251190274874716  1.0000
  O   O23       1.0  0.1234820208807861  0.39482597054995955  0.0189032402212845  1.0000
  O   O24       1.0  0.8942495725538608  0.6008248233558859  0.9777492129914622  1.0000
  O   O25       1.0  0.7967876358761004  0.09916598665325439  0.8161999478370847  1.0000
  O   O26       1.0  0.20992215886853674  0.8079047083115043  0.11077049172143212  1.0000
  O   O27       1.0  0.07772838619351322  0.4642249069288695  0.08970943041982342  1.0000
  O   O28       1.0  0.9405568413980064  0.5321324811836092  0.9067011154513694  1.0000
