data_image0
_chemical_formula_structural       Al4H28C48O20
_chemical_formula_sum              "Al4 H28 C48 O20"
_cell_length_a       6.6899105110300034
_cell_length_b       17.284812898255936
_cell_length_c       19.441807577710037
_cell_angle_alpha    108.121248060659
_cell_angle_beta     89.99889282440182
_cell_angle_gamma    90.00002319062092

_space_group_name_H-M_alt    "P 1"
_space_group_IT_number       1

loop_
  _space_group_symop_operation_xyz
  'x, y, z'

loop_
  _atom_site_type_symbol
  _atom_site_label
  _atom_site_symmetry_multiplicity
  _atom_site_fract_x
  _atom_site_fract_y
  _atom_site_fract_z
  _atom_site_occupancy
  Al  Al1       1.0  0.8953542100021468  0.500442700179761  0.50013633478315  1.0000
  Al  Al2       1.0  0.3953549867317605  0.4995580471112078  0.4998687126912388  1.0000
  Al  Al3       1.0  0.36901838156666866  0.0002809513998727  0.0008036332381423001  1.0000
  Al  Al4       1.0  0.8690174648052819  0.9997209355972602  0.9992044401824317  1.0000
  H   H1        1.0  0.4250190808659441  0.18834380412666007  0.19040948541584873  1.0000
  H   H2        1.0  0.9250317162379603  0.8116248238385565  0.8096052163636501  1.0000
  H   H3        1.0  0.9658484631117619  0.2007682240829567  0.20096497576332692  1.0000
  H   H4        1.0  0.46585664158904183  0.7992756554893461  0.799014715484404  1.0000
  H   H5        1.0  0.44054092302312853  0.3012612153323388  0.30492573666124656  1.0000
  H   H6        1.0  0.9405222477149097  0.6987323567123269  0.6950689942501569  1.0000
  H   H7        1.0  0.9801700391395232  0.302686318821749  0.301208737441506  1.0000
  H   H8        1.0  0.4801617551284211  0.697306350637362  0.6988092579987537  1.0000
  H   H9        1.0  0.4288463742806315  0.41315238357692863  0.679457289041018  1.0000
  H   H10       1.0  0.9288592343722045  0.5868443171252337  0.320541385215911  1.0000
  H   H11       1.0  0.8567996311306345  0.31620408215099627  0.593937055571672  1.0000
  H   H12       1.0  0.35680390029926906  0.6837936340868752  0.40607221356901146  1.0000
  H   H13       1.0  0.6933947116697966  0.2088933921777638  0.6356005822243346  1.0000
  H   H14       1.0  0.19338680966829708  0.7910986005322513  0.3644052213898945  1.0000
  H   H15       1.0  0.6866747455441455  0.12499012401540455  0.7178635632282636  1.0000
  H   H16       1.0  0.18665517584567226  0.8749994713974375  0.2821385250782669  1.0000
  H   H17       1.0  0.8378645751640192  0.08659173067862724  0.8203067879373407  1.0000
  H   H18       1.0  0.3378445778753445  0.913393536889977  0.17969290000886673  1.0000
  H   H19       1.0  0.4087035293616027  0.18430708415881714  0.9065863685940201  1.0000
  H   H20       1.0  0.9086936178187203  0.8156838754322777  0.09340710806168322  1.0000
  H   H21       1.0  0.573486642624296  0.2907647126245507  0.8641488089105778  1.0000
  H   H22       1.0  0.07348300138980332  0.7092271824760489  0.1358417102772265  1.0000
  H   H23       1.0  0.5808254494557588  0.37432945763510617  0.7816651912231051  1.0000
  H   H24       1.0  0.08082750008650662  0.625664275782789  0.21832741224589816  1.0000
  H   H25       1.0  0.6466680405896101  0.39284858680155577  0.47869632980121685  1.0000
  H   H26       1.0  0.14666679016632142  0.6071510644074608  0.5212906643550143  1.0000
  H   H27       1.0  0.619164993057936  0.10702997320572653  0.019059526548353703  1.0000
  H   H28       1.0  0.1191646173230509  0.8929720691363912  0.980949409575743  1.0000
  C   C1        1.0  0.6456252559045481  0.5815048985870847  0.4184423245492752  1.0000
  C   C2        1.0  0.14561089178125286  0.41849368285782873  0.5815635666659562  1.0000
  C   C3        1.0  0.644111689942619  0.6131031574032804  0.6114016723788326  1.0000
  C   C4        1.0  0.14413189156532977  0.3868967810976969  0.38860478697296225  1.0000
  C   C5        1.0  0.28335799731372197  0.21391020839727307  0.21542405491724284  1.0000
  C   C6        1.0  0.7833676350361288  0.7860761934163564  0.7845816982456243  1.0000
  C   C7        1.0  0.1147937283033613  0.18005137278264977  0.1806130966837713  1.0000
  C   C8        1.0  0.6148122978397481  0.8199620941487353  0.8193851828745977  1.0000
  C   C9        1.0  0.29261071996079124  0.28071623700729026  0.2827280822382079  1.0000
  C   C10       1.0  0.7926024543309323  0.7192771279352074  0.7172727537637513  1.0000
  C   C11       1.0  0.1324307182766731  0.3195878730499899  0.31993023691808287  1.0000
  C   C12       1.0  0.6324179314551303  0.6804119769756696  0.6800758233997186  1.0000
  C   C13       1.0  0.3027065921109156  0.3732795697528459  0.6798836189350935  1.0000
  C   C14       1.0  0.8027235940772925  0.6267213852011366  0.3201209307462848  1.0000
  C   C15       1.0  0.14297712933549178  0.3690263004733936  0.6323238435497488  1.0000
  C   C16       1.0  0.6429869000105838  0.6309734627585613  0.3676820884716392  1.0000
  C   C17       1.0  0.9799068932908314  0.31791227529338073  0.6311609023882667  1.0000
  C   C18       1.0  0.4799091992776994  0.6820848766015573  0.3688430956654046  1.0000
  C   C19       1.0  0.9752014367976898  0.2684068723408189  0.676167879596811  1.0000
  C   C20       1.0  0.47520047905304347  0.7315916891470168  0.32383510645470176  1.0000
  C   C21       1.0  0.13541078525035027  0.2739603143488338  0.7262335555536695  1.0000
  C   C22       1.0  0.6354110385794343  0.7260342105266916  0.2737654111872986  1.0000
  C   C23       1.0  0.29962597689247866  0.32785929413298487  0.7284921538819873  1.0000
  C   C24       1.0  0.7996322283876652  0.6721378888460591  0.2715080863071222  1.0000
  C   C25       1.0  0.8148547295502766  0.2126067435522216  0.6739483198695524  1.0000
  C   C26       1.0  0.31484633432251746  0.787390446649731  0.32605551484303424  1.0000
  C   C27       1.0  0.8111224194834464  0.16628712594191336  0.7193917779118522  1.0000
  C   C28       1.0  0.3111196506926532  0.8337083286043381  0.28061370811820296  1.0000
  C   C29       1.0  0.9672434191114904  0.1718191944788003  0.7712762839321456  1.0000
  C   C30       1.0  0.4672345168611258  0.8281769014510872  0.22872785930247372  1.0000
  C   C31       1.0  0.13126436476187564  0.2258449818408224  0.7736428269809538  1.0000
  C   C32       1.0  0.6312598891438697  0.7741464922117701  0.22635562706258847  1.0000
  C   C33       1.0  0.2912464287882131  0.23147667130759697  0.8238115478536516  1.0000
  C   C34       1.0  0.7912372621266216  0.7685150692444013  0.17618281494824117  1.0000
  C   C35       1.0  0.4519175049025534  0.2870767323631541  0.8258466056937479  1.0000
  C   C36       1.0  0.9519172708930839  0.7129167460799765  0.17414798685806693  1.0000
  C   C37       1.0  0.4559861421338667  0.3332236805825702  0.780246381897804  1.0000
  C   C38       1.0  0.9559847664127546  0.6667697644173957  0.21974816121911547  1.0000
  C   C39       1.0  0.963835446014116  0.12658932979159226  0.8200206671409873  1.0000
  C   C40       1.0  0.46382027607960913  0.8733989364291617  0.179979139846921  1.0000
  C   C41       1.0  0.12285346555186293  0.13119574619523897  0.8679464996808194  1.0000
  C   C42       1.0  0.622836482425001  0.8687957709127904  0.13205367580370364  1.0000
  C   C43       1.0  0.2859908902967661  0.1823084613291144  0.8691454888450495  1.0000
  C   C44       1.0  0.7859784596233724  0.8176815561260254  0.13085054383851258  1.0000
  C   C45       1.0  0.6190081380378344  0.8874029712335769  0.8882599567942507  1.0000
  C   C46       1.0  0.11900308257832391  0.11260265733056231  0.11174253095821031  1.0000
  C   C47       1.0  0.61925640904186  0.9180572645289545  0.0811477570301662  1.0000
  C   C48       1.0  0.11926303945216431  0.08194134896628925  0.918857913309239  1.0000
  O   O1        1.0  0.4746894024054385  0.5860303151483351  0.5840030788675464  1.0000
  O   O2        1.0  0.9747005416937355  0.4139689367729247  0.4160053163687394  1.0000
  O   O3        1.0  0.8160051610859114  0.5619186802806552  0.43716081380104305  1.0000
  O   O4        1.0  0.31598741329847263  0.4380806360956909  0.562842483353343  1.0000
  O   O5        1.0  0.8149077242855826  0.5878283197719298  0.5844658789494658  1.0000
  O   O6        1.0  0.3149233862408635  0.4121733257215467  0.4155374488837609  1.0000
  O   O7        1.0  0.9764357194814721  0.4361167002041099  0.5602272754098722  1.0000
  O   O8        1.0  0.47644605013921654  0.5638846729577055  0.43978057497513845  1.0000
  O   O9        1.0  0.6455161962858257  0.4516631612725419  0.4927738997580349  1.0000
  O   O10       1.0  0.1455181550084959  0.5483369765372501  0.5072314646617855  1.0000
  O   O11       1.0  0.7878765671092153  0.9349325395809275  0.058855474976354606  1.0000
  O   O12       1.0  0.2878731024435766  0.06509306161508017  0.9411753501605842  1.0000
  O   O13       1.0  0.4489191314738791  0.9130940700478404  0.9160987147549023  1.0000
  O   O14       1.0  0.9489140696229087  0.0869236108670748  0.0838955573128146  1.0000
  O   O15       1.0  0.4485611013891599  0.9383505075881687  0.0632772201038705  1.0000
  O   O16       1.0  0.948565064395595  0.061633189724339815  0.9367141003269311  1.0000
  O   O17       1.0  0.2890173181989155  0.0860216943496752  0.08520602195045508  1.0000
  O   O18       1.0  0.789020871789539  0.9139609453453306  0.914814208564991  1.0000
  O   O19       1.0  0.6192420505487063  0.048420835662788896  0.007541016244410099  1.0000
  O   O20       1.0  0.11924152306498571  0.9515816276067213  0.9924657629935467  1.0000
