data_image0
_chemical_formula_structural       Ga2H18C28O10
_chemical_formula_sum              "Ga2 H18 C28 O10"
_cell_length_a       6.802495957769477
_cell_length_b       9.407453413464236
_cell_length_c       10.94634339597061
_cell_angle_alpha    90.29974845625296
_cell_angle_beta     90.06492035648826
_cell_angle_gamma    111.13253617425819

_space_group_name_H-M_alt    "P 1"
_space_group_IT_number       1

loop_
  _space_group_symop_operation_xyz
  'x, y, z'

loop_
  _atom_site_type_symbol
  _atom_site_label
  _atom_site_symmetry_multiplicity
  _atom_site_fract_x
  _atom_site_fract_y
  _atom_site_fract_z
  _atom_site_occupancy
  Ga  Ga1       1.0  0.500000228357301  0.49999874681248  0.4999996328720258  1.0000
  Ga  Ga2       1.0  0.9999983764389029  0.5000000189322762  0.499999907528462  1.0000
  H   H1        1.0  0.8122508669762283  0.6252964099556236  0.3709162015235136  1.0000
  H   H2        1.0  0.1877468691344504  0.374704464150291  0.6290849537037673  1.0000
  H   H3        1.0  0.838683375718041  0.6757769673109307  0.9054526785490821  1.0000
  H   H4        1.0  0.16132762451500318  0.32422398083061665  0.09454482811997167  1.0000
  H   H5        1.0  0.8169242503916863  0.6331823971606667  0.130328794359599  1.0000
  H   H6        1.0  0.18309318864189805  0.36681966808716027  0.8696696491794281  1.0000
  H   H7        1.0  0.685118651539369  0.37066093661000105  0.2114175050245137  1.0000
  H   H8        1.0  0.31489584801176557  0.6293411298729764  0.788580937472531  1.0000
  H   H9        1.0  0.573978590174015  0.14842094085243215  0.06952839496359078  1.0000
  H   H10       1.0  0.4260197331107987  0.8515811125254443  0.930470955114309  1.0000
  H   H11       1.0  0.254567527104463  0.14091392630712818  0.8100319973017419  1.0000
  H   H12       1.0  0.11323242618773581  0.8589644497937244  0.19070906046187014  1.0000
  H   H13       1.0  0.7454206118446862  0.8590824526818536  0.1899663294883567  1.0000
  H   H14       1.0  0.8867608059591845  0.1410421247753177  0.8092921995314838  1.0000
  H   H15       1.0  0.14470804918750682  0.9200534336915137  0.66402736249578  1.0000
  H   H16       1.0  0.2250652259701198  0.07994694767570108  0.3365714112977045  1.0000
  H   H17       1.0  0.8552880657050039  0.07993830348041088  0.3359745352916264  1.0000
  H   H18       1.0  0.7749376980784105  0.9200584233998795  0.6634325708037777  1.0000
  C   C1        1.0  0.7309679900858725  0.4607923914748469  0.7266420196140472  1.0000
  C   C2        1.0  0.26902771644793666  0.539207363672055  0.2733582003062338  1.0000
  C   C3        1.0  0.718483202270022  0.4358318604660525  0.8619646137832787  1.0000
  C   C4        1.0  0.2815165907560199  0.5641701922942416  0.13803473681561226  1.0000
  C   C5        1.0  0.7808755811864927  0.560578778339895  0.942089503500668  1.0000
  C   C6        1.0  0.2191339310796607  0.4394221306223116  0.0579098292709759  1.0000
  C   C7        1.0  0.7685003703001811  0.5364397709984485  0.06755445579955927  1.0000
  C   C8        1.0  0.2315150209308782  0.4635611354934495  0.9324448790560639  1.0000
  C   C9        1.0  0.6942429528229964  0.3885324056011753  0.1132818160467721  1.0000
  C   C10       1.0  0.3057685981328573  0.6114696422185019  0.8867175387200774  1.0000
  C   C11       1.0  0.6319964492567961  0.2640828690959793  0.0335298317163293  1.0000
  C   C12       1.0  0.36800333465641427  0.7359191637658639  0.9664704321943557  1.0000
  C   C13       1.0  0.6433832745854672  0.28632106736958457  0.9068339411596114  1.0000
  C   C14       1.0  0.356609160621609  0.7136809685801423  0.0931663201461035  1.0000
  C   C15       1.0  0.5776987699897232  0.1550545175121698  0.8199738218801116  1.0000
  C   C16       1.0  0.42229424327866366  0.8449486778110611  0.1800255475880164  1.0000
  C   C17       1.0  0.36893405662547707  0.0927886257701687  0.7776036630115541  1.0000
  C   C18       1.0  0.2759501340358169  0.9071238404475039  0.22281630187319476  1.0000
  C   C19       1.0  0.6310578952603759  0.9072065521956671  0.2223973838027007  1.0000
  C   C20       1.0  0.7240428518940689  0.09287929518036012  0.7771858075303227  1.0000
  C   C21       1.0  0.3070677182702609  0.9704017977767805  0.6960967538760057  1.0000
  C   C22       1.0  0.33695785824695423  0.0296106965295166  0.3042489309372982  1.0000
  C   C23       1.0  0.692926613262408  0.029592259377309898  0.3039033591942371  1.0000
  C   C24       1.0  0.6630398687508929  0.9703901576779401  0.6957531376017769  1.0000
  C   C25       1.0  0.4535978744997066  0.9076653563475502  0.6552527073238251  1.0000
  C   C26       1.0  0.5464010942480044  0.0923320980980691  0.3447483845228162  1.0000
  C   C27       1.0  0.3833529929582865  0.7673109586201149  0.577245794453404  1.0000
  C   C28       1.0  0.6166486016532602  0.23268881395492966  0.42275351423906216  1.0000
  O   O1        1.0  0.5681607265083598  0.4698195567118759  0.6751337160159991  1.0000
  O   O2        1.0  0.09723989712757226  0.5300211481674566  0.3247377353308352  1.0000
  O   O3        1.0  0.43183417397278107  0.5301756399172601  0.32486641852845105  1.0000
  O   O4        1.0  0.9027569564160132  0.469980905827995  0.6752616142260734  1.0000
  O   O5        1.0  0.5232251268808739  0.712115516489213  0.54888216392402  1.0000
  O   O6        1.0  0.8116569313513508  0.28775819291818283  0.4511913560881951  1.0000
  O   O7        1.0  0.47677530249522687  0.287881917440373  0.45111984175541403  1.0000
  O   O8        1.0  0.18834261545766381  0.7122404209009401  0.5488088439208665  1.0000
  O   O9        1.0  0.7938537967834449  0.5880993308071824  0.4543493400832403  1.0000
  O   O10       1.0  0.2061454181812934  0.4119015625796152  0.5456509023532377  1.0000
