data_image0
_chemical_formula_structural       Er2H18C9O24
_chemical_formula_sum              "Er2 H18 C9 O24"
_cell_length_a       8.725438337646274
_cell_length_b       8.725463017426762
_cell_length_c       8.725397572529374
_cell_angle_alpha    66.46302331610204
_cell_angle_beta     66.46303253271434
_cell_angle_gamma    66.46299189781915

_space_group_name_H-M_alt    "P 1"
_space_group_IT_number       1

loop_
  _space_group_symop_operation_xyz
  'x, y, z'

loop_
  _atom_site_type_symbol
  _atom_site_label
  _atom_site_symmetry_multiplicity
  _atom_site_fract_x
  _atom_site_fract_y
  _atom_site_fract_z
  _atom_site_occupancy
  Er  Er1       1.0  0.2330410430046542  0.23304340052015252  0.23304216023228722  1.0000
  Er  Er2       1.0  0.766954760503964  0.766960849482125  0.7669646569505629  1.0000
  H   H1        1.0  0.3243677525495413  0.5505992511469773  0.19215854217168976  1.0000
  H   H2        1.0  0.19216303804279292  0.3243823587527928  0.5505890377804974  1.0000
  H   H3        1.0  0.5505951042955959  0.19216754173599782  0.32437183849382467  1.0000
  H   H4        1.0  0.8078431303059406  0.4494037018126634  0.6756279732748353  1.0000
  H   H5        1.0  0.44941078771847026  0.6756244237694348  0.8078335110501556  1.0000
  H   H6        1.0  0.6756326558342777  0.8078393692335483  0.4494061259143364  1.0000
  H   H7        1.0  0.23115663161206607  0.2838773587308055  0.8632276738518456  1.0000
  H   H8        1.0  0.8632272819059638  0.23116037468982145  0.28387844132076606  1.0000
  H   H9        1.0  0.2838762193956298  0.8632287956056429  0.23115933944984596  1.0000
  H   H10       1.0  0.13677681862490224  0.7161189406100662  0.7688410953729273  1.0000
  H   H11       1.0  0.7161262439945306  0.7688374682547237  0.13677890997671224  1.0000
  H   H12       1.0  0.7688446664889528  0.13676632886672027  0.7161258963336152  1.0000
  H   H13       1.0  0.04640003770297336  0.3742618567149379  0.9766730123494087  1.0000
  H   H14       1.0  0.9766723950897004  0.04640342644805881  0.3742661163160648  1.0000
  H   H15       1.0  0.3742703896219054  0.9766718854277132  0.04640283848819134  1.0000
  H   H16       1.0  0.02333266396862401  0.625727859042108  0.9535967678359115  1.0000
  H   H17       1.0  0.6257355318275658  0.9535957256597815  0.023336376184971475  1.0000
  H   H18       1.0  0.953601597026072  0.023320700900328  0.6257409140426377  1.0000
  C   C1        1.0  0.5356292314068226  0.46436800041351495  4.896157362697413e-07  1.0000
  C   C2        1.0  0.9999984114409202  0.5356350226771698  0.46436885067318207  1.0000
  C   C3        1.0  0.4643770625694544  4.3753026800049837e-07  0.5356281494006013  1.0000
  C   C4        1.0  0.5841361590828811  0.3154797374238925  0.9179441532847152  1.0000
  C   C5        1.0  0.9179353174480694  0.5841450181585159  0.3154833292168107  1.0000
  C   C6        1.0  0.3154889596035489  0.9179417719173202  0.5841388738795316  1.0000
  C   C7        1.0  0.08205915994598455  0.6845231389649059  0.4158600546403832  1.0000
  C   C8        1.0  0.6845117523091561  0.41585671421558607  0.082067997269938  1.0000
  C   C9        1.0  0.41586578552083614  0.08205853699968911  0.6845184060419316  1.0000
  O   O1        1.0  0.37205276747022964  0.4623558350973767  0.12269788169989229  1.0000
  O   O2        1.0  0.12270518752614383  0.37206813404855404  0.4623443028843894  1.0000
  O   O3        1.0  0.4623567949900362  0.12270026788568342  0.37205685624107343  1.0000
  O   O4        1.0  0.8773003364937607  0.5376484333065364  0.627942118029964  1.0000
  O   O5        1.0  0.5376547647322881  0.6279334319435109  0.8772941428759323  1.0000
  O   O6        1.0  0.6279485986118233  0.8773027119908221  0.5376478872205864  1.0000
  O   O7        1.0  0.5096426502684467  0.19660798761693604  0.0090141379938941  1.0000
  O   O8        1.0  0.009015257090879886  0.5096535277906825  0.19660425555571234  1.0000
  O   O9        1.0  0.1966117997480978  0.0090156467159588  0.5096559747677318  1.0000
  O   O10       1.0  0.9909830543263286  0.803395031403852  0.49035792450981575  1.0000
  O   O11       1.0  0.8033910595500301  0.49034675711368453  0.9909872257478373  1.0000
  O   O12       1.0  0.4903446872943249  0.9909898617260142  0.803392906628133  1.0000
  O   O13       1.0  0.6990316222448171  0.31826081173509385  0.771973423935407  1.0000
  O   O14       1.0  0.7719692966291092  0.699028068953986  0.31827231093185304  1.0000
  O   O15       1.0  0.3182753208297627  0.7719713175052832  0.6990296898800992  1.0000
  O   O16       1.0  0.22801995263759517  0.6817434001687347  0.3009682619805645  1.0000
  O   O17       1.0  0.6817272707563334  0.3009749511409511  0.228032364132588  1.0000
  O   O18       1.0  0.30096853107770016  0.2280354726927882  0.6817271459911681  1.0000
  O   O19       1.0  0.1701586041281331  0.319786426387509  0.973021511246991  1.0000
  O   O20       1.0  0.9730226171803554  0.170160888002421  0.3197906723904892  1.0000
  O   O21       1.0  0.31978998430302147  0.973021831889163  0.17016058427582698  1.0000
  O   O22       1.0  0.026982388137696454  0.6802072296625357  0.8298395389917415  1.0000
  O   O23       1.0  0.6802190956721503  0.8298382836929575  0.02698197240563609  1.0000
  O   O24       1.0  0.8298430437349894  0.026973314875164103  0.6802144306016659  1.0000
