data_image0
_chemical_formula_structural       Zn2H24C32N16
_chemical_formula_sum              "Zn2 H24 C32 N16"
_cell_length_a       9.525708938664168
_cell_length_b       9.526270884776562
_cell_length_c       11.934378558717523
_cell_angle_alpha    94.82761729225246
_cell_angle_beta     108.15607790624618
_cell_angle_gamma    120.28298465147738

_space_group_name_H-M_alt    "P 1"
_space_group_IT_number       1

loop_
  _space_group_symop_operation_xyz
  'x, y, z'

loop_
  _atom_site_type_symbol
  _atom_site_label
  _atom_site_symmetry_multiplicity
  _atom_site_fract_x
  _atom_site_fract_y
  _atom_site_fract_z
  _atom_site_occupancy
  Zn  Zn1       1.0  0.4999978922786209  0.9999998068389072  7.583808773475073e-08  1.0000
  Zn  Zn2       1.0  0.5000017397291144  0.500001189939084  0.5000009383353472  1.0000
  H   H1        1.0  0.5729561285144625  0.326712154691961  0.9422047731749785  1.0000
  H   H2        1.0  0.8845298249337359  0.6307816719160755  0.5578272404428615  1.0000
  H   H3        1.0  0.42704253858622804  0.6732876868028369  0.05779406411669181  1.0000
  H   H4        1.0  0.1154721755306553  0.36921818210223  0.4421732377224359  1.0000
  H   H5        1.0  0.8842759698431593  0.21164243710468608  0.1891096617692725  1.0000
  H   H6        1.0  0.5225311695003042  0.6952499653190997  0.31100786855175494  1.0000
  H   H7        1.0  0.1157197422958303  0.7883560602259717  0.810890869924833  1.0000
  H   H8        1.0  0.47746898170147745  0.3047486070177357  0.6889920609171442  1.0000
  H   H9        1.0  0.8085688301971314  0.6380662261358125  0.02885466279877846  1.0000
  H   H10       1.0  0.10910690767996556  0.7795396588364909  0.4710687659295871  1.0000
  H   H11       1.0  0.19143094910922537  0.36193360787185463  0.9711452794621066  1.0000
  H   H12       1.0  0.8908947208890081  0.22046145685265364  0.5289317250276966  1.0000
  H   H13       1.0  0.1328329013173573  0.5191382588397815  0.289716313751576  1.0000
  H   H14       1.0  0.7292959378610958  0.8429692779253343  0.21026538774959383  1.0000
  H   H15       1.0  0.8671650287263901  0.48086029348641535  0.7102830798129103  1.0000
  H   H16       1.0  0.2707042117140404  0.15702931190394756  0.7897337047022928  1.0000
  H   H17       1.0  0.19791786662430852  0.8474195537899119  0.17326046002546738  1.0000
  H   H18       1.0  0.1740719600703002  0.024551852977381796  0.3268007871171221  1.0000
  H   H19       1.0  0.8020800634194315  0.15257899853628487  0.8267389335390262  1.0000
  H   H20       1.0  0.8259267070303976  0.9754479885174091  0.6731980501745481  1.0000
  H   H21       1.0  0.23349351550263703  0.8067831460386257  0.3171629988799935  1.0000
  H   H22       1.0  0.9896195135343145  0.9161823637977657  0.1828356542297554  1.0000
  H   H23       1.0  0.7665070008606705  0.1932179771376425  0.6828363871080754  1.0000
  H   H24       1.0  0.010378416509432487  0.0838161885284308  0.8171637393347309  1.0000
  C   C1        1.0  0.699545830044421  0.37570090169501913  0.01942623961648578  1.0000
  C   C2        1.0  0.856234587648018  0.6800616399628153  0.4805714022968245  1.0000
  C   C3        1.0  0.3004528403095604  0.6242989048148785  0.9805742717092085  1.0000
  C   C4        1.0  0.14376815149996955  0.31993948573164477  0.5194293566126689  1.0000
  C   C5        1.0  0.830711943883159  0.5487733009212548  0.06907882949874278  1.0000
  C   C6        1.0  0.9795724841633345  0.761448439755341  0.4308510770633447  1.0000
  C   C7        1.0  0.16928894762886415  0.45122652559928866  0.9309222177313571  1.0000
  C   C8        1.0  0.020429144405632357  0.23855267593379637  0.569149413893939  1.0000
  C   C9        1.0  0.9894156269422113  0.6062768778260191  0.17056950622106365  1.0000
  C   C10       1.0  0.9355650630734473  0.8186202540968563  0.32935762353110215  1.0000
  C   C11       1.0  0.010584527512861482  0.39372165952592286  0.8294320972818526  1.0000
  C   C12       1.0  0.0644358268119305  0.1813795899161335  0.6706425866819927  1.0000
  C   C13       1.0  0.010348033861404654  0.48253038990046787  0.21303552209148077  1.0000
  C   C14       1.0  0.7693820365238648  0.7971845844855848  0.2869440836293434  1.0000
  C   C15       1.0  0.9896510083880018  0.5174681549386051  0.7869649764422277  1.0000
  C   C16       1.0  0.23061922525693748  0.20281399785657325  0.713056113791758  1.0000
  C   C17       1.0  0.8731587450032237  0.3113429456040748  0.15772953535558543  1.0000
  C   C18       1.0  0.6535530318458811  0.7153936586889669  0.3423096248444749  1.0000
  C   C19       1.0  0.12684103592977164  0.6886568709111455  0.8422712439223188  1.0000
  C   C20       1.0  0.34644785966614217  0.2846061678315762  0.6576914223856319  1.0000
  C   C21       1.0  0.13077196461164667  0.792743924507725  0.23369583058678228  1.0000
  C   C22       1.0  0.059038939377238  0.8969320482442806  0.2663267156980495  1.0000
  C   C23       1.0  0.8692278130680647  0.2072559269923886  0.7663032746570904  1.0000
  C   C24       1.0  0.9409626891917282  0.10306906744485639  0.733673775259234  1.0000
  C   C25       1.0  0.43237168756472477  0.9549797505527164  0.7111455706153506  1.0000
  C   C26       1.0  0.7442227339176524  0.7214663780626862  0.7889348235614262  1.0000
  C   C27       1.0  0.5676280901149937  0.04502010094739718  0.28885353462852237  1.0000
  C   C28       1.0  0.2557785227558895  0.2785359992972828  0.21106568018785046  1.0000
  C   C29       1.0  0.42165322133341465  0.7886189530901716  0.5532026584306919  1.0000
  C   C30       1.0  0.7356441385051651  0.868596678498754  0.9468111312002349  1.0000
  C   C31       1.0  0.5783487791309838  0.2113809009281411  0.4467978197345985  1.0000
  C   C32       1.0  0.2643552689057671  0.13140441717974474  0.05318882385264348  1.0000
  N   N1        1.0  0.7183633679819081  0.2584189570060574  0.06413042848325289  1.0000
  N   N2        1.0  0.694266593125711  0.6542315306621803  0.43589839223029253  1.0000
  N   N3        1.0  0.2816356758941437  0.7415795703405618  0.9358709070674676  1.0000
  N   N4        1.0  0.3057354089653259  0.3457683058636859  0.5641029229520171  1.0000
  N   N5        1.0  0.4480555577604051  0.0073664944753915  0.810429939782118  1.0000
  N   N6        1.0  0.6972495630466398  0.6378559277271448  0.6896299400139438  1.0000
  N   N7        1.0  0.5519427390715065  0.9926345911977916  0.18956974731855772  1.0000
  N   N8        1.0  0.3027520671489796  0.36214517046954586  0.3103713879603518  1.0000
  N   N9        1.0  0.4141067393253408  0.9110421188518244  0.5994389901513271  1.0000
  N   N10       1.0  0.811951952662376  0.8148953450003303  0.9006453216448944  1.0000
  N   N11       1.0  0.5858934135030864  0.08895643599256428  0.4005617763345839  1.0000
  N   N12       1.0  0.18804708122648606  0.18510702984144692  0.09935380918295778  1.0000
  N   N13       1.0  0.4223570602027207  0.6789519927371184  0.5000856077714741  1.0000
  N   N14       1.0  0.6788836663637382  0.9222388618654093  0.9998521864960209  1.0000
  N   N15       1.0  0.5776438296826569  0.32104785127587127  0.49991460244161345  1.0000
  N   N16       1.0  0.3211157394205485  0.07776225130554339  0.000146931539845156  1.0000
