data_image0
_chemical_formula_structural       CdH10C14N8
_chemical_formula_sum              "Cd1 H10 C14 N8"
_cell_length_a       7.829827464850056
_cell_length_b       7.926815042547702
_cell_length_c       7.926754420538775
_cell_angle_alpha    112.31273143376275
_cell_angle_beta     105.14954850050627
_cell_angle_gamma    105.14950431579855

_space_group_name_H-M_alt    "P 1"
_space_group_IT_number       1

loop_
  _space_group_symop_operation_xyz
  'x, y, z'

loop_
  _atom_site_type_symbol
  _atom_site_label
  _atom_site_symmetry_multiplicity
  _atom_site_fract_x
  _atom_site_fract_y
  _atom_site_fract_z
  _atom_site_occupancy
  Cd  Cd1       1.0  0.9999834144932083  0.9999977122955385  0.9999960462601294  1.0000
  H   H1        1.0  0.36416184052252026  0.7902384125883657  0.7902513003159582  1.0000
  H   H2        1.0  0.6358700623436067  0.20975826938204997  0.20975121167092686  1.0000
  H   H3        1.0  0.29324845937944843  0.7908786801315913  0.4623338947429545  1.0000
  H   H4        1.0  0.7067714655792443  0.5376740560719284  0.2091150832311968  1.0000
  H   H5        1.0  0.7067804153788304  0.20911351931313502  0.5376674153329121  1.0000
  H   H6        1.0  0.29324473874786633  0.46231951093827933  0.7908861633116331  1.0000
  H   H7        1.0  0.15354510671795651  0.46374851658556077  0.14955943064542512  1.0000
  H   H8        1.0  0.8464621385987527  0.8504418127187918  0.5362467701369978  1.0000
  H   H9        1.0  0.8464676324200158  0.5362464983984694  0.8504377355233502  1.0000
  H   H10       1.0  0.1535433881583614  0.1495516487372583  0.4637480287414064  1.0000
  C   C1        1.0  0.35252506926020305  0.8420572969696708  0.158901368064143  1.0000
  C   C2        1.0  0.6474256330724872  0.8411139506772756  0.1579496107703805  1.0000
  C   C3        1.0  0.6474353855948752  0.1579491202760792  0.8411037348145881  1.0000
  C   C4        1.0  0.3525335012269722  0.1589028480438728  0.8420578894927004  1.0000
  C   C5        1.0  0.3048090963253857  0.6512973099163518  0.651310000160457  1.0000
  C   C6        1.0  0.6952128841547492  0.34869778861084916  0.34868568255677707  1.0000
  C   C7        1.0  0.2656978886230235  0.6526452273749113  0.4699980760292206  1.0000
  C   C8        1.0  0.7343210133899165  0.5300041127455657  0.3473411669368431  1.0000
  C   C9        1.0  0.7343278751489564  0.34735287578892843  0.5299984269938136  1.0000
  C   C10       1.0  0.2656981107446867  0.46999392738582907  0.6526536813485606  1.0000
  C   C11       1.0  0.18791525154588126  0.47172918617552984  0.2956245750208524  1.0000
  C   C12       1.0  0.8120945207468895  0.704369107704089  0.5282613147402843  1.0000
  C   C13       1.0  0.8121018797275429  0.5282703270755107  0.7043766573959402  1.0000
  C   C14       1.0  0.18791266271862384  0.2956184264544319  0.4717290933802474  1.0000
  N   N1        1.0  0.14969736117192414  0.2969863264367661  0.29699100470373463  1.0000
  N   N2        1.0  0.8503077933322917  0.7030026777065715  0.7030032541587091  1.0000
  N   N3        1.0  0.4999828846871282  0.797923523138202  0.20209207814723137  1.0000
  N   N4        1.0  0.4999931116883689  0.20209937310163897  0.7979193793601311  1.0000
  N   N5        1.0  0.21022044135767715  0.8715998818004493  0.12980033725574466  1.0000
  N   N6        1.0  0.7897328373908437  0.8702126720917321  0.1283942096784828  1.0000
  N   N7        1.0  0.7897426619805048  0.12839616657639397  0.8702026991861586  1.0000
  N   N8        1.0  0.21023544800047492  0.1298042023354924  0.8716054736593576  1.0000
