data_image0
_chemical_formula_structural       Er2Cu2H44C36I2N10O18
_chemical_formula_sum              "Er2 Cu2 H44 C36 I2 N10 O18"
_cell_length_a       10.909131997094832
_cell_length_b       12.67987771410881
_cell_length_c       14.543735926610939
_cell_angle_alpha    91.96415541432394
_cell_angle_beta     96.4492586900404
_cell_angle_gamma    120.16215779945877

_space_group_name_H-M_alt    "P 1"
_space_group_IT_number       1

loop_
  _space_group_symop_operation_xyz
  'x, y, z'

loop_
  _atom_site_type_symbol
  _atom_site_label
  _atom_site_symmetry_multiplicity
  _atom_site_fract_x
  _atom_site_fract_y
  _atom_site_fract_z
  _atom_site_occupancy
  Er  Er1       1.0  0.22109921525794357  0.1240457879663808  0.5372318792000428  1.0000
  Er  Er2       1.0  0.7789346641890732  0.8759681747394058  0.46277963718128495  1.0000
  Cu  Cu1       1.0  0.011871212625621342  0.496893405206926  0.08781901520562492  1.0000
  Cu  Cu2       1.0  0.9881287466147269  0.5031093215539002  0.912189114472909  1.0000
  H   H1        1.0  0.2601081568457673  0.7085320729956595  0.205639746167833  1.0000
  H   H2        1.0  0.7398919385335886  0.2914770760745213  0.7943424591146452  1.0000
  H   H3        1.0  0.29676240462508463  0.854950884539818  0.34038563630727486  1.0000
  H   H4        1.0  0.7032601222300059  0.1450735689094103  0.6595887304725209  1.0000
  H   H5        1.0  0.8384886000334076  0.7046180779738053  0.2993109808290413  1.0000
  H   H6        1.0  0.16154154682778454  0.29541905364861526  0.7006953934639384  1.0000
  H   H7        1.0  0.8196924305782929  0.5598907111831012  0.1686570108955792  1.0000
  H   H8        1.0  0.1803075965994694  0.4401173352596928  0.8313615984542863  1.0000
  H   H9        1.0  0.2224892403678425  0.42743561289871934  0.1602276775018083  1.0000
  H   H10       1.0  0.7775124626712396  0.5725565472520914  0.839760351634638  1.0000
  H   H11       1.0  0.22919936254702836  0.28874943690000526  0.2786190585814126  1.0000
  H   H12       1.0  0.7708157344639305  0.7112567519858147  0.7213623440342118  1.0000
  H   H13       1.0  0.7717638451685642  0.11911468627990023  0.2586088049762054  1.0000
  H   H14       1.0  0.2282614303405736  0.8808953580696013  0.7413990699074802  1.0000
  H   H15       1.0  0.7833310978314998  0.2677811807109123  0.1426454138548436  1.0000
  H   H16       1.0  0.21667587859966636  0.7322191600958591  0.8573605248342346  1.0000
  H   H17       1.0  0.6050753489814298  0.1711130721336502  0.4835519074894066  1.0000
  H   H18       1.0  0.39490649207230905  0.8288701434007067  0.5164471322288549  1.0000
  H   H19       1.0  0.7251576972383091  0.22424631694795494  0.3986869730847289  1.0000
  H   H20       1.0  0.27481921937012294  0.7757313270769047  0.6013107692576369  1.0000
  H   H21       1.0  0.623943444651168  0.06466838362021582  0.410826076845197  1.0000
  H   H22       1.0  0.37602557690580346  0.9353116375349375  0.5891689640299519  1.0000
  H   H23       1.0  0.3870519017052061  0.06518497558877101  0.21241617380954383  1.0000
  H   H24       1.0  0.612897558214982  0.934793287116193  0.7875887448132913  1.0000
  H   H25       1.0  0.49513738539548763  0.0018962246264421921  0.2517014845645491  1.0000
  H   H26       1.0  0.5048151347898083  0.9980857805626046  0.7482976329135838  1.0000
  H   H27       1.0  0.5766012153407019  0.15352931774140188  0.2160558214229269  1.0000
  H   H28       1.0  0.42335062694488107  0.8464428794180422  0.7839298765847644  1.0000
  H   H29       1.0  0.3180020385457354  0.14008257730090182  0.31559267796865237  1.0000
  H   H30       1.0  0.6819904630549942  0.8599315368512637  0.6844068711436294  1.0000
  H   H31       1.0  0.1468292336389468  0.4202670129944794  0.5604053471288566  1.0000
  H   H32       1.0  0.8531386928699404  0.5796994883572354  0.4395960661665015  1.0000
  H   H33       1.0  0.0983807533513499  0.48859007638801444  0.46747344054425344  1.0000
  H   H34       1.0  0.9015697161833882  0.5113631880290372  0.5325232559415554  1.0000
  H   H35       1.0  0.24224738105819907  0.5834911099694722  0.5583988385535861  1.0000
  H   H36       1.0  0.7576999012222102  0.41647636855543624  0.44159593453494483  1.0000
  H   H37       1.0  0.41156292880477713  0.548968549694905  0.35491891902110234  1.0000
  H   H38       1.0  0.5883659277879901  0.450968701938429  0.6450581639975042  1.0000
  H   H39       1.0  0.3969519022743243  0.6618884796576766  0.4210319617723925  1.0000
  H   H40       1.0  0.6030020828130489  0.33807225597311696  0.5789363951818203  1.0000
  H   H41       1.0  0.2477445187450655  0.551089012338501  0.3381403352570942  1.0000
  H   H42       1.0  0.7521862663890886  0.44885362325280914  0.6618494594815587  1.0000
  H   H43       1.0  0.39691373336983565  0.399527694590475  0.4298281236755486  1.0000
  H   H44       1.0  0.6030732013730641  0.6004646940144199  0.5701702737534333  1.0000
  C   C1        1.0  0.16923237874891578  0.7085009553993089  0.2304666947234679  1.0000
  C   C2        1.0  0.8307693638928342  0.2915063999404738  0.7695279818650747  1.0000
  C   C3        1.0  0.18912241185417866  0.7907560500540357  0.304405373423684  1.0000
  C   C4        1.0  0.8108978277137808  0.2092646231063853  0.6955872398221103  1.0000
  C   C5        1.0  0.06957688819501576  0.7906240152972259  0.3311800339324265  1.0000
  C   C6        1.0  0.9304508641085859  0.209398709389319  0.6688215676117011  1.0000
  C   C7        1.0  0.9339356603793405  0.7062766717215896  0.2820055767638721  1.0000
  C   C8        1.0  0.066082024003137  0.2937447006738907  0.7180033302903581  1.0000
  C   C9        1.0  0.9229028675465544  0.6261869322407706  0.20967631652770544  1.0000
  C   C10       1.0  0.0770985759405178  0.3738185269420384  0.7903347789346995  1.0000
  C   C11       1.0  0.08518224001238664  0.8809353661874585  0.4072914606961575  1.0000
  C   C12       1.0  0.9148628572302402  0.11909701930643024  0.5927126775783691  1.0000
  C   C13       1.0  0.1255846881627677  0.3590047492621837  0.18560215594175133  1.0000
  C   C14       1.0  0.8744266980992846  0.6409967170959947  0.8143952740835516  1.0000
  C   C15       1.0  0.1284489357817336  0.2819498528647699  0.2503184354215549  1.0000
  C   C16       1.0  0.871581675092898  0.7180613470546646  0.7496823901347369  1.0000
  C   C17       1.0  0.0005585905567358323  0.19586074807711648  0.2798993259281986  1.0000
  C   C18       1.0  0.9994709970530737  0.8041539046941256  0.7201173261001231  1.0000
  C   C19       1.0  0.8732942653012401  0.18808443477383466  0.23940519431295118  1.0000
  C   C20       1.0  0.12672016692646093  0.8119278203492118  0.7606079603273841  1.0000
  C   C21       1.0  0.8792162834566994  0.2691159565747796  0.17582846807071206  1.0000
  C   C22       1.0  0.12079232739547041  0.7308907097371032  0.8241798699851799  1.0000
  C   C23       1.0  0.9995166196930613  0.1168187768029014  0.35465265988584344  1.0000
  C   C24       1.0  0.0005068729539274301  0.8832064154153797  0.6453568839050022  1.0000
  C   C25       1.0  0.6217594146033107  0.1501725112151036  0.41403810338505304  1.0000
  C   C26       1.0  0.3782206647705594  0.8498124471821953  0.5859567045158299  1.0000
  C   C27       1.0  0.4902037207138648  0.0863326114706666  0.2512546798162845  1.0000
  C   C28       1.0  0.5097583310566094  0.9136399286094415  0.7487450110194445  1.0000
  C   C29       1.0  0.4082522291253667  0.16301129169938383  0.3708777771555773  1.0000
  C   C30       1.0  0.5917396625130562  0.8369983341051536  0.6291188321576016  1.0000
  C   C31       1.0  0.18753619602212268  0.4945497493255928  0.5155202297955555  1.0000
  C   C32       1.0  0.8124217829416625  0.5054136900920414  0.4844746964252806  1.0000
  C   C33       1.0  0.3383066281969108  0.5662651450152368  0.3896648171733332  1.0000
  C   C34       1.0  0.6616350874952985  0.4336904961862658  0.6103229121404752  1.0000
  C   C35       1.0  0.32721000740168893  0.4025365137987079  0.4780234968107422  1.0000
  C   C36       1.0  0.6727844174310603  0.5974561531049929  0.5219803956927933  1.0000
  I   I1        1.0  0.24846235490707602  0.5931357568688114  0.00974513358733021  1.0000
  I   I2        1.0  0.7515438533162282  0.4068716765014031  0.99026851229209  1.0000
  N   N1        1.0  0.03805426164885259  0.6261909043465367  0.1836685856605556  1.0000
  N   N2        1.0  0.9619388708268346  0.3738044049235541  0.8163338946177063  1.0000
  N   N3        1.0  0.0035423308156978892  0.3556688988146847  0.15030424091858657  1.0000
  N   N4        1.0  0.9964685232258859  0.6443432913406542  0.8496941502634884  1.0000
  N   N5        1.0  0.40941884875646656  0.17314834892675185  0.7060390284862166  1.0000
  N   N6        1.0  0.5906357478907367  0.8268727939919316  0.2939628765461819  1.0000
  N   N7        1.0  0.5039117574165815  0.1359927078579162  0.3462327180331783  1.0000
  N   N8        1.0  0.49606910116345665  0.8640003404480581  0.6537630900016255  1.0000
  N   N9        1.0  0.2862828151043147  0.48412855297181084  0.46173440861774406  1.0000
  N   N10       1.0  0.7136870104173241  0.5158479178356005  0.5382605981386845  1.0000
  O   O1        1.0  0.21040944758922123  0.9613502631421513  0.4467646297325203  1.0000
  O   O2        1.0  0.7896249062148968  0.03866743677120609  0.5532229750138171  1.0000
  O   O3        1.0  0.9717744094772699  0.8749889425215971  0.427865697551745  1.0000
  O   O4        1.0  0.028294983151660288  0.12505068815290338  0.5721435928321127  1.0000
  O   O5        1.0  0.1212200602484259  0.1368927857880635  0.39317531652070403  1.0000
  O   O6        1.0  0.8787988094957199  0.8631393110962835  0.6068470830998507  1.0000
  O   O7        1.0  0.878522795314858  0.03858762207204342  0.3749400644611498  1.0000
  O   O8        1.0  0.12150172986211058  0.9614242333095149  0.6250588583250263  1.0000
  O   O9        1.0  0.41580575305356854  0.21042832089520402  0.4503642952247944  1.0000
  O   O10       1.0  0.5842040899099458  0.7895936893148842  0.5496329241459819  1.0000
  O   O11       1.0  0.2922631383534124  0.3341440713719877  0.542230385850921  1.0000
  O   O12       1.0  0.7077648565507745  0.6658660375993721  0.4577859867862557  1.0000
  O   O13       1.0  0.31921452547610585  0.21020325106380977  0.6982281507806718  1.0000
  O   O14       1.0  0.6808725148227454  0.7898497013244212  0.3017721239316131  1.0000
  O   O15       1.0  0.424969553839766  0.1300860305229889  0.6285637962770495  1.0000
  O   O16       1.0  0.5750624265944921  0.8699179627271079  0.371454126643215  1.0000
  O   O17       1.0  0.47729776708739274  0.17757171017954934  0.7810921900213188  1.0000
  O   O18       1.0  0.5227430308959458  0.8224479476570966  0.21891324304782245  1.0000
