data_image0
_chemical_formula_structural       Zn4H56C40N16Cl8
_chemical_formula_sum              "Zn4 H56 C40 N16 Cl8"
_cell_length_a       7.791845224565013
_cell_length_b       11.47792982801025
_cell_length_c       15.67388337580877
_cell_angle_alpha    89.99994205089068
_cell_angle_beta     91.80856285420548
_cell_angle_gamma    90.00014317283022

_space_group_name_H-M_alt    "P 1"
_space_group_IT_number       1

loop_
  _space_group_symop_operation_xyz
  'x, y, z'

loop_
  _atom_site_type_symbol
  _atom_site_label
  _atom_site_symmetry_multiplicity
  _atom_site_fract_x
  _atom_site_fract_y
  _atom_site_fract_z
  _atom_site_occupancy
  Zn  Zn1       1.0  0.0343553224324253  0.8917948372022837  0.22333607835100364  1.0000
  Zn  Zn2       1.0  0.9656445813641739  0.3917925315369005  0.27666437348568  1.0000
  Zn  Zn3       1.0  0.9656429310440021  0.10820707542286809  0.7766646531058683  1.0000
  Zn  Zn4       1.0  0.034357545949887915  0.6082058961429055  0.7233358141259245  1.0000
  H   H1        1.0  0.8262795066242745  0.6441916428745528  0.19570399544689107  1.0000
  H   H2        1.0  0.17371821047537142  0.14419057256628784  0.30429659426508937  1.0000
  H   H3        1.0  0.1737187468489694  0.3558085272760961  0.8042967360105776  1.0000
  H   H4        1.0  0.8262838498503058  0.8558061126376444  0.6957055060186973  1.0000
  H   H5        1.0  0.028305872034842097  0.8826888011421589  0.019598473243732397  1.0000
  H   H6        1.0  0.9716978500789467  0.38268970910985434  0.4804020785219976  1.0000
  H   H7        1.0  0.9716962106240034  0.11731049777397833  0.980402989481959  1.0000
  H   H8        1.0  0.0283056057352269  0.6173113322836841  0.5195968652112342  1.0000
  H   H9        1.0  0.8819813202337841  0.6931660418294143  0.9303406954617512  1.0000
  H   H10       1.0  0.1180207950537451  0.1931669439943776  0.5696584698649971  1.0000
  H   H11       1.0  0.1180208294086853  0.30683238585085343  0.0696588545926531  1.0000
  H   H12       1.0  0.881980070754956  0.8068340973965747  0.4303410489516039  1.0000
  H   H13       1.0  0.7444613268571275  0.47571178336860953  0.0961229057246555  1.0000
  H   H14       1.0  0.2555375097860803  0.9757116001256637  0.40388000778802535  1.0000
  H   H15       1.0  0.2555381434678524  0.5242875155444793  0.9038797696416124  1.0000
  H   H16       1.0  0.7444606320419708  0.02428682754819531  0.5961239114560256  1.0000
  H   H17       1.0  0.7995358429948568  0.48679683697120896  0.9872455159326208  1.0000
  H   H18       1.0  0.2004633128444766  0.986797101040125  0.5127584555917649  1.0000
  H   H19       1.0  0.20046488883865982  0.5132015907052363  0.012757828228046697  1.0000
  H   H20       1.0  0.799536068166887  0.013202197871123604  0.4872467700032885  1.0000
  H   H21       1.0  0.5435821432476475  0.6179892867049049  0.9597799908725617  1.0000
  H   H22       1.0  0.4564196979131907  0.11798905974888642  0.5402192258001933  1.0000
  H   H23       1.0  0.4564213125633501  0.3820100122141383  0.0402189528612666  1.0000
  H   H24       1.0  0.5435824517308633  0.882010239168629  0.45978032425392  1.0000
  H   H25       1.0  0.48263594804206633  0.5972639891821103  0.0669192701502155  1.0000
  H   H26       1.0  0.517365494115232  0.09726419368512043  0.43308017020918743  1.0000
  H   H27       1.0  0.5173649177650435  0.40273618097159414  0.9330802486666838  1.0000
  H   H28       1.0  0.4826353716887083  0.9027342339940817  0.5669193486083087  1.0000
  H   H29       1.0  0.08042146479959912  0.6596989355442702  0.3393355003136093  1.0000
  H   H30       1.0  0.919578921182392  0.15969932594062192  0.1606638661658408  1.0000
  H   H31       1.0  0.9195793786759338  0.34029949213447713  0.6606646560610797  1.0000
  H   H32       1.0  0.0804206831145962  0.8403008442124716  0.8393349838569504  1.0000
  H   H33       1.0  0.4499937941312311  0.898781620132553  0.252649365015472  1.0000
  H   H34       1.0  0.5500074636408812  0.39878126530927466  0.24734983817110387  1.0000
  H   H35       1.0  0.5500045040019969  0.10122029249351533  0.7473500913270144  1.0000
  H   H36       1.0  0.4499934021662356  0.6012189048444228  0.7526496806457955  1.0000
  H   H37       1.0  0.6174769769236192  0.7137901586647432  0.33335839984314924  1.0000
  H   H38       1.0  0.38252365095341645  0.21379050318503093  0.16663965457770044  1.0000
  H   H39       1.0  0.3825226720317616  0.2862108827265147  0.6666391750649582  1.0000
  H   H40       1.0  0.6174772371836852  0.7862105382063761  0.8333592266817076  1.0000
  H   H41       1.0  0.45532246223524453  0.4891162172363366  0.35341272244109223  1.0000
  H   H42       1.0  0.5446765349278806  0.9891160076289867  0.14658699413040208  1.0000
  H   H43       1.0  0.544678403573464  0.5108848241546156  0.6465867963755088  1.0000
  H   H44       1.0  0.4553204793604663  0.0108824200470181  0.8534124309763554  1.0000
  H   H45       1.0  0.2561221766768256  0.5072316506692333  0.4027911383056945  1.0000
  H   H46       1.0  0.7438751303307568  0.0072335738944886  0.09720699471996139  1.0000
  H   H47       1.0  0.7438762107652509  0.4927676482469252  0.5972057678088944  1.0000
  H   H48       1.0  0.256119338615278  0.9927683387288442  0.9027917303545934  1.0000
  H   H49       1.0  0.5979508832500926  0.6089897886929947  0.4724135916874061  1.0000
  H   H50       1.0  0.40204807864459  0.10899035842391673  0.0275845030749551  1.0000
  H   H51       1.0  0.40204741487836776  0.3910095102213235  0.5275858646559684  1.0000
  H   H52       1.0  0.5979515479839749  0.8910115542041341  0.9724137093900466  1.0000
  H   H53       1.0  0.39934340475911523  0.6095776693172325  0.5251902845964265  1.0000
  H   H54       1.0  0.6006545765449262  0.10957882834281922  0.9748082065530426  1.0000
  H   H55       1.0  0.6006536318592239  0.3904216295964814  0.4748085029528397  1.0000
  H   H56       1.0  0.3993463115937672  0.8904230842858355  0.025190674706067298  1.0000
  C   C1        1.0  0.8606076560154392  0.6857540858939971  0.1363089102722839  1.0000
  C   C2        1.0  0.139392757987558  0.1857537466501427  0.36369235108337955  1.0000
  C   C3        1.0  0.1393931428080535  0.3142469554955696  0.8636925212159098  1.0000
  C   C4        1.0  0.8606118923483521  0.814245552268126  0.6363091741161426  1.0000
  C   C5        1.0  0.9644861914949345  0.8054883735882613  0.0425890737848178  1.0000
  C   C6        1.0  0.035516009933715495  0.3054894715123028  0.457410224357325  1.0000
  C   C7        1.0  0.03551465198219012  0.19451092532772654  0.9574110825895799  1.0000
  C   C8        1.0  0.9644849005333854  0.6945124411168138  0.5425880193445849  1.0000
  C   C9        1.0  0.8931047768567026  0.7138352370693255  0.997856272238117  1.0000
  C   C10       1.0  0.10689993681781831  0.2138353424777861  0.5021442165600902  1.0000
  C   C11       1.0  0.10689991813601553  0.2861640618498598  0.002143977847012501  1.0000
  C   C12       1.0  0.8931021458410272  0.786163956438351  0.49785724616560856  1.0000
  C   C13       1.0  0.7345108666544178  0.5313228878302354  0.039218735760513795  1.0000
  C   C14       1.0  0.2654876334068135  0.031322627801479506  0.4607845125060804  1.0000
  C   C15       1.0  0.2654898875106753  0.46867728232116695  0.960783970842364  1.0000
  C   C16       1.0  0.7345066569088203  0.9686775423436845  0.5392193130266348  1.0000
  C   C17       1.0  0.5472001123349061  0.5557278450922426  0.013235793071018501  1.0000
  C   C18       1.0  0.4528011337046181  0.055726123670091  0.48676495077256027  1.0000
  C   C19       1.0  0.45280201498233913  0.4442723250620588  0.9867643945399819  1.0000
  C   C20       1.0  0.5471971420922659  0.9442714327692698  0.513235143128604  1.0000
  C   C21       1.0  0.20173626450431206  0.7027442650686027  0.32754705778553717  1.0000
  C   C22       1.0  0.7982643230962267  0.20274530511219524  0.1724510041794076  1.0000
  C   C23       1.0  0.7982633621210766  0.29725590508494554  0.6724511546800612  1.0000
  C   C24       1.0  0.20173530352916208  0.79725486504136  0.827547208286191  1.0000
  C   C25       1.0  0.39733148664503654  0.8221440416895403  0.2824186814881315  1.0000
  C   C26       1.0  0.6026706861992538  0.3221429458878262  0.21758315550775356  1.0000
  C   C27       1.0  0.6026680729967282  0.177856999699884  0.7175814436487612  1.0000
  C   C28       1.0  0.3973326802981276  0.6778563530293767  0.7824183384548531  1.0000
  C   C29       1.0  0.4820498265489235  0.7321269815293263  0.3230978274577154  1.0000
  C   C30       1.0  0.5179508458635242  0.23212754105173156  0.176900851996237  1.0000
  C   C31       1.0  0.5179458815740715  0.26787231738240547  0.6769022039690356  1.0000
  C   C32       1.0  0.4820500646035769  0.767874371577385  0.8230973917056801  1.0000
  C   C33       1.0  0.3831007802996851  0.5466212705730982  0.39522689785604115  1.0000
  C   C34       1.0  0.6168966480078667  0.04662209722255991  0.104771845824132  1.0000
  C   C35       1.0  0.6168975624871749  0.4533788995793914  0.6047712833726422  1.0000
  C   C36       1.0  0.38309908244670504  0.9533789441641294  0.8952275480448292  1.0000
  C   C37       1.0  0.4785447421635141  0.5597482236644568  0.4810311733874144  1.0000
  C   C38       1.0  0.5214540401770408  0.05974900737428611  0.0189669550067961  1.0000
  C   C39       1.0  0.5214536006217543  0.44025107525078533  0.5189670078415745  1.0000
  C   C40       1.0  0.47854558644993966  0.9402520340165169  0.981031257458504  1.0000
  N   N1        1.0  0.9432172239779887  0.7870241649967299  0.1288302800786738  1.0000
  N   N2        1.0  0.0567848654614522  0.28702280438292155  0.3711703057897253  1.0000
  N   N3        1.0  0.0567836195023119  0.2129768763937605  0.8711698762951201  1.0000
  N   N4        1.0  0.9432172618526167  0.7129756232968917  0.6288298818218718  1.0000
  N   N5        1.0  0.8290235734547479  0.638861510769118  0.058133768835631386  1.0000
  N   N6        1.0  0.1709767142142056  0.13886024570359012  0.44186624943351654  1.0000
  N   N7        1.0  0.17097729235236872  0.36113865938457923  0.9418657499812682  1.0000
  N   N8        1.0  0.829022823094391  0.8611381819736298  0.5581345132614643  1.0000
  N   N9        1.0  0.222338590427519  0.8028677672348792  0.28569756380712613  1.0000
  N   N10       1.0  0.7776622952765492  0.30286784334088424  0.21430234244552074  1.0000
  N   N11       1.0  0.7776596630473165  0.19713327415301765  0.7143031676500442  1.0000
  N   N12       1.0  0.22233983203910412  0.6971314555761764  0.7856978451657779  1.0000
  N   N13       1.0  0.35615201439205174  0.6576256160274666  0.35116502199181804  1.0000
  N   N14       1.0  0.643848408688946  0.15762729863072167  0.148833070788875  1.0000
  N   N15       1.0  0.643847612233337  0.3423745541260815  0.6488331904737805  1.0000
  N   N16       1.0  0.3561512402680265  0.8423746139977837  0.8511645041189269  1.0000
  Cl  Cl1       1.0  0.16976140906227502  0.038332733185754406  0.15472213813929864  1.0000
  Cl  Cl2       1.0  0.8302397958792227  0.5383327322507159  0.3452779800273404  1.0000
  Cl  Cl3       1.0  0.8302407182549701  0.9616674369685542  0.8452780494717089  1.0000
  Cl  Cl4       1.0  0.1697610252694943  0.4616665666648174  0.6547228139042502  1.0000
  Cl  Cl5       1.0  0.8247418568553968  0.9508365820563611  0.3080512711503758  1.0000
  Cl  Cl6       1.0  0.1752570677023826  0.4508321846632271  0.19194655889589998  1.0000
  Cl  Cl7       1.0  0.17525648593940701  0.0491679442823667  0.6919469100768225  1.0000
  Cl  Cl8       1.0  0.8247412750828857  0.5491671142520147  0.8080516223330818  1.0000
