data_image0
_chemical_formula_structural       Cd2H14C20N6O8
_chemical_formula_sum              "Cd2 H14 C20 N6 O8"
_cell_length_a       7.032791846287634
_cell_length_b       10.225356142988058
_cell_length_c       9.190937103619369
_cell_angle_alpha    92.93532396859125
_cell_angle_beta     116.72948931345628
_cell_angle_gamma    104.8149367056749

_space_group_name_H-M_alt    "P 1"
_space_group_IT_number       1

loop_
  _space_group_symop_operation_xyz
  'x, y, z'

loop_
  _atom_site_type_symbol
  _atom_site_label
  _atom_site_symmetry_multiplicity
  _atom_site_fract_x
  _atom_site_fract_y
  _atom_site_fract_z
  _atom_site_occupancy
  Cd  Cd1       1.0  0.5661772134644992  0.7506247137423756  0.865168195500935  1.0000
  Cd  Cd2       1.0  0.4338243708175824  0.24936607096567803  0.13482537014708385  1.0000
  H   H1        1.0  0.23132873501339202  0.42463446318315334  0.7013713416419874  1.0000
  H   H2        1.0  0.7686647488577024  0.5753747351041056  0.2986337988476606  1.0000
  H   H3        1.0  0.008624817551421386  0.2653691220997274  0.4244373442754608  1.0000
  H   H4        1.0  0.9913684847490959  0.7346338302830518  0.575560871584564  1.0000
  H   H5        1.0  0.004995363843896407  0.35627587669474536  0.17550720652218388  1.0000
  H   H6        1.0  0.9949916330802112  0.643720752356387  0.824485479467988  1.0000
  H   H7        1.0  0.23213267372726423  0.5966069884603727  0.2117036768990701  1.0000
  H   H8        1.0  0.7678553100839595  0.40339263716243323  0.7882851082948291  1.0000
  H   H9        1.0  0.46448555115858886  0.8304988261873731  0.2668537951565995  1.0000
  H   H10       1.0  0.5355653828915052  0.16950012007875156  0.7331498301425936  1.0000
  H   H11       1.0  0.8361937369857986  0.05032297069486451  0.4700947153180124  1.0000
  H   H12       1.0  0.16386168451582253  0.9496723160853122  0.5299264391360268  1.0000
  H   H13       1.0  0.9615404318043661  3.5478072383903824e-05  0.7655279018506036  1.0000
  H   H14       1.0  0.03845290633931607  0.9999566616160608  0.23449046634227955  1.0000
  C   C1        1.0  0.2300823154689838  0.4592052066106193  0.5908605151158923  1.0000
  C   C2        1.0  0.769898049769587  0.5407912284234654  0.40912795409715125  1.0000
  C   C3        1.0  0.10576621026785199  0.3708474849185137  0.4372928687039063  1.0000
  C   C4        1.0  0.8942267507929531  0.6291482615658525  0.5627015933042188  1.0000
  C   C5        1.0  0.10330005926045521  0.4212123746479577  0.29852391460441646  1.0000
  C   C6        1.0  0.896686916082345  0.5787904536717079  0.7014734514006165  1.0000
  C   C7        1.0  0.22859669143458927  0.5567729113216089  0.3184059700833473  1.0000
  C   C8        1.0  0.7713890503864675  0.44322778714840166  0.6815876367107023  1.0000
  C   C9        1.0  0.35622837050972583  0.6380962211916312  0.47813304247817706  1.0000
  C   C10       1.0  0.6437780285218722  0.3619142085337685  0.5218717492510905  1.0000
  C   C11       1.0  0.5164025373910592  0.7744270362032851  0.5120074769481988  1.0000
  C   C12       1.0  0.4835874205145175  0.22559006774194043  0.48798828207537065  1.0000
  C   C13       1.0  0.5571148172822545  0.8531632410113443  0.40126234955240386  1.0000
  C   C14       1.0  0.4429088539131243  0.146847500740158  0.598743376393841  1.0000
  C   C15       1.0  0.37718633043217425  0.9805758222329146  0.9250072926986163  1.0000
  C   C16       1.0  0.6228324529899183  0.019401002612283905  0.0749864333068828  1.0000
  C   C17       1.0  0.39471794363508655  0.5109129151673814  0.00366767329676074  1.0000
  C   C18       1.0  0.6052328005722316  0.48909451484738037  0.9963363043337166  1.0000
  C   C19       1.0  0.7454067655821959  0.9643427736028158  0.5019860471529468  1.0000
  C   C20       1.0  0.2546240302478537  0.035654943542624606  0.4980244401627303  1.0000
  N   N1        1.0  0.351568094444886  0.5898404730336607  0.6112088373763811  1.0000
  N   N2        1.0  0.6484196538424882  0.41016840485598033  0.38878472322504354  1.0000
  N   N3        1.0  0.6715495508312231  0.8353286775128836  0.6702879847572801  1.0000
  N   N4        1.0  0.3284396518913014  0.164671227925659  0.3297142681252154  1.0000
  N   N5        1.0  0.8076293051478703  0.9505069324659418  0.6616962463769765  1.0000
  N   N6        1.0  0.1923737161279746  0.0494975139068075  0.3383180985190179  1.0000
  O   O1        1.0  0.31546162879859463  0.8817503564750666  0.8099538324530683  1.0000
  O   O2        1.0  0.6845599013423043  0.11823851108344745  0.19002828655626303  1.0000
  O   O3        1.0  0.254439854008119  0.05254500541721541  0.9288741442456256  1.0000
  O   O4        1.0  0.7456167461015752  0.9474334538466848  0.0711181431898922  1.0000
  O   O5        1.0  0.36930833849567085  0.6288605629975734  0.9914685805088226  1.0000
  O   O6        1.0  0.6306377112884435  0.3711455301990014  0.008522991822218318  1.0000
  O   O7        1.0  0.26349937885976976  0.409333697903243  0.02082355050249162  1.0000
  O   O8        1.0  0.7364838273540927  0.5906763890048551  0.979183946384353  1.0000
