data_image0
_chemical_formula_structural       Cu2H28C30S2N4O8F6
_chemical_formula_sum              "Cu2 H28 C30 S2 N4 O8 F6"
_cell_length_a       7.913222299391034
_cell_length_b       9.120218620212345
_cell_length_c       11.125154140182742
_cell_angle_alpha    88.47284465155286
_cell_angle_beta     83.39071309561336
_cell_angle_gamma    83.6362130914329

_space_group_name_H-M_alt    "P 1"
_space_group_IT_number       1

loop_
  _space_group_symop_operation_xyz
  'x, y, z'

loop_
  _atom_site_type_symbol
  _atom_site_label
  _atom_site_symmetry_multiplicity
  _atom_site_fract_x
  _atom_site_fract_y
  _atom_site_fract_z
  _atom_site_occupancy
  Cu  Cu1       1.0  0.6162020794256121  0.48502211328550976  0.0987886747757329  1.0000
  Cu  Cu2       1.0  0.3837918281895368  0.5149786797938418  0.9012130109945603  1.0000
  H   H1        1.0  0.9188152564419948  0.3583944100955776  0.08266969644233768  1.0000
  H   H2        1.0  0.08117940298998859  0.641610782418752  0.9173336402434273  1.0000
  H   H3        1.0  0.8118578825796162  0.2751397211416844  0.19314810056682322  1.0000
  H   H4        1.0  0.18813565147911498  0.7248643836126759  0.8068526489092065  1.0000
  H   H5        1.0  0.696111801060951  0.7826665322394744  0.07568895115739592  1.0000
  H   H6        1.0  0.30387903817707945  0.2173386915703546  0.9243146822337139  1.0000
  H   H7        1.0  0.8313611829183286  0.9577972683905286  0.1954533021996099  1.0000
  H   H8        1.0  0.16863456669062055  0.042210137434914  0.8045409164013152  1.0000
  H   H9        1.0  0.8437199829908976  0.6278345438051217  0.4808987241279183  1.0000
  H   H10       1.0  0.15627953039778933  0.372172817045154  0.5191023934707246  1.0000
  H   H11       1.0  0.7167320274253156  0.46492299059512715  0.34805723310278586  1.0000
  H   H12       1.0  0.2832694007601333  0.5350788449248539  0.6519429475168295  1.0000
  H   H13       1.0  0.13066324476817212  0.6564352620905679  0.3612796331794073  1.0000
  H   H14       1.0  0.8693417851313254  0.34356875732706976  0.6387157288662167  1.0000
  H   H15       1.0  0.4117945999498786  0.5796598106407345  0.42276774700803094  1.0000
  H   H16       1.0  0.5882078902054243  0.4203442313505333  0.5772269133782686  1.0000
  H   H17       1.0  0.540646639621812  0.7375574915140813  0.5632852948270113  1.0000
  H   H18       1.0  0.4593528902182129  0.2624388516810683  0.43671334605603107  1.0000
  H   H19       1.0  0.3899417508420271  0.975025380759419  0.629172433970048  1.0000
  H   H20       1.0  0.6100583569307857  0.02496543214765269  0.3708334640016844  1.0000
  H   H21       1.0  0.6892524867101738  0.1274194307359195  0.07355269308730072  1.0000
  H   H22       1.0  0.31074740728671196  0.8725846201493039  0.9264484613427229  1.0000
  H   H23       1.0  0.8967129362126655  0.13359005270936558  0.9917103146778248  1.0000
  H   H24       1.0  0.10328682386304423  0.8664150997875877  0.008291726937955003  1.0000
  H   H25       1.0  0.7794715731115145  0.3336032988820108  0.8592731725314949  1.0000
  H   H26       1.0  0.2205255132988242  0.6664029778002957  0.14072905461070923  1.0000
  H   H27       1.0  0.6444305196045261  0.1889384683431956  0.8636049882043652  1.0000
  H   H28       1.0  0.3555676099681192  0.8110589886054667  0.1363937393033297  1.0000
  C   C1        1.0  0.7307783382933831  0.7545203046432148  0.16595981425312092  1.0000
  C   C2        1.0  0.2692204162266947  0.24548265506212624  0.834040551892926  1.0000
  C   C3        1.0  0.25875409264466487  0.14332674991180738  0.201012610500733  1.0000
  C   C4        1.0  0.7412372634705161  0.8566630412462003  0.7989894947461665  1.0000
  C   C5        1.0  0.804780852774769  0.850469438053416  0.23345954524815232  1.0000
  C   C6        1.0  0.19522172899105072  0.14953349206637503  0.7665396247296813  1.0000
  C   C7        1.0  0.8469112985718963  0.8082006969372485  0.3495490683303757  1.0000
  C   C8        1.0  0.1530937172240527  0.19180331906048312  0.6504480926410139  1.0000
  C   C9        1.0  0.8132725980049214  0.6668041106876003  0.3915491446681259  1.0000
  C   C10       1.0  0.18672985689149607  0.3331999227538771  0.6084500130325807  1.0000
  C   C11       1.0  0.74140175470265  0.575947810980942  0.31811741033359914  1.0000
  C   C12       1.0  0.2585982732154192  0.4240551382925587  0.6818828569106685  1.0000
  C   C13       1.0  0.9252404325031164  0.9074172967464094  0.42481366877193955  1.0000
  C   C14       1.0  0.07476264263674887  0.09258121666673698  0.57518734924016  1.0000
  C   C15       1.0  0.08724756105822715  0.8608515599390001  0.4628166019207711  1.0000
  C   C16       1.0  0.9127538600754475  0.13915027387102438  0.5371844781617271  1.0000
  C   C17       1.0  0.1836270430781966  0.7262122857173096  0.4219301468088759  1.0000
  C   C18       1.0  0.8163755809982832  0.2737906546622283  0.5780636263916676  1.0000
  C   C19       1.0  0.3423876715683036  0.6828819140195674  0.4568427007171394  1.0000
  C   C20       1.0  0.6576177389393933  0.3171187954330179  0.5431526981598651  1.0000
  C   C21       1.0  0.4151149526284073  0.7724641988078387  0.5349596648386311  1.0000
  C   C22       1.0  0.5848848380021962  0.22752993945390193  0.4650381011357894  1.0000
  C   C23       1.0  0.32855578490958226  0.9046419628964985  0.5740768188235208  1.0000
  C   C24       1.0  0.6714479104737164  0.09535103048830955  0.42592605949997875  1.0000
  C   C25       1.0  0.8372584994636368  0.04592347035429609  0.4598666949302057  1.0000
  C   C26       1.0  0.16274084709277764  0.9540739624828728  0.5401391293787654  1.0000
  C   C27       1.0  0.7755787832668304  0.199687278281985  0.02357770277421879  1.0000
  C   C28       1.0  0.22441985848740126  0.8003167881649487  0.9764208521689356  1.0000
  C   C29       1.0  0.6885221186035365  0.27288940154755886  0.918633583600247  1.0000
  C   C30       1.0  0.31147703062829635  0.727110251612636  0.08136502045142179  1.0000
  S   S1        1.0  0.2121069027864522  0.34805046811877816  0.21654561739843808  1.0000
  S   S2        1.0  0.7879082531787348  0.6519424313795239  0.7834563708090627  1.0000
  N   N1        1.0  0.8035572865670914  0.31694175434730437  0.10749299851384822  1.0000
  N   N2        1.0  0.1964373940202293  0.6830634432969022  0.8925076397832754  1.0000
  N   N3        1.0  0.6993210835249923  0.6188727839394444  0.20777894888195902  1.0000
  N   N4        1.0  0.3006739635669717  0.3811291003197893  0.792223525172311  1.0000
  O   O1        1.0  0.5479657113697414  0.36879316058902123  0.9713100828486034  1.0000
  O   O2        1.0  0.4520348381294781  0.6312053788176611  0.028688434578413066  1.0000
  O   O3        1.0  0.37467926085232506  0.3942477642799104  0.2428642302874593  1.0000
  O   O4        1.0  0.6253430397705345  0.6057274454739952  0.7571348603583203  1.0000
  O   O5        1.0  0.07532748135875517  0.362030779768844  0.31630074928371954  1.0000
  O   O6        1.0  0.9246909638196851  0.637977517665867  0.6837042692884197  1.0000
  O   O7        1.0  0.15926883833135008  0.3949763689092974  0.098148785591313  1.0000
  O   O8        1.0  0.840747842422843  0.605025334588852  0.9018538060584973  1.0000
  F   F1        1.0  0.11451850710487577  0.0822344214883302  0.1806409413676988  1.0000
  F   F2        1.0  0.8854667193078284  0.9177642328406107  0.8193641596579369  1.0000
  F   F3        1.0  0.3800029946080627  0.1043078023281723  0.1067172859672496  1.0000
  F   F4        1.0  0.619980004561242  0.8956776605356395  0.8932792644604319  1.0000
  F   F5        1.0  0.315128868358947  0.07971342783681479  0.302478585792457  1.0000
  F   F6        1.0  0.6848641699695291  0.920273049764141  0.6975198595325267  1.0000
