data_image0
_chemical_formula_structural       Zn16H24C96S16Br8O52
_chemical_formula_sum              "Zn16 H24 C96 S16 Br8 O52"
_cell_length_a       19.663100843416256
_cell_length_b       19.682447397386944
_cell_length_c       33.35898726574994
_cell_angle_alpha    79.21083811454551
_cell_angle_beta     79.26504912109203
_cell_angle_gamma    63.988499688892986

_space_group_name_H-M_alt    "P 1"
_space_group_IT_number       1

loop_
  _space_group_symop_operation_xyz
  'x, y, z'

loop_
  _atom_site_type_symbol
  _atom_site_label
  _atom_site_symmetry_multiplicity
  _atom_site_fract_x
  _atom_site_fract_y
  _atom_site_fract_z
  _atom_site_occupancy
  Zn  Zn1       1.0  0.05649354014032332  0.40004698842645325  0.47815953708786924  1.0000
  Zn  Zn2       1.0  0.9847596861452176  0.48420412918937233  0.5596387597030771  1.0000
  Zn  Zn3       1.0  0.05833843466934501  0.5622269997922729  0.4833592648303907  1.0000
  Zn  Zn4       1.0  0.900404646392339  0.5535152401020156  0.4790118018754158  1.0000
  Zn  Zn5       1.0  0.694244714440032  0.34976592841806575  0.2714183738763867  1.0000
  Zn  Zn6       1.0  0.6888382006259876  0.18982813784970184  0.26691040395115817  1.0000
  Zn  Zn7       1.0  0.7682776199757699  0.2643390831065204  0.18999220271826542  1.0000
  Zn  Zn8       1.0  0.8471098247421694  0.19494950467906597  0.2728068661507237  1.0000
  Zn  Zn9       1.0  0.26675782245793295  0.7672970354915166  0.6894509765777671  1.0000
  Zn  Zn10      1.0  0.3488013197456965  0.6967192411861588  0.7713012337146454  1.0000
  Zn  Zn11      1.0  0.19365826793580965  0.8492060569128198  0.7721258222377261  1.0000
  Zn  Zn12      1.0  0.19200162228508336  0.688145378338639  0.7664707308475729  1.0000
  Zn  Zn13      1.0  0.5606186665934915  0.06002959979191758  0.9831699032813648  1.0000
  Zn  Zn14      1.0  0.4011836721620556  0.055360900813617726  0.9782747997396515  1.0000
  Zn  Zn15      1.0  0.5553246196298005  0.9010834680710641  0.9782444820668632  1.0000
  Zn  Zn16      1.0  0.48356178350627504  0.9828077391143  0.06033539813674342  1.0000
  H   H1        1.0  0.7962354691395392  0.5020161903449109  0.3990495877462338  1.0000
  H   H2        1.0  0.953889355801387  0.24797428236099953  0.3507903120802781  1.0000
  H   H3        1.0  0.7478117737474222  0.45420223716131136  0.35088456657827305  1.0000
  H   H4        1.0  0.0023297652463796004  0.29581472016942456  0.3989371081823451  1.0000
  H   H5        1.0  0.1527492267606902  0.6526743696043056  0.5492943254018954  1.0000
  H   H6        1.0  0.09778221700118911  0.5978113551749187  0.7006271466389011  1.0000
  H   H7        1.0  0.20097255964856942  0.700816418972039  0.5974580423607139  1.0000
  H   H8        1.0  0.0495724526730186  0.5496955828023431  0.6524795047727282  1.0000
  H   H9        1.0  0.46294474974020267  0.24026431144795865  0.3410827643477959  1.0000
  H   H10       1.0  0.47954557543597803  0.7025576914614927  0.6013507703081589  1.0000
  H   H11       1.0  0.20251124883976251  0.9795441809220762  0.6016066075272025  1.0000
  H   H12       1.0  0.9485494890059415  0.9700038926181944  0.34793982055929723  1.0000
  H   H13       1.0  0.7004117162224546  0.2006008221829916  0.09761218625123291  1.0000
  H   H14       1.0  0.549192049642791  0.049234422055953124  0.15242822005617282  1.0000
  H   H15       1.0  0.6523221542111202  0.15260489189875417  0.04939003253464591  1.0000
  H   H16       1.0  0.5972940973904104  0.09726081817514394  0.20064812592628564  1.0000
  H   H17       1.0  0.5476088316278976  0.7701454645412795  0.1484437965199419  1.0000
  H   H18       1.0  0.1626451619796399  0.14144471371666606  0.04055381382318051  1.0000
  H   H19       1.0  0.24763282094300376  0.9543813435704465  0.8509680072197271  1.0000
  H   H20       1.0  0.5020387423290914  0.7962036827484836  0.8991757631839763  1.0000
  H   H21       1.0  0.29587588408303134  0.002394679172844897  0.8991198253624975  1.0000
  H   H22       1.0  0.45382643720268595  0.748253322510955  0.851028773452697  1.0000
  H   H23       1.0  0.30107299712181407  0.28004759188349476  0.9020333088429172  1.0000
  H   H24       1.0  0.7869744030835549  0.009809882122162626  0.9089101217517952  1.0000
  C   C1        1.0  0.061442401701981494  0.3165521107075051  0.5615230129925949  1.0000
  C   C2        1.0  0.06943302750486423  0.5701359086729026  0.5695097888522583  1.0000
  C   C3        1.0  0.18350965535807973  0.4396528815837685  0.43888236922725116  1.0000
  C   C4        1.0  0.9374113559262657  0.6838219119338548  0.43895969800004053  1.0000
  C   C5        1.0  0.9305932637542969  0.4300375505913576  0.43067352492077055  1.0000
  C   C6        1.0  0.8166726641108116  0.5609481001999439  0.5617645173156306  1.0000
  C   C7        1.0  0.5654873870065842  0.3114316531392163  0.31146466438836745  1.0000
  C   C8        1.0  0.6806253124261232  0.1799094195489843  0.180653239327576  1.0000
  C   C9        1.0  0.6894051947538034  0.432944941462658  0.18836117679985884  1.0000
  C   C10       1.0  0.9342762440261084  0.18777323600746618  0.18943683679005124  1.0000
  C   C11       1.0  0.8191173374222844  0.3195756898867544  0.3195930658645949  1.0000
  C   C12       1.0  0.8109858785234537  0.06564564621692165  0.3116577779151443  1.0000
  C   C13       1.0  0.43418391752985036  0.6891580061925706  0.6882712411520872  1.0000
  C   C14       1.0  0.3193538585219571  0.8200145091728499  0.8194383698457914  1.0000
  C   C15       1.0  0.18871455382637953  0.9343171187320395  0.6885085755522341  1.0000
  C   C16       1.0  0.06648510739638881  0.8103010867926839  0.8112160536017401  1.0000
  C   C17       1.0  0.18123904666060747  0.6804163922120736  0.6803821017201915  1.0000
  C   C18       1.0  0.31254281142942386  0.5661985742657691  0.8111044929496745  1.0000
  C   C19       1.0  0.43848073098652673  0.18419304962367988  0.9385797204748273  1.0000
  C   C20       1.0  0.4304270692981192  0.9307549927616919  0.9306067749205625  1.0000
  C   C21       1.0  0.6843438435817079  0.9386155023011964  0.9385733364207457  1.0000
  C   C22       1.0  0.5614979577930371  0.8156306777822098  0.06153268142014669  1.0000
  C   C23       1.0  0.5695624400334651  0.06927727237578554  0.06940843777675101  1.0000
  C   C24       1.0  0.31577855704853874  0.061429479263324475  0.061369199072999016  1.0000
  C   C25       1.0  0.9020439098652988  0.4016380650897275  0.401756971142625  1.0000
  C   C26       1.0  0.848075214520563  0.3483563360319905  0.3480831186749145  1.0000
  C   C27       1.0  0.8302806539911531  0.44654042819509226  0.38826678477433785  1.0000
  C   C28       1.0  0.9199011946743314  0.3035015074842916  0.36152391703576114  1.0000
  C   C29       1.0  0.8034510498677465  0.4200524848381518  0.361562673839437  1.0000
  C   C30       1.0  0.9467461958926507  0.33002244992014323  0.3882057064494689  1.0000
  C   C31       1.0  0.0984034923945742  0.5985241581901376  0.5981632723859392  1.0000
  C   C32       1.0  0.1521967682837584  0.6519979309117403  0.6517639218520018  1.0000
  C   C33       1.0  0.1410710896249228  0.6410661935449368  0.5824605495065925  1.0000
  C   C34       1.0  0.1095041301785926  0.6094498108580594  0.6674661092731072  1.0000
  C   C35       1.0  0.16779581255812562  0.6676875007502688  0.6091372608991821  1.0000
  C   C36       1.0  0.08276520265619783  0.5828173992424367  0.6407858380718423  1.0000
  C   C37       1.0  0.30439540235727236  0.4552641259340078  0.4010132590579617  1.0000
  C   C38       1.0  0.44589608750512616  0.29706017871956203  0.3490154677283784  1.0000
  C   C39       1.0  0.2582923019856552  0.4163161766084187  0.4140294176005527  1.0000
  C   C40       1.0  0.49069655753522323  0.3370182925406339  0.3365068834303316  1.0000
  C   C41       1.0  0.37777564430622596  0.34013534718157956  0.3725810644481059  1.0000
  C   C42       1.0  0.37247011314137524  0.4120253258155058  0.3774100598120855  1.0000
  C   C43       1.0  0.726273414973143  0.575611881385342  0.6299759407910983  1.0000
  C   C44       1.0  0.5243594292381956  0.6735596921785645  0.6213188807860633  1.0000
  C   C45       1.0  0.7428219510512831  0.5851045632600885  0.587443156676301  1.0000
  C   C46       1.0  0.509357536397431  0.6635341676250451  0.6636962486461686  1.0000
  C   C47       1.0  0.6035687133257285  0.6414572780747535  0.6089265227116487  1.0000
  C   C48       1.0  0.646953352868934  0.607683383776134  0.6423095588151926  1.0000
  C   C49       1.0  0.07564143425913983  0.22624116599536134  0.6298016738457692  1.0000
  C   C50       1.0  0.17352611553522482  0.02439536785617238  0.6214959149864258  1.0000
  C   C51       1.0  0.0852332855282043  0.24269556921442612  0.5872525750671045  1.0000
  C   C52       1.0  0.1634176363196786  0.009497780582854894  0.6638866641235668  1.0000
  C   C53       1.0  0.14148859541133874  0.1035279239560936  0.6089718568328167  1.0000
  C   C54       1.0  0.10767536770040921  0.1469916408723364  0.6422629403873402  1.0000
  C   C55       1.0  0.8426997340019754  0.800658147961542  0.39716971208007135  1.0000
  C   C56       1.0  0.9042059824208409  0.9495290911837627  0.3525086374287271  1.0000
  C   C57       1.0  0.911173550000406  0.7581923206772384  0.41375847115193676  1.0000
  C   C58       1.0  0.8354785776344685  0.9906579970239379  0.3364355290176065  1.0000
  C   C59       1.0  0.9070532209721524  0.880019397485597  0.3747018265810241  1.0000
  C   C60       1.0  0.8401933394294119  0.870061619651736  0.3749200572053367  1.0000
  C   C61       1.0  0.6516704435928135  0.1515969745096226  0.1518993343931357  1.0000
  C   C62       1.0  0.5980582541181222  0.09809415477201365  0.0981374940296149  1.0000
  C   C63       1.0  0.667285805311032  0.1674073876379153  0.10927371711498786  1.0000
  C   C64       1.0  0.5823390916221527  0.08240306345399517  0.14075929851910732  1.0000
  C   C65       1.0  0.6406141974460271  0.14080148327281702  0.08254194136544162  1.0000
  C   C66       1.0  0.608984474995694  0.10902610252228567  0.16749294908854045  1.0000
  C   C67       1.0  0.6744234674906765  0.5235174845848434  0.1200727256660912  1.0000
  C   C68       1.0  0.5765901410909963  0.7253523158787799  0.1285177195220939  1.0000
  C   C69       1.0  0.6650813265957966  0.5068601589489816  0.16262013830779415  1.0000
  C   C70       1.0  0.5866955032723524  0.7404005097890829  0.08613648214630132  1.0000
  C   C71       1.0  0.6085738264798906  0.6461722806974352  0.14098887726808587  1.0000
  C   C72       1.0  0.6423107436407423  0.6027881722970957  0.1076653360621904  1.0000
  C   C73       1.0  0.08192888069519463  0.12376666818259  0.17820768157882586  1.0000
  C   C74       1.0  0.17013789381800856  0.12489924666374458  0.07295335018793742  1.0000
  C   C75       1.0  0.009787193253679001  0.16262893207247228  0.16528366551060714  1.0000
  C   C76       1.0  0.2412098174542622  0.086076720476612  0.08666871300087561  1.0000
  C   C77       1.0  0.11180104528550323  0.13877047898218814  0.10632671822302342  1.0000
  C   C78       1.0  0.14010584497975742  0.1100714364609843  0.14472100118070594  1.0000
  C   C79       1.0  0.3480030800884677  0.8486333796626155  0.8481866944783579  1.0000
  C   C80       1.0  0.4017322044737171  0.9021099493097893  0.9018979862712444  1.0000
  C   C81       1.0  0.3032359855712131  0.9202872009814413  0.8616910558767049  1.0000
  C   C82       1.0  0.4464656523053634  0.8304032363394639  0.8884338593483679  1.0000
  C   C83       1.0  0.32997091856273647  0.9468860164570572  0.8883894847685955  1.0000
  C   C84       1.0  0.4197552562246685  0.8038061758007587  0.861718802526241  1.0000
  C   C85       1.0  0.4072516768987456  0.4491195484596274  0.8528134436947996  1.0000
  C   C86       1.0  0.3455048224444398  0.3003844610124417  0.8975088626306091  1.0000
  C   C87       1.0  0.3387509062474621  0.491705670754925  0.8362259617126144  1.0000
  C   C88       1.0  0.414162257237159  0.2591071533141047  0.9136322696444383  1.0000
  C   C89       1.0  0.3428230444416513  0.36981310519214355  0.8752526300716286  1.0000
  C   C90       1.0  0.409726904028716  0.3796806765085847  0.875036121251654  1.0000
  C   C91       1.0  0.9454763897640961  0.7947419454364206  0.8490038275815837  1.0000
  C   C92       1.0  0.8039732968801162  0.9529860502770902  0.9010212131447021  1.0000
  C   C93       1.0  0.9915971538275273  0.8336809706262898  0.8359879277346851  1.0000
  C   C94       1.0  0.7591948419074086  0.9130085076838699  0.913594575158179  1.0000
  C   C95       1.0  0.8720597027186372  0.9099072244990151  0.8774207159039096  1.0000
  C   C96       1.0  0.8773731555435874  0.838001393636219  0.8726135657649439  1.0000
  S   S1        1.0  0.2987288193830437  0.3265131232047977  0.39722425574887427  1.0000
  S   S2        1.0  0.45079606569299113  0.4267758150494032  0.3530936438798592  1.0000
  S   S3        1.0  0.6609259031352865  0.633363008291006  0.5626369903371116  1.0000
  S   S4        1.0  0.590722030033355  0.6152378331614937  0.688783923687268  1.0000
  S   S5        1.0  0.13349875995249505  0.16075455858412369  0.5626073815724909  1.0000
  S   S6        1.0  0.11512755766793964  0.09090713089301519  0.6888133047009009  1.0000
  S   S7        1.0  0.9724948021923295  0.803579324102387  0.40193091688935595  1.0000
  S   S8        1.0  0.7740340325497999  0.9456745776231797  0.34800007441376135  1.0000
  S   S9        1.0  0.6167023678145186  0.5887814583684942  0.1873270788734659  1.0000
  S   S10       1.0  0.6348758810324571  0.6590208504610262  0.06114112667047782  1.0000
  S   S11       1.0  0.013601416881662902  0.18243791592525577  0.11190554041532154  1.0000
  S   S12       1.0  0.23794517732409304  0.06611679323867745  0.13990853231221226  1.0000
  S   S13       1.0  0.2773972339077133  0.44633230349649  0.8480372528960347  1.0000
  S   S14       1.0  0.47577403976827537  0.30395655228078766  0.9020090248104966  1.0000
  S   S15       1.0  0.9510997381985291  0.9235349646898006  0.8527623718562226  1.0000
  S   S16       1.0  0.7990839854199764  0.8232397398747223  0.8970015636836951  1.0000
  Br  Br1       1.0  0.28431922377480834  0.5530682869940192  0.4117187763020598  1.0000
  Br  Br2       1.0  0.7960767502390315  0.5271664186444269  0.6688395106872137  1.0000
  Br  Br3       1.0  0.027198253210819708  0.2960243019829178  0.6685975585907473  1.0000
  Br  Br4       1.0  0.7603240249086272  0.7743650974037521  0.4019136653232992  1.0000
  Br  Br5       1.0  0.7226332120476899  0.4537797187131289  0.08125425788033175  1.0000
  Br  Br6       1.0  0.10550388358229411  0.0909810890917058  0.23251712227234123  1.0000
  Br  Br7       1.0  0.4896838489270366  0.47531294025638715  0.8480876752469302  1.0000
  Br  Br8       1.0  0.9657446395207787  0.6969235879109518  0.8382482393264611  1.0000
  O   O1        1.0  0.0005501374402002  0.49940330188113075  0.4994112845067918  1.0000
  O   O2        1.0  0.07859598203911133  0.31435371155924935  0.5226199984423162  1.0000
  O   O3        1.0  0.0314802078173386  0.5313195157150119  0.5858779617924558  1.0000
  O   O4        1.0  0.15433227364398766  0.5056131859342442  0.45058089923695394  1.0000
  O   O5        1.0  0.026214326341822407  0.3757591194036465  0.5800133579806614  1.0000
  O   O6        1.0  0.15463127264538915  0.3907922577439109  0.4464381971155263  1.0000
  O   O7        1.0  0.08475921818747173  0.5869701854620645  0.5310618965562811  1.0000
  O   O8        1.0  0.0042044089975022  0.6586430555217149  0.4499363344896779  1.0000
  O   O9        1.0  0.8865038980451275  0.49535874993497236  0.44204951580681506  1.0000
  O   O10       1.0  0.8921417387946634  0.6513018469704832  0.44769014726733775  1.0000
  O   O11       1.0  0.9964758087906916  0.38672605439798247  0.4416662725377521  1.0000
  O   O12       1.0  0.876143177168686  0.5260543430475692  0.5801447297470406  1.0000
  O   O13       1.0  0.8142064207199483  0.5774724254106474  0.522843080182085  1.0000
  O   O14       1.0  0.7490349291857046  0.25020609819022605  0.25032302345518087  1.0000
  O   O15       1.0  0.5963762582063269  0.35849060750123846  0.3032285886191346  1.0000
  O   O16       1.0  0.6637207488267052  0.16425240659162918  0.21907988892938596  1.0000
  O   O17       1.0  0.7253941280646289  0.37350836998182757  0.17009144950110774  1.0000
  O   O18       1.0  0.5925383005182497  0.24496145356531668  0.30029727356870956  1.0000
  O   O19       1.0  0.6718737008025215  0.4354635119152591  0.22723944242383717  1.0000
  O   O20       1.0  0.7199883667148369  0.217361992230849  0.16444357942095425  1.0000
  O   O21       1.0  0.8771487556371796  0.22290572274427936  0.16875831753477408  1.0000
  O   O22       1.0  0.8623467020156781  0.2534221100738491  0.30900945361154447  1.0000
  O   O23       1.0  0.932034542073112  0.17259775177694064  0.22834898418665264  1.0000
  O   O24       1.0  0.7536365044795303  0.36323339541387883  0.30818373231349494  1.0000
  O   O25       1.0  0.7444150822421277  0.09329505601774475  0.30019986003158305  1.0000
  O   O26       1.0  0.8581547125962674  0.09619715784043574  0.30389742568852546  1.0000
  O   O27       1.0  0.2497677335618889  0.7509967457559412  0.7497328316570419  1.0000
  O   O28       1.0  0.37601853321901774  0.7248190373282526  0.6686634532520586  1.0000
  O   O29       1.0  0.36333259408324653  0.7545998418387897  0.8081560846932663  1.0000
  O   O30       1.0  0.17225390309018004  0.9342008937242031  0.7274794705857063  1.0000
  O   O31       1.0  0.4343243354913113  0.6731739065045231  0.7272608271565631  1.0000
  O   O32       1.0  0.22458586308275844  0.8764037299600955  0.6687979187526808  1.0000
  O   O33       1.0  0.25339563941198406  0.8631836002705169  0.8084961870472399  1.0000
  O   O34       1.0  0.09535696410579671  0.8591732716749262  0.8037319234897711  1.0000
  O   O35       1.0  0.16579925675834056  0.6634808944249074  0.7187962574463002  1.0000
  O   O36       1.0  0.09594443391740982  0.7443209391131304  0.7994955350126677  1.0000
  O   O37       1.0  0.21924515898183475  0.7192566968318131  0.664069738977439  1.0000
  O   O38       1.0  0.357801120329043  0.5987390258459301  0.8025082542421844  1.0000
  O   O39       1.0  0.24576176385691184  0.5916378364005795  0.8000464435578466  1.0000
  O   O40       1.0  0.5000798842683168  0.9999182932400856  6.572971557280436e-06  1.0000
  O   O41       1.0  0.5052782717613767  0.15636302685020811  0.9497479349647052  1.0000
  O   O42       1.0  0.38687779336090244  0.9964505191325872  0.9417139736090478  1.0000
  O   O43       1.0  0.6535120901563546  0.8914904742540768  0.9467870183021533  1.0000
  O   O44       1.0  0.3910480027120827  0.15390477538238653  0.9467996076637352  1.0000
  O   O45       1.0  0.6570596330633408  0.005105501434648772  0.9497265708805503  1.0000
  O   O46       1.0  0.4961735904211367  0.8871884664447407  0.9417011699136923  1.0000
  O   O47       1.0  0.577852802206259  0.8157219128648944  0.022545035746702476  1.0000
  O   O48       1.0  0.5312127188460707  0.0307715629596217  0.08564762011735642  1.0000
  O   O49       1.0  0.5258038231239726  0.8736893749048418  0.08114672994137356  1.0000
  O   O50       1.0  0.5859139225272756  0.08543749441648878  0.03098101084601983  1.0000
  O   O51       1.0  0.3153767483187623  0.07824125602938635  0.022511871585159306  1.0000
  O   O52       1.0  0.3742747807127104  0.025285906164413046  0.08085622380109922  1.0000
