data_image0
_chemical_formula_structural       Cd4H44C72N8O20
_chemical_formula_sum              "Cd4 H44 C72 N8 O20"
_cell_length_a       7.518858304
_cell_length_b       12.408053892119451
_cell_length_c       17.281
_cell_angle_alpha    90.0
_cell_angle_beta     90.0
_cell_angle_gamma    96.04914221011026

_space_group_name_H-M_alt    "P 1"
_space_group_IT_number       1

loop_
  _space_group_symop_operation_xyz
  'x, y, z'

loop_
  _atom_site_type_symbol
  _atom_site_label
  _atom_site_symmetry_multiplicity
  _atom_site_fract_x
  _atom_site_fract_y
  _atom_site_fract_z
  _atom_site_occupancy
  Cd  Cd1       1.0  0.5770670499248068  0.3852965192043243  0.6916787222961602  1.0000
  Cd  Cd2       1.0  0.4229342234481308  0.1147024956238454  0.1916787222961602  1.0000
  Cd  Cd3       1.0  0.4229336593839079  0.6146998895704385  0.3083212777038398  1.0000
  Cd  Cd4       1.0  0.5770729333445741  0.8853003966772448  0.8083212777038398  1.0000
  H   H1        1.0  0.9076366420786284  0.0701841725206833  0.014919854175104798  1.0000
  H   H2        1.0  0.0923637241279138  0.42981727362985817  0.5149204328453223  1.0000
  H   H3        1.0  0.0923662428647631  0.9298170988988304  0.9850789884844602  1.0000
  H   H4        1.0  0.9076250152784053  0.5701791351449046  0.48508014582489517  1.0000
  H   H5        1.0  0.09258338217401978  0.2235057927283179  0.0793484173369592  1.0000
  H   H6        1.0  0.9074144649951348  0.276496463863019  0.5793478386667417  1.0000
  H   H7        1.0  0.9074208327585322  0.7764954786911957  0.9206510039928233  1.0000
  H   H8        1.0  0.09257546345941851  0.7234991344709556  0.4206515826630408  1.0000
  H   H9        1.0  0.13061856042881456  0.405736646399987  0.0141687402349433  1.0000
  H   H10       1.0  0.8693780976921132  0.0942664206321453  0.5141681615647258  1.0000
  H   H11       1.0  0.8693819464181158  0.5942662459011103  0.9858312597650566  1.0000
  H   H12       1.0  0.13061596167082706  0.9057299881426246  0.4858312597650567  1.0000
  H   H13       1.0  0.9637763241988394  0.6330539421694681  0.808442798449164  1.0000
  H   H14       1.0  0.0362332103897955  0.8669479649597989  0.308442798449164  1.0000
  H   H15       1.0  0.03623454067948729  0.3669473292500456  0.191557201550836  1.0000
  H   H16       1.0  0.9637704407790719  0.1330500646965476  0.691557201550836  1.0000
  H   H17       1.0  0.1446435839194748  0.6907613787091407  0.6928042358659781  1.0000
  H   H18       1.0  0.8553641978572346  0.8092380970977544  0.1928059718766306  1.0000
  H   H19       1.0  0.85536818812524  0.3092374613880011  0.3071946067935869  1.0000
  H   H20       1.0  0.14463784144062686  0.19075831167700838  0.8071951854638044  1.0000
  H   H21       1.0  0.3720802480743614  0.5731348127105278  0.6434546611885921  1.0000
  H   H22       1.0  0.6279217909229686  0.9268622317739954  0.1434575545396655  1.0000
  H   H23       1.0  0.6279257811909672  0.42686159606424207  0.3565430241305449  1.0000
  H   H24       1.0  0.3720790593266655  0.0731349874415628  0.85654418147098  1.0000
  H   H25       1.0  0.2550516776880015  0.3507838981097109  0.8206214918118135  1.0000
  H   H26       1.0  0.7449482656957827  0.1492151167184588  0.320624385162894  1.0000
  H   H27       1.0  0.7449518325399465  0.6492133211058402  0.1793761935073235  1.0000
  H   H28       1.0  0.2550540554839245  0.8507829129378877  0.6793779295179689  1.0000
  H   H29       1.0  0.4584282774544092  0.319932848509886  0.5201481395752552  1.0000
  H   H30       1.0  0.5415725115748982  0.1800710289630345  0.0201487182454727  1.0000
  H   H31       1.0  0.5415676756613692  0.680066802028044  0.47985301776517286  1.0000
  H   H32       1.0  0.4584301709067161  0.8199367259828065  0.9798512817545273  1.0000
  H   H33       1.0  0.4366613549883666  0.1609195026254326  0.4334540825183737  1.0000
  H   H34       1.0  0.5633367740626339  0.3390843748474879  0.9334552398588015  1.0000
  H   H35       1.0  0.5633332681382582  0.8390801479124974  0.5665453388114088  1.0000
  H   H36       1.0  0.4366644374889004  0.6609225696575649  0.0665441814709808  1.0000
  H   H37       1.0  0.5818889792171049  0.9707646198758226  0.6304010184595796  1.0000
  H   H38       1.0  0.4181059254908277  0.5292372872534514  0.1304021758000147  1.0000
  H   H39       1.0  0.41810921105422233  0.029232599339735505  0.3695978241999853  1.0000
  H   H40       1.0  0.5818873061257859  0.4707696572516014  0.8695984028702028  1.0000
  H   H41       1.0  0.5969448563428941  0.1379143303255219  0.7082153810543375  1.0000
  H   H42       1.0  0.4030503308479537  0.362087926265815  0.208215959724555  1.0000
  H   H43       1.0  0.4030531929875067  0.8620820784492409  0.2917846189456625  1.0000
  H   H44       1.0  0.5969440898168867  0.6379182077984424  0.791784040275445  1.0000
  C   C1        1.0  0.7436526298858153  0.0665801423220813  0.8786800532376589  1.0000
  C   C2        1.0  0.2563474544388882  0.4334196829468908  0.3786794745674413  1.0000
  C   C3        1.0  0.2563474541383498  0.9334203186566441  0.12132168277298662  1.0000
  C   C4        1.0  0.7436510177142778  0.566579157150251  0.6213228401134216  1.0000
  C   C5        1.0  0.8494815044195005  0.1627138185372203  0.9150714657716534  1.0000
  C   C6        1.0  0.1505162018087347  0.3372876276133283  0.4150714657716534  1.0000
  C   C7        1.0  0.15051634244912288  0.837289073763877  0.0849285342283466  1.0000
  C   C8        1.0  0.8494793284842784  0.66270959160223  0.584927955558129  1.0000
  C   C9        1.0  0.929513786906291  0.1493237157844831  0.9872501591343124  1.0000
  C   C10       1.0  0.0704851083701783  0.35067691992527017  0.4872495804640947  1.0000
  C   C11       1.0  0.07048762710702762  0.8506767451942352  0.0127504195359052  1.0000
  C   C12       1.0  0.9295065728962939  0.6493211097310763  0.5127509982061227  1.0000
  C   C13       1.0  0.032448277490765086  0.23513237631933487  0.0230009837393652  1.0000
  C   C14       1.0  0.9675497106193091  0.2648706907127973  0.5230009837393652  1.0000
  C   C15       1.0  0.9675548893344723  0.7648705159817624  0.9769978589201996  1.0000
  C   C16       1.0  0.03244154782439781  0.7351249076211772  0.4769978589201997  1.0000
  C   C17       1.0  0.056192697423966806  0.3361060049397153  0.9866523928013394  1.0000
  C   C18       1.0  0.9438023488259616  0.1638954412108333  0.4866523928013393  1.0000
  C   C19       1.0  0.9438061975519644  0.6638952664797984  0.0133470285284432  1.0000
  C   C20       1.0  0.05619185147789809  0.8361017780047177  0.5133476071986607  1.0000
  C   C21       1.0  0.9774075427932087  0.3493777833369265  0.9148139575256096  1.0000
  C   C22       1.0  0.0225928234133406  0.1506236628136222  0.4148139575256096  1.0000
  C   C23       1.0  0.02259548309110929  0.6506242985233754  0.08518546380418  1.0000
  C   C24       1.0  0.9774077449544476  0.8493719355203524  0.5851860424743904  1.0000
  C   C25       1.0  0.8722365926011121  0.2643844262380597  0.8778415600949003  1.0000
  C   C26       1.0  0.12776125456804976  0.2356178303532772  0.3778415600949003  1.0000
  C   C27       1.0  0.127762584256665  0.7356184660630375  0.12215843990509971  1.0000
  C   C28       1.0  0.8722354647731974  0.7643785784214855  0.6221595972455276  1.0000
  C   C29       1.0  0.7758680505340224  0.2910203732826844  0.8047231063017222  1.0000
  C   C30       1.0  0.22412937381237433  0.2089794519862807  0.3047231063017222  1.0000
  C   C31       1.0  0.22413336347929658  0.7089800876960339  0.1952751576876324  1.0000
  C   C32       1.0  0.7758679092925648  0.7910201985516494  0.6952763150280674  1.0000
  C   C33       1.0  0.09142703289716538  0.4853146381318396  0.8219449105954553  1.0000
  C   C34       1.0  0.9085789351478437  0.0146884289002855  0.3219454892656657  1.0000
  C   C35       1.0  0.9085813129437736  0.5146874437284623  0.17805335339389927  1.0000
  C   C36       1.0  0.09142352697278967  0.985310411196849  0.6780556680747623  1.0000
  C   C37       1.0  0.0645817008804457  0.5837207903256001  0.7870314217927188  1.0000
  C   C38       1.0  0.9354302118046502  0.9162794959220903  0.2870320004629363  1.0000
  C   C39       1.0  0.9354325902016569  0.41627723933074623  0.2129674208668462  1.0000
  C   C40       1.0  0.06457553557883239  0.08371529197109599  0.7129679995370637  1.0000
  C   C41       1.0  0.16603990861772636  0.6159252760467808  0.7222944274058206  1.0000
  C   C42       1.0  0.833965354121595  0.8840750102009025  0.2222950060760382  1.0000
  C   C43       1.0  0.8339693443895937  0.3840743744911492  0.2777049939239618  1.0000
  C   C44       1.0  0.16603430707980488  0.1159230194554439  0.7777061512643968  1.0000
  C   C45       1.0  0.2909461461268562  0.5507301770369182  0.6943597014061709  1.0000
  C   C46       1.0  0.7090585528487805  0.949266867447605  0.1943608587465988  1.0000
  C   C47       1.0  0.7090625431167794  0.4492662317378445  0.3056391412534012  1.0000
  C   C48       1.0  0.29094348644908746  0.0507295413271649  0.8056397199236187  1.0000
  C   C49       1.0  0.22399235981423257  0.4253258107648534  0.7928702042705851  1.0000
  C   C50       1.0  0.7760114325960926  0.074672393622528  0.2928702042705851  1.0000
  C   C51       1.0  0.7760126213437885  0.574672218891493  0.2071297957294149  1.0000
  C   C52       1.0  0.22399340762100187  0.9253248255930302  0.7071297957294149  1.0000
  C   C53       1.0  0.4807557583601465  0.2401190185077837  0.5422481337885543  1.0000
  C   C54       1.0  0.5192408997607811  0.2598840485243485  0.0422481337885543  1.0000
  C   C55       1.0  0.5192396309919474  0.7598773902669862  0.4577530235518807  1.0000
  C   C56       1.0  0.4807567446460581  0.740125327303076  0.9577507088710177  1.0000
  C   C57       1.0  0.4689770083662593  0.149896697423884  0.4942468607140782  1.0000
  C   C58       1.0  0.5310181788245885  0.35010555916745295  0.9942485967247238  1.0000
  C   C59       1.0  0.5310174738194462  0.8501021426732507  0.5057542966263497  1.0000
  C   C60       1.0  0.46897757182940564  0.6499005748968117  0.0057548752965673  1.0000
  C   C61       1.0  0.5038689858745116  0.04908272563938  0.5245142063537998  1.0000
  C   C62       1.0  0.49612501226810213  0.4509203413927523  0.0245147850240173  1.0000
  C   C63       1.0  0.49612549631118696  0.9509161144577617  0.4754852149759827  1.0000
  C   C64       1.0  0.5038694083967384  0.5490857926715123  0.9754846363057723  1.0000
  C   C65       1.0  0.5499661656562508  0.04537982166424109  0.6030872056015255  1.0000
  C   C66       1.0  0.4500276915454363  0.4546224349270958  0.1030883629419606  1.0000
  C   C67       1.0  0.45003083556683515  0.9546182079921053  0.3969110583878219  1.0000
  C   C68       1.0  0.5499625982110172  0.5453828886963734  0.896912215728257  1.0000
  C   C69       1.0  0.5586303823852816  0.139052999637201  0.6473965626989155  1.0000
  C   C70       1.0  0.4413649457464856  0.36095006739492413  0.1473971413691331  1.0000
  C   C71       1.0  0.441366477896885  0.8609442195783572  0.3526028586308669  1.0000
  C   C72       1.0  0.5586284268110402  0.6390576875509169  0.8526017012904319  1.0000
  N   N1        1.0  0.3203557807055617  0.4578155716445522  0.7299716451594236  1.0000
  N   N2        1.0  0.6796471045383681  0.0421850640652082  0.2299745385105041  1.0000
  N   N3        1.0  0.6796494823342981  0.5421840788933778  0.2700254614894959  1.0000
  N   N4        1.0  0.32035668757141866  0.9578137760319336  0.7700271975001414  1.0000
  N   N5        1.0  0.5241902806452003  0.2348941067267134  0.6175643770615125  1.0000
  N   N6        1.0  0.47580609559388165  0.2651073394238352  0.11756495573173001  1.0000
  N   N7        1.0  0.4758051087068935  0.7651023020480565  0.3824362016087051  1.0000
  N   N8        1.0  0.524188325070959  0.7348987946404222  0.8824362016087051  1.0000
  O   O1        1.0  0.6825025412472313  0.9878260194128359  0.921718071870842  1.0000
  O   O2        1.0  0.3174963534281616  0.5121758877164311  0.4217192292112699  1.0000
  O   O3        1.0  0.3175030036744744  0.0121752520066778  0.0782813494589405  1.0000
  O   O4        1.0  0.682499035923932  0.4878205210583317  0.5782825067993755  1.0000
  O   O5        1.0  0.7220269211175675  0.0657842894650855  0.8052676349748253  1.0000
  O   O6        1.0  0.2779759641263695  0.4342163462446678  0.3052682136450429  1.0000
  O   O7        1.0  0.2779721147992901  0.9342177923952163  0.1947335223656026  1.0000
  O   O8        1.0  0.7220236970750306  0.5657816834116787  0.6947341010358201  1.0000
  O   O9        1.0  0.6111178944943774  0.3080112644708635  0.8134592905503126  1.0000
  O   O10       1.0  0.3888810007820921  0.1919893712388898  0.3134587118801022  1.0000
  O   O11       1.0  0.3888823304707073  0.6919900069486502  0.1865418667901153  1.0000
  O   O12       1.0  0.6111189423011538  0.8080102792990402  0.6865412881198978  1.0000
  O   O13       1.0  0.8596554595925594  0.3046147071148155  0.7417834616052303  1.0000
  O   O14       1.0  0.1403432947429835  0.1953851181541566  0.24178346160523026  1.0000
  O   O15       1.0  0.140341682571453  0.6953841329823263  0.2582171170649872  1.0000
  O   O16       1.0  0.8596556002329477  0.8046161532653572  0.7582171170649872  1.0000
  O   O17       1.0  0.9852892530991751  0.4546880806311862  0.8845639719923639  1.0000
  O   O18       1.0  0.0147137730856812  0.045313365519362506  0.3845657080030094  1.0000
  O   O19       1.0  0.014716432763449895  0.5453140012291158  0.1154348706672081  1.0000
  O   O20       1.0  0.9852906443086553  0.9546814223738237  0.6154354493374257  1.0000
