data_image0
_chemical_formula_structural       Cu8H88C104N24O32
_chemical_formula_sum              "Cu8 H88 C104 N24 O32"
_cell_length_a       13.406020360000833
_cell_length_b       13.489287879001129
_cell_length_c       20.223593118000892
_cell_angle_alpha    89.99997073148636
_cell_angle_beta     90.0000173125642
_cell_angle_gamma    89.99996345649816

_space_group_name_H-M_alt    "P 1"
_space_group_IT_number       1

loop_
  _space_group_symop_operation_xyz
  'x, y, z'

loop_
  _atom_site_type_symbol
  _atom_site_label
  _atom_site_symmetry_multiplicity
  _atom_site_fract_x
  _atom_site_fract_y
  _atom_site_fract_z
  _atom_site_occupancy
  Cu  Cu1       1.0  0.16464461296411767  0.43892070442354464  0.3019136502841278  1.0000
  Cu  Cu2       1.0  0.33535546488241846  0.06107842273112139  0.8019139019095646  1.0000
  Cu  Cu3       1.0  0.3353551592283849  0.9389216893502517  0.6980855162377111  1.0000
  Cu  Cu4       1.0  0.164644550036023  0.5610769331916217  0.19808539341499198  1.0000
  Cu  Cu5       1.0  0.8353545212312028  0.5610780121139525  0.6980861251268351  1.0000
  Cu  Cu6       1.0  0.6646436693126533  0.9389217764639566  0.1980868624450949  1.0000
  Cu  Cu7       1.0  0.6646447209004407  0.06107776851560939  0.3019152481171474  1.0000
  Cu  Cu8       1.0  0.8353553300928241  0.43892178334564125  0.8019143819960418  1.0000
  H   H1        1.0  0.42159622368313876  0.7492750518395608  0.25654581952206  1.0000
  H   H2        1.0  0.07840276632629889  0.750725008609443  0.7565454606205435  1.0000
  H   H3        1.0  0.07840367033784189  0.24927452485632526  0.7434534116481615  1.0000
  H   H4        1.0  0.42159712676270533  0.25072612970711816  0.24345377005512603  1.0000
  H   H5        1.0  0.5784029105115779  0.2507258886846842  0.7434544503604954  1.0000
  H   H6        1.0  0.9215963678686736  0.24927444925722134  0.24345382031832227  1.0000
  H   H7        1.0  0.9215962097902946  0.7507256743392716  0.2565453748186783  1.0000
  H   H8        1.0  0.5784042452325905  0.749274069487818  0.7565455108838322  1.0000
  H   H9        1.0  0.4967460391544876  0.8902483000472187  0.4406876604088196  1.0000
  H   H10       1.0  0.0032530348900153  0.6097523607710188  0.9406868400567346  1.0000
  H   H11       1.0  0.0032522724387930996  0.3902479616119479  0.5593130061209024  1.0000
  H   H12       1.0  0.4967476946934966  0.10975283391054087  0.059313427619095194  1.0000
  H   H13       1.0  0.5032523491070648  0.10975189914809388  0.5593131039457617  1.0000
  H   H14       1.0  0.9967475911718752  0.39024783842396715  0.059312935354128606  1.0000
  H   H15       1.0  0.9967490995567445  0.609751496254013  0.4406862748181836  1.0000
  H   H16       1.0  0.5032521854347465  0.8902481066134696  0.9406868422635314  1.0000
  H   H17       1.0  0.2926624359063013  0.6425103062820057  0.4383839372951073  1.0000
  H   H18       1.0  0.20733812895473142  0.8574881323121417  0.9383835677940198  1.0000
  H   H19       1.0  0.20733752669941197  0.14251206083563514  0.5616153302696602  1.0000
  H   H20       1.0  0.2926624414840191  0.3574872502665228  0.06161562648768639  1.0000
  H   H21       1.0  0.7073366982893675  0.3574876689263247  0.5616163325879526  1.0000
  H   H22       1.0  0.7926632430406925  0.14251132555401108  0.0616152186730901  1.0000
  H   H23       1.0  0.7926616074955604  0.8574873970310292  0.4383839506692055  1.0000
  H   H24       1.0  0.7073381845781056  0.6425122075994808  0.938384148923305  1.0000
  H   H25       1.0  0.2649636024597086  0.9884084400664362  0.557476461437652  1.0000
  H   H26       1.0  0.2350367885693032  0.5115917727685045  0.0574773585109369  1.0000
  H   H27       1.0  0.23503688387582858  0.4884080442579871  0.44252219374269686  1.0000
  H   H28       1.0  0.2649640040724393  0.011591716590075398  0.9425224481548823  1.0000
  H   H29       1.0  0.7350362776685486  0.011591759128975797  0.442522819501157  1.0000
  H   H30       1.0  0.7649630915591813  0.4884084264265311  0.9425229113718246  1.0000
  H   H31       1.0  0.7649629962527768  0.5115914136082507  0.5574775816682092  1.0000
  H   H32       1.0  0.7350366219892165  0.9884092239338851  0.057477327255853104  1.0000
  H   H33       1.0  0.25178594295604734  0.9263281028405286  0.4793721501290165  1.0000
  H   H34       1.0  0.2482138946766028  0.573671787035252  0.9793723800278259  1.0000
  H   H35       1.0  0.2482153291934281  0.4263276388984138  0.5206270206859003  1.0000
  H   H36       1.0  0.2517861121511942  0.0736724449088157  0.0206269110034185  1.0000
  H   H37       1.0  0.7482146831058428  0.07367209635445698  0.5206276252818469  1.0000
  H   H38       1.0  0.7517859854520025  0.42632767083099304  0.0206273953830802  1.0000
  H   H39       1.0  0.7517852968689382  0.5736710776386146  0.4793727547252118  1.0000
  H   H40       1.0  0.7482145139104545  0.926328495615145  0.9793728644073098  1.0000
  H   H41       1.0  0.36323137857231547  0.990920054288992  0.4980167104999468  1.0000
  H   H42       1.0  0.136769213502653  0.509079079985419  0.998016445649526  1.0000
  H   H43       1.0  0.13676985208326897  0.4909204165200903  0.5019829327681151  1.0000
  H   H44       1.0  0.36323083481938306  0.009079681559335001  0.0019828674006774  1.0000
  H   H45       1.0  0.6367692474899228  0.009079403576826899  0.5019835593830138  1.0000
  H   H46       1.0  0.8632306666257107  0.4909211192098012  0.0019833297612593  1.0000
  H   H47       1.0  0.8632307739788628  0.5090790413459131  0.49801684264286905  1.0000
  H   H48       1.0  0.6367690453089808  0.9909205176358852  0.9980169080101007  1.0000
  H   H49       1.0  0.5062724584046734  0.6179544319275648  0.5053913433910608  1.0000
  H   H50       1.0  0.993727882000897  0.8820455041571547  0.0053911769913739  1.0000
  H   H51       1.0  0.9937274931225061  0.11795457376280176  0.4946075381045106  1.0000
  H   H52       1.0  0.5062726458082524  0.3820455719218073  0.9946076144785322  1.0000
  H   H53       1.0  0.49372742172357675  0.38204576726784717  0.4946079375477481  1.0000
  H   H54       1.0  0.006272744061121201  0.11795395370904059  0.9946081039476412  1.0000
  H   H55       1.0  0.006272387005985499  0.882044884103628  0.5053917428344262  1.0000
  H   H56       1.0  0.4937279802532899  0.6179553686023455  0.005391666460226899  1.0000
  H   H57       1.0  0.40093399100857846  0.5551950252379925  0.5351902025609262  1.0000
  H   H58       1.0  0.0990663898499022  0.944804463328282  0.0351904302819932  1.0000
  H   H59       1.0  0.09906602768849379  0.055196181129673484  0.46480909476876053  1.0000
  H   H60       1.0  0.4009333785636072  0.4448035626583646  0.9648092287064358  1.0000
  H   H61       1.0  0.5990658891199131  0.4448044326284446  0.46480907837801066  1.0000
  H   H62       1.0  0.9009334902784615  0.05519573586693838  0.964809345128792  1.0000
  H   H63       1.0  0.9009338524399978  0.9448032767367562  0.5351901861701762  1.0000
  H   H64       1.0  0.5990665015647637  0.5551966365368557  0.0351905467043494  1.0000
  H   H65       1.0  0.5837921344614259  0.6161032654389159  0.6190056823365069  1.0000
  H   H66       1.0  0.9162082577934497  0.8838965836744421  0.11900549979694831  1.0000
  H   H67       1.0  0.9162085641885369  0.11610354333389239  0.38099369426213053  1.0000
  H   H68       1.0  0.583791522893378  0.38389594799272686  0.880993785513958  1.0000
  H   H69       1.0  0.4162084916004646  0.3838969337560697  0.3809940930743494  1.0000
  H   H70       1.0  0.0837916223350419  0.11610287419198778  0.8809937811419815  1.0000
  H   H71       1.0  0.0837913159399619  0.8838959145325446  0.6190055866768063  1.0000
  H   H72       1.0  0.4162083572352273  0.6161035098735181  0.11900598989694798  1.0000
  H   H73       1.0  0.5491890580128215  0.49423250805293145  0.5954149362643477  1.0000
  H   H74       1.0  0.9508116446751841  0.0057672018830245975  0.0954148895477402  1.0000
  H   H75       1.0  0.950812143661146  0.9942329032128825  0.4045843114342347  1.0000
  H   H76       1.0  0.5491883789211655  0.5057667272908901  0.9045845246633065  1.0000
  H   H77       1.0  0.450811568049197  0.5057669498132638  0.4045843446746673  1.0000
  H   H78       1.0  0.049188235453307506  0.9942322559834124  0.9045843913911966  1.0000
  H   H79       1.0  0.04918848240075851  0.005766554653497697  0.5954144750328041  1.0000
  H   H80       1.0  0.45081224714061113  0.49423347190428046  0.0954147562755736  1.0000
  H   H81       1.0  0.47433089039355286  0.5622435131466972  0.6521783218521549  1.0000
  H   H82       1.0  0.025669543853545893  0.9377566271947585  0.15217804281985536  1.0000
  H   H83       1.0  0.025669869709538797  0.062243322412250286  0.3478209730750876  1.0000
  H   H84       1.0  0.47433022908687406  0.43775725225851386  0.8478211240988642  1.0000
  H   H85       1.0  0.5256697356682237  0.4377566860484806  0.3478209590867323  1.0000
  H   H86       1.0  0.9743303362747043  0.06224357200065359  0.8478212381189537  1.0000
  H   H87       1.0  0.9743307563524796  0.937756135453938  0.6521783078639203  1.0000
  H   H88       1.0  0.5256703969747819  0.5622436882654469  0.1521786513118712  1.0000
  C   C1        1.0  0.29145847867277297  0.6126058875550411  0.3063297625610417  1.0000
  C   C2        1.0  0.20854277185687659  0.8873933934550422  0.8063288886346882  1.0000
  C   C3        1.0  0.20854299501103668  0.11260605760084984  0.6936695151982306  1.0000
  C   C4        1.0  0.291455541570258  0.3873924110856066  0.19367029545243503  1.0000
  C   C5        1.0  0.7085436392564047  0.38739357031049343  0.6936700128500917  1.0000
  C   C6        1.0  0.7914563623381028  0.1126053230830237  0.19366940336036007  1.0000
  C   C7        1.0  0.7914531554509026  0.8873904349506601  0.3063302602128104  1.0000
  C   C8        1.0  0.7085450844916322  0.612607788109379  0.8063294799584214  1.0000
  C   C9        1.0  0.35160755865797466  0.6876794985170845  0.3436569505883256  1.0000
  C   C10       1.0  0.1483929629729772  0.8123204952478104  0.8436575736358307  1.0000
  C   C11       1.0  0.148393866798564  0.18767973522592737  0.6563418071071965  1.0000
  C   C12       1.0  0.351604652746488  0.31232172735122526  0.1563411415703939  1.0000
  C   C13       1.0  0.6483923214706309  0.31231995934916057  0.6563428248225875  1.0000
  C   C14       1.0  0.8516054252879642  0.18768192793424987  0.1563436851903433  1.0000
  C   C15       1.0  0.8516075051963623  0.8123226879553723  0.3436589572473068  1.0000
  C   C16       1.0  0.6483937355144818  0.6876792131736378  0.843658139368145  1.0000
  C   C17       1.0  0.41354537387435647  0.7539342865453234  0.3100308734064825  1.0000
  C   C18       1.0  0.08645364054365251  0.7460657329610639  0.8100305177039289  1.0000
  C   C19       1.0  0.08645377122000039  0.253934536735393  0.6899693451192022  1.0000
  C   C20       1.0  0.41354476367150284  0.24606764142839668  0.1899701979756685  1.0000
  C   C21       1.0  0.5864530143874305  0.24606517132101394  0.6899698909482268  1.0000
  C   C22       1.0  0.9135454936508296  0.2539359488921562  0.18996975217849874  1.0000
  C   C23       1.0  0.9135461089080151  0.7460664037889942  0.310029935819486  1.0000
  C   C24       1.0  0.5864543705230928  0.7539340404246386  0.8100305663787281  1.0000
  C   C25       1.0  0.4655309577112162  0.8265066569134017  0.3452842455866829  1.0000
  C   C26       1.0  0.03446658092723  0.6734955595942436  0.8452834097503441  1.0000
  C   C27       1.0  0.0344651570298566  0.3265040016939906  0.6547169371440162  1.0000
  C   C28       1.0  0.465535599574352  0.17349820345467032  0.1547178251398478  1.0000
  C   C29       1.0  0.5344644468156403  0.17349576626960328  0.6547170132391926  1.0000
  C   C30       1.0  0.9655347910678315  0.3265053809296673  0.1547158711884862  1.0000
  C   C31       1.0  0.9655324852972382  0.6734976801602739  0.34528184932234757  1.0000
  C   C32       1.0  0.5344672642879686  0.8265034783969936  0.8452834336869017  1.0000
  C   C33       1.0  0.45552800261160087  0.8333928386926671  0.41391003072434535  1.0000
  C   C34       1.0  0.0444710592127251  0.6666071012949644  0.9139087047652268  1.0000
  C   C35       1.0  0.044471091438929  0.33339319498671216  0.5860911496587136  1.0000
  C   C36       1.0  0.45553037978128696  0.16660683870757245  0.0860920380016239  1.0000
  C   C37       1.0  0.5444696397167732  0.16660661917371294  0.5860912281022621  1.0000
  C   C38       1.0  0.9555295668489306  0.3333938392289964  0.0860910706455087  1.0000
  C   C39       1.0  0.9555302805567222  0.666606262879057  0.41390862575234877  1.0000
  C   C40       1.0  0.5444717381481112  0.8333926191575852  0.913908726353462  1.0000
  C   C41       1.0  0.39371102864258495  0.7667681276375121  0.44708811637335083  1.0000
  C   C42       1.0  0.10628655645662383  0.7332303042945512  0.9470877690139688  1.0000
  C   C43       1.0  0.10628587040602609  0.2667706941720808  0.5529120977767974  1.0000
  C   C44       1.0  0.3937140938059471  0.2332278822631793  0.052912951042053194  1.0000
  C   C45       1.0  0.6062858677526319  0.23322984757133716  0.5529126479814579  1.0000
  C   C46       1.0  0.8937133236724435  0.2667684122423352  0.052912995341017705  1.0000
  C   C47       1.0  0.8937132637895361  0.7332272810364412  0.4470876776342934  1.0000
  C   C48       1.0  0.6062872781902869  0.7667708342730463  0.9470883077850515  1.0000
  C   C49       1.0  0.3419313227854914  0.6936160377065334  0.4124533287513827  1.0000
  C   C50       1.0  0.1580677383747258  0.8063831620664669  0.9124539557584442  1.0000
  C   C51       1.0  0.15806860699034786  0.19361706228041697  0.5875464158640966  1.0000
  C   C52       1.0  0.341931373026604  0.3063829703009303  0.08754575041609769  1.0000
  C   C53       1.0  0.6580678114099355  0.3063826788307721  0.5875469411315564  1.0000
  C   C54       1.0  0.8419313958204525  0.19361703712841924  0.0875473030681917  1.0000
  C   C55       1.0  0.8419320190722316  0.8063823955848335  0.4124553374347784  1.0000
  C   C56       1.0  0.6580692530352864  0.6936172288940481  0.9124540249947656  1.0000
  C   C57       1.0  0.5344395202850407  0.8959602779295607  0.3099492734165494  1.0000
  C   C58       1.0  0.9655594672418955  0.604040166346813  0.8099485475022375  1.0000
  C   C59       1.0  0.9655595067189325  0.3959602879904124  0.6900524801416664  1.0000
  C   C60       1.0  0.5344412391574735  0.1040408321590292  0.1900518221524621  1.0000
  C   C61       1.0  0.4655596139098961  0.1040414039229063  0.6900529743537689  1.0000
  C   C62       1.0  0.0344404128868163  0.3959592915192403  0.1900517223806446  1.0000
  C   C63       1.0  0.0344403734093106  0.6040406525335981  0.309947789740967  1.0000
  C   C64       1.0  0.4655608787714627  0.8959593670354804  0.8099479532585434  1.0000
  C   C65       1.0  0.34414896320841126  0.8541685660775964  0.5510607183831837  1.0000
  C   C66       1.0  0.15585142489244666  0.6458316516689776  0.051060564909541  1.0000
  C   C67       1.0  0.15585160936276307  0.3541682155010831  0.4489389715020096  1.0000
  C   C68       1.0  0.344149281513765  0.14583154043516086  0.9489387015234101  1.0000
  C   C69       1.0  0.655851662853479  0.14583163311738898  0.4489390570276726  1.0000
  C   C70       1.0  0.8441492011694437  0.354168547526008  0.9489392105013225  1.0000
  C   C71       1.0  0.8441490166993617  0.6458312423649204  0.5510608039089817  1.0000
  C   C72       1.0  0.6558505986142507  0.8541694000892263  0.05106057941527809  1.0000
  C   C73       1.0  0.41115920596821803  0.706289717691952  0.5647907535792029  1.0000
  C   C74       1.0  0.0888411883986109  0.7937104895441605  0.064791030760972  1.0000
  C   C75       1.0  0.08884146159967089  0.20629016138863676  0.4352084922441577  1.0000
  C   C76       1.0  0.41115942301088637  0.2937096050580692  0.9352086797338045  1.0000
  C   C77       1.0  0.5888406741601457  0.29371048150326823  0.4352090218315823  1.0000
  C   C78       1.0  0.9111594376630378  0.20629045097980034  0.9352087446497636  1.0000
  C   C79       1.0  0.9111591644623475  0.7937092964775585  0.5647907886948573  1.0000
  C   C80       1.0  0.5888404571173566  0.7062913354659414  0.0647915901488219  1.0000
  C   C81       1.0  0.30370217340225747  0.9450458863864455  0.5195732180481798  1.0000
  C   C82       1.0  0.1962974543953848  0.5549543554639129  0.019573103645456103  1.0000
  C   C83       1.0  0.196298340789177  0.44504622742291383  0.4804259463858358  1.0000
  C   C84       1.0  0.3037025644566996  0.054954245738940685  0.9804261937664975  1.0000
  C   C85       1.0  0.6962977067261135  0.0549543128087748  0.48042655736259837  1.0000
  C   C86       1.0  0.8037024257332205  0.4450451024023253  0.980426671765457  1.0000
  C   C87       1.0  0.8037022852725997  0.5549539717722566  0.5195733345530513  1.0000
  C   C88       1.0  0.6962980616048354  0.945046694785212  0.0195730871722617  1.0000
  C   C89       1.0  0.4591309645988916  0.6089331975771587  0.5496520210315907  1.0000
  C   C90       1.0  0.04087016879282859  0.8910662799185899  0.0496517609564222  1.0000
  C   C91       1.0  0.04086976551074171  0.10893366006276749  0.4503477524515134  1.0000
  C   C92       1.0  0.4591303800751588  0.39106609479532034  0.9503474218787389  1.0000
  C   C93       1.0  0.5408696614627644  0.39106774294680235  0.4503477543791448  1.0000
  C   C94       1.0  0.9591304572691824  0.10893317794760547  0.9503475199825858  1.0000
  C   C95       1.0  0.9591301146178637  0.8910657978034776  0.5496520229593926  1.0000
  C   C96       1.0  0.5408702459866177  0.6089341043998501  0.0496518590601482  1.0000
  C   C97       1.0  0.5200879324936877  0.5680585002998554  0.6074078440149648  1.0000
  C   C98       1.0  0.9799124544681349  0.931942099020581  0.1074076578422236  1.0000
  C   C99       1.0  0.979912797020262  0.06805872897626838  0.392592043433595  1.0000
  C   C100      1.0  0.5200872953543438  0.4319414948010304  0.892591611090495  1.0000
  C   C101      1.0  0.4799126935684369  0.4319409575661552  0.3925919313960193  1.0000
  C   C102      1.0  0.020087425659994596  0.06805884150361409  0.8925921175684336  1.0000
  C   C103      1.0  0.0200870831083435  0.9319407288899764  0.6074077319773181  1.0000
  C   C104      1.0  0.4799133307074328  0.5680587043941401  0.1074076698483921  1.0000
  N   N1        1.0  0.3483567951254399  0.8345396315579875  0.6150780306688546  1.0000
  N   N2        1.0  0.15164287625722747  0.6654597958548222  0.11507786966215151  1.0000
  N   N3        1.0  0.15164379005519626  0.3345393326512606  0.3849211714356429  1.0000
  N   N4        1.0  0.3483563256728459  0.16545973096145863  0.8849213900796187  1.0000
  N   N5        1.0  0.6516438309364501  0.16546056763699818  0.3849217447420017  1.0000
  N   N6        1.0  0.8483562579377447  0.3345396620118492  0.8849214112767072  1.0000
  N   N7        1.0  0.8483568360068219  0.6654601252149349  0.6150781095033722  1.0000
  N   N8        1.0  0.6516435544556388  0.8345404682335698  0.1150788798031428  1.0000
  N   N9        1.0  0.3907810500238896  0.742102563139845  0.6238692678845937  1.0000
  N   N10       1.0  0.10921937130392931  0.7578975988722475  0.12386857240754522  1.0000
  N   N11       1.0  0.1092195945382386  0.24210229782742937  0.37613046020265983  1.0000
  N   N12       1.0  0.3907805171776886  0.25789751384372284  0.8761301613512914  1.0000
  N   N13       1.0  0.6092203219713992  0.25789837738369664  0.3761310019981892  1.0000
  N   N14       1.0  0.8907805088243207  0.2421026003231646  0.8761307085312637  1.0000
  N   N15       1.0  0.890781031523666  0.7578971600389577  0.6238683262643789  1.0000
  N   N16       1.0  0.609218617017042  0.7421026853519235  0.12386911958743951  1.0000
  N   N17       1.0  0.38289724381342444  0.7745624371653506  0.5170371082761633  1.0000
  N   N18       1.0  0.1171016368935227  0.7254370652976757  0.0170369199135223  1.0000
  N   N19       1.0  0.11710188802904747  0.2745635677393849  0.4829626087454812  1.0000
  N   N20       1.0  0.3828982724411674  0.22543616215194356  0.9829628138548472  1.0000
  N   N21       1.0  0.6171003985147223  0.22543702070140625  0.4829631616064987  1.0000
  N   N22       1.0  0.882899735101887  0.27456313389706816  0.9829628554974121  1.0000
  N   N23       1.0  0.8828979921000197  0.7254351487975015  0.5170381556094981  1.0000
  N   N24       1.0  0.6171023536208365  0.7745640370428504  0.017037456027985298  1.0000
  O   O1        1.0  0.26368740550667974  0.5362682737587788  0.3386954358187921  1.0000
  O   O2        1.0  0.2363131138602625  0.9637302411465708  0.8386950358977856  1.0000
  O   O3        1.0  0.2363126253493277  0.036268450994803886  0.6613043624349615  1.0000
  O   O4        1.0  0.2636866423952497  0.46373004246683536  0.1613051111108987  1.0000
  O   O5        1.0  0.7363124746227285  0.463730442777539  0.6613068119521159  1.0000
  O   O6        1.0  0.7636845284685875  0.036267734061851784  0.16130622292907051  1.0000
  O   O7        1.0  0.7636902385140657  0.9637302655407537  0.3386973908642688  1.0000
  O   O8        1.0  0.7363132377333413  0.5362701567280083  0.838695653243832  1.0000
  O   O9        1.0  0.27146743998032  0.6331777959453007  0.24645859603348444  1.0000
  O   O10       1.0  0.2285330372929693  0.8668215308959969  0.7464582275912335  1.0000
  O   O11       1.0  0.2285317826874618  0.1331786488302669  0.753541169184679  1.0000
  O   O12       1.0  0.27146752715053424  0.366819774024414  0.2535419524529132  1.0000
  O   O13       1.0  0.7285309482821773  0.36681943793410443  0.7535421683216015  1.0000
  O   O14       1.0  0.7714698265682999  0.1331823749431749  0.2535415478192178  1.0000
  O   O15       1.0  0.7714613840389574  0.8668222916960602  0.24645860622530344  1.0000
  O   O16       1.0  0.7285345907788782  0.6331789425121384  0.7464578229583481  1.0000
  O   O17       1.0  0.5603226497101872  0.9739547382029982  0.34129878583085826  1.0000
  O   O18       1.0  0.9396756061897449  0.5260456820760381  0.8412970923817155  1.0000
  O   O19       1.0  0.93967334345664  0.47395478865231394  0.6587049190274854  1.0000
  O   O20       1.0  0.5603281340489588  0.026043390176468492  0.1587067651650642  1.0000
  O   O21       1.0  0.4396735007516952  0.026045460991511497  0.6587059342992845  1.0000
  O   O22       1.0  0.0603257658063541  0.4739537757889705  0.1587046609172376  1.0000
  O   O23       1.0  0.06032653667172381  0.5260454105429061  0.3412948563832998  1.0000
  O   O24       1.0  0.4396747298150173  0.9739538437009472  0.841295482606391  1.0000
  O   O25       1.0  0.5618115462910751  0.8695875128386275  0.25253515086451017  1.0000
  O   O26       1.0  0.938188906900308  0.6304159407034928  0.7525344104835057  1.0000
  O   O27       1.0  0.9381927191910577  0.36958156564921996  0.7474656227414798  1.0000
  O   O28       1.0  0.5618058150854778  0.13042173453793274  0.2474659501785084  1.0000
  O   O29       1.0  0.43819131757015833  0.1304186169863328  0.7474675913774007  1.0000
  O   O30       1.0  0.0618094813620615  0.3695820345046953  0.24746684834342858  1.0000
  O   O31       1.0  0.06180939873812719  0.6304171508877161  0.252533163725829  1.0000
  O   O32       1.0  0.43819033537372576  0.8695829126325306  0.7525333307591708  1.0000
