data_image0
_chemical_formula_structural       Cd2H36C52N4O12
_chemical_formula_sum              "Cd2 H36 C52 N4 O12"
_cell_length_a       7.15374220390946
_cell_length_b       11.505397241624122
_cell_length_c       14.16771676392488
_cell_angle_alpha    113.96071293814205
_cell_angle_beta     95.80336404233701
_cell_angle_gamma    89.99659821294499

_space_group_name_H-M_alt    "P 1"
_space_group_IT_number       1

loop_
  _space_group_symop_operation_xyz
  'x, y, z'

loop_
  _atom_site_type_symbol
  _atom_site_label
  _atom_site_symmetry_multiplicity
  _atom_site_fract_x
  _atom_site_fract_y
  _atom_site_fract_z
  _atom_site_occupancy
  Cd  Cd1       1.0  0.24983839629891946  0.39490795616109853  4.340736489176741e-05  1.0000
  Cd  Cd2       1.0  0.750166026049065  0.6050949445360061  0.9999563024731375  1.0000
  H   H1        1.0  0.140358412362481  0.42365863001425913  0.23102457473172686  1.0000
  H   H2        1.0  0.35916281915464765  0.19290407462047193  0.7690700178337267  1.0000
  H   H3        1.0  0.8596303610398762  0.5763405190608637  0.7689701579179343  1.0000
  H   H4        1.0  0.6408372684605653  0.8070969374377981  0.23092811024522328  1.0000
  H   H5        1.0  0.11242024680290538  0.29401234228583917  0.33612672900641644  1.0000
  H   H6        1.0  0.3875565963620248  0.9581621950899119  0.663956899024612  1.0000
  H   H7        1.0  0.8875741513470458  0.7059877391572441  0.663870758614415  1.0000
  H   H8        1.0  0.6124392063129702  0.041837880988332195  0.3360406693951886  1.0000
  H   H9        1.0  0.15851272045470205  0.05951687136521851  0.2521924540509133  1.0000
  H   H10       1.0  0.3417837552001687  0.807555384668717  0.7479078270492467  1.0000
  H   H11       1.0  0.8414831037928394  0.9404832041287675  0.747804409531206  1.0000
  H   H12       1.0  0.6582150490476765  0.1924475374877446  0.25209155959289836  1.0000
  H   H13       1.0  0.21214349748679945  0.8652680889183276  0.08884775339083023  1.0000
  H   H14       1.0  0.28823830449501747  0.7764959479486325  0.9109323097080948  1.0000
  H   H15       1.0  0.7878538955885543  0.13473388477564902  0.9111491206770594  1.0000
  H   H16       1.0  0.7117604068151592  0.22350602271754388  0.08906746450949042  1.0000
  H   H17       1.0  0.4893407335571353  0.5165857870095747  0.2709516533589564  1.0000
  H   H18       1.0  0.010791099413062003  0.24552007969857206  0.7290739460651211  1.0000
  H   H19       1.0  0.5106621913281587  0.4834161675620764  0.7290483632555367  1.0000
  H   H20       1.0  0.9892158166743596  0.7544809107938235  0.2709309295478093  1.0000
  H   H21       1.0  0.6045195780180492  0.3694797992104455  0.22156585697420186  1.0000
  H   H22       1.0  0.8952148084066068  0.14801570529874652  0.7785080606818084  1.0000
  H   H23       1.0  0.3954775860368684  0.6305202726714753  0.7784332019199242  1.0000
  H   H24       1.0  0.10479086745854722  0.851987194123325  0.22149666381894684  1.0000
  H   H25       1.0  0.5291187967413647  0.3926998226434861  0.3740936228598102  1.0000
  H   H26       1.0  0.9709873991272814  0.01849605889027831  0.6257754636055495  1.0000
  H   H27       1.0  0.47089208395838966  0.6072963884603624  0.6259063846504277  1.0000
  H   H28       1.0  0.029009735077430283  0.9815059218148079  0.37422986851450457  1.0000
  H   H29       1.0  0.09163234640985252  0.6244665553386143  0.3764096764641281  1.0000
  H   H30       1.0  0.40847316184958515  0.2481344497796698  0.6236577658978177  1.0000
  H   H31       1.0  0.9083802740679302  0.3755344113573855  0.6235927029939603  1.0000
  H   H32       1.0  0.5915269174879753  0.7518684705175076  0.37634593056937865  1.0000
  H   H33       1.0  0.6012499884613545  0.3188487411472282  0.5146851762532094  1.0000
  H   H34       1.0  0.8987220653691284  0.8041112128188815  0.4851629675200899  1.0000
  H   H35       1.0  0.3987663178157703  0.6811445916893534  0.48531349782850713  1.0000
  H   H36       1.0  0.10127817827120107  0.1958936110431324  0.5148406586339078  1.0000
  C   C1        1.0  0.1602027373778441  0.32136786398545786  0.197850701141988  1.0000
  C   C2        1.0  0.33954862805883584  0.12378012493139322  0.8022624908834572  1.0000
  C   C3        1.0  0.8397876114997729  0.6786341371169797  0.8021464737687297  1.0000
  C   C4        1.0  0.6604500334587868  0.876220893075974  0.19773626123420485  1.0000
  C   C5        1.0  0.1442790552731879  0.24807798057216962  0.25589963643437846  1.0000
  C   C6        1.0  0.35586221393860745  0.9924533600424542  0.7442080619978599  1.0000
  C   C7        1.0  0.8557112222393145  0.7519230684557243  0.7440972212140979  1.0000
  C   C8        1.0  0.6441349003237562  0.007545759180658301  0.2557899747963504  1.0000
  C   C9        1.0  0.1687655757120794  0.11868685246092528  0.20903511223902885  1.0000
  C   C10       1.0  0.3314846898437835  0.9098954058461147  0.7910413006080504  1.0000
  C   C11       1.0  0.8312275390705038  0.8813151390803499  0.7909636339449906  1.0000
  C   C12       1.0  0.6685096369410674  0.09010372352241798  0.20895586975053965  1.0000
  C   C13       1.0  0.20819540702387937  0.062470689988231194  0.10456202346979641  1.0000
  C   C14       1.0  0.29202817492044636  0.9580909593306471  0.8954936675347657  1.0000
  C   C15       1.0  0.7917919685008953  0.9375294182790556  0.8954350601561814  1.0000
  C   C16       1.0  0.707960648274472  0.0419091424032771  0.1045020872148186  1.0000
  C   C17       1.0  0.22701342692168677  0.1448849956595879  0.053155967117462004  1.0000
  C   C18       1.0  0.2730365603528496  0.09187796483347202  0.9469704020575804  1.0000
  C   C19       1.0  0.7729769003833767  0.8551170060271079  0.9468419126309374  1.0000
  C   C20       1.0  0.7269577946520017  0.9081221177781276  0.05302849523860712  1.0000
  C   C21       1.0  0.22999047693492256  0.9287498710262343  0.050247715911183544  1.0000
  C   C22       1.0  0.2702696686363311  0.8785511022743581  0.9496606245315676  1.0000
  C   C23       1.0  0.7700011553100623  0.0712502199780118  0.9497482004363391  1.0000
  C   C24       1.0  0.7297233183411362  0.12144803070624731  0.05033435051500852  1.0000
  C   C25       1.0  0.6475726877359875  0.493717197326042  0.14516129447730475  1.0000
  C   C26       1.0  0.8523069163707434  0.348739619070507  0.854711055364291  1.0000
  C   C27       1.0  0.3524331457844879  0.5062866518335484  0.8548409279349728  1.0000
  C   C28       1.0  0.1476934849249076  0.6512661545290187  0.14529006870122174  1.0000
  C   C29       1.0  0.6206901844383879  0.47219778165218435  0.24231852982072882  1.0000
  C   C30       1.0  0.8792743452162456  0.22989465755153302  0.7576343072247981  1.0000
  C   C31       1.0  0.37931118654419294  0.5278013203078941  0.7576783396950333  1.0000
  C   C32       1.0  0.1207297767462023  0.7701053892589654  0.2423672701772261  1.0000
  C   C33       1.0  0.8023143431032053  0.48568403556807743  0.39745402115159584  1.0000
  C   C34       1.0  0.697861739607731  0.0882154212583544  0.6024714268671546  1.0000
  C   C35       1.0  0.1976939426417985  0.5143150424890877  0.6025467765474205  1.0000
  C   C36       1.0  0.3021399583501888  0.9117903498976216  0.39753330218573524  1.0000
  C   C37       1.0  0.667894309835084  0.4149016661328133  0.4181724642086096  1.0000
  C   C38       1.0  0.8321834604734377  0.996657372252763  0.581768182911617  1.0000
  C   C39       1.0  0.3321155231651716  0.5850993107086141  0.5818290488138589  1.0000
  C   C40       1.0  0.1678153786418548  0.0033474569740903  0.41823536244340437  1.0000
  C   C41       1.0  0.9815949018848612  0.5209669036881195  0.45896069859945504  1.0000
  C   C42       1.0  0.5185096415714626  0.0620294722697281  0.5410279558165669  1.0000
  C   C43       1.0  0.0184106959677379  0.47903408983207635  0.5410412768637798  1.0000
  C   C44       1.0  0.48149638447178933  0.9379772336977652  0.4589759232201161  1.0000
  C   C45       1.0  0.12045346526786459  0.5945179307353571  0.4398208134121263  1.0000
  C   C46       1.0  0.37963488115308763  0.15474110029955315  0.5602232172330731  1.0000
  C   C47       1.0  0.8795562963672906  0.40548209403151947  0.5601803823481006  1.0000
  C   C48       1.0  0.620362540142267  0.8452618266374972  0.43977538377242115  1.0000
  C   C49       1.0  0.7084614601740212  0.37455088674192183  0.4995643747391868  1.0000
  C   C50       1.0  0.791497128945899  0.8749436651095265  0.5003520957218229  1.0000
  C   C51       1.0  0.29154696830119764  0.6254500954643376  0.5004370574843123  1.0000
  C   C52       1.0  0.20850147450151008  0.1250583084779393  0.4996512026841557  1.0000
  N   N1        1.0  0.2024792190395743  0.27147444410718446  0.10035647804909334  1.0000
  N   N2        1.0  0.2972956672328948  0.1713102894410454  0.8997687957804388  1.0000
  N   N3        1.0  0.7975140600457847  0.7285294509989271  0.8996421978217272  1.0000
  N   N4        1.0  0.7027044486023186  0.8286916758602839  0.1002310592361155  1.0000
  O   O1        1.0  0.5730278426839774  0.4104666027087873  0.059536021799040426  1.0000
  O   O2        1.0  0.9266177926277093  0.3512872022755786  0.9404307201837984  1.0000
  O   O3        1.0  0.4269705615932152  0.5895315602434507  0.9404631882072536  1.0000
  O   O4        1.0  0.0733893657750428  0.648717597683529  0.05957683415344666  1.0000
  O   O5        1.0  0.7397214374077947  0.59384563740047  0.15696064127899234  1.0000
  O   O6        1.0  0.7603562234523905  0.4370585911136332  0.8427369391706067  1.0000
  O   O7        1.0  0.2602808949840707  0.4061487011590614  0.8430375420752583  1.0000
  O   O8        1.0  0.2396478055723961  0.5629405042065726  0.15726502580685064  1.0000
  O   O9        1.0  0.7785964737209099  0.526414807059922  0.3193009121368676  1.0000
  O   O10       1.0  0.7215655426184852  0.2071331081490656  0.6805777527585094  1.0000
  O   O11       1.0  0.22140637979926941  0.47358619543718566  0.680698787215384  1.0000
  O   O12       1.0  0.278440418707106  0.7928735995711946  0.31942824079121124  1.0000
