data_image0
_chemical_formula_structural       Cu4H36C52I4N4O4
_chemical_formula_sum              "Cu4 H36 C52 I4 N4 O4"
_cell_length_a       7.160746778034732
_cell_length_b       9.40082557621906
_cell_length_c       17.372930043441166
_cell_angle_alpha    89.99976624532437
_cell_angle_beta     89.99811879313634
_cell_angle_gamma    97.2472896771819

_space_group_name_H-M_alt    "P 1"
_space_group_IT_number       1

loop_
  _space_group_symop_operation_xyz
  'x, y, z'

loop_
  _atom_site_type_symbol
  _atom_site_label
  _atom_site_symmetry_multiplicity
  _atom_site_fract_x
  _atom_site_fract_y
  _atom_site_fract_z
  _atom_site_occupancy
  Cu  Cu1       1.0  0.7561182715623076  0.2681119712209465  0.21335060811394876  1.0000
  Cu  Cu2       1.0  0.7438771601941951  0.7318870917186544  0.7133545224578911  1.0000
  Cu  Cu3       1.0  0.2438714469446736  0.7318853686477523  0.7866507062453039  1.0000
  Cu  Cu4       1.0  0.25611230202476065  0.2681177427868633  0.2866450650708359  1.0000
  H   H1        1.0  0.6955202376085622  0.06628164180078501  0.34429287703126493  1.0000
  H   H2        1.0  0.8044855193964364  0.9337155258252918  0.8442966903091076  1.0000
  H   H3        1.0  0.3044778705608094  0.9337157646600924  0.6557067104460472  1.0000
  H   H4        1.0  0.19551018840232354  0.06629364204859202  0.1557028971723327  1.0000
  H   H5        1.0  0.7553984331208027  0.813870314219365  0.3706896497573453  1.0000
  H   H6        1.0  0.7446208842768697  0.1861287043077482  0.870695847583825  1.0000
  H   H7        1.0  0.24462130152395636  0.18613154766609338  0.6293105131753762  1.0000
  H   H8        1.0  0.25537030244321807  0.8138782857809871  0.1293043155389881  1.0000
  H   H9        1.0  0.8186039028650143  0.6567994324134715  0.2585614907380176  1.0000
  H   H10       1.0  0.6814171223486268  0.3432077185176253  0.7585693764885664  1.0000
  H   H11       1.0  0.181416647451087  0.3432077907048381  0.7414380965753652  1.0000
  H   H12       1.0  0.31857201363455084  0.6567949715010926  0.24142963543650353  1.0000
  H   H13       1.0  0.8397394267918584  0.6263122468930007  0.11803183028836631  1.0000
  H   H14       1.0  0.6602686038500281  0.3736926391431296  0.6180387905152145  1.0000
  H   H15       1.0  0.1602599164664724  0.37368409840958355  0.8819689083978872  1.0000
  H   H16       1.0  0.33971617425428485  0.6263089453496987  0.3819590702245605  1.0000
  H   H17       1.0  0.8266840963118227  0.7296056327719426  0.9855153025249095  1.0000
  H   H18       1.0  0.6733223407523565  0.27039583345583645  0.48552115133723117  1.0000
  H   H19       1.0  0.17331541000588396  0.27039178476271525  0.014487162983535001  1.0000
  H   H20       1.0  0.32667173575051567  0.7296026119614183  0.5144784361665915  1.0000
  H   H21       1.0  0.7515333118690039  0.9772986785730993  0.9682173819215337  1.0000
  H   H22       1.0  0.7484874425977494  0.0227053043835284  0.4682227200108927  1.0000
  H   H23       1.0  0.2484728596099615  0.022696649970505696  0.0317827811108913  1.0000
  H   H24       1.0  0.25152003391792016  0.9772986021253799  0.5317774430036123  1.0000
  H   H25       1.0  0.45620408654699657  0.22324881329608817  0.1502804461744063  1.0000
  H   H26       1.0  0.043799491477479094  0.7767404503973339  0.6502818259032781  1.0000
  H   H27       1.0  0.5437915746551382  0.776732509475309  0.8497197169446338  1.0000
  H   H28       1.0  0.9562025548020612  0.22326448391261514  0.3497258200531945  1.0000
  H   H29       1.0  0.5184081005985348  0.4794186621296959  0.0766013342882914  1.0000
  H   H30       1.0  0.9815805310481804  0.5205749151279592  0.5766053139965663  1.0000
  H   H31       1.0  0.48156987254265715  0.5205657331251032  0.9233988289486348  1.0000
  H   H32       1.0  0.018423566108701606  0.4794343192791929  0.423400029508791  1.0000
  H   H33       1.0  0.786758107485653  0.4418231732071476  0.965648186384115  1.0000
  H   H34       1.0  0.7132575889545476  0.5581829502773131  0.46565749094481385  1.0000
  H   H35       1.0  0.21322741634226355  0.558174133394921  0.0343502499631683  1.0000
  H   H36       1.0  0.28675967541865777  0.44182103390661337  0.5343426720026019  1.0000
  C   C1        1.0  0.7206414817253303  0.9942109450065857  0.2971229490573962  1.0000
  C   C2        1.0  0.7793662236921292  0.005783737508174601  0.7971261704530122  1.0000
  C   C3        1.0  0.27936485295343516  0.005785455796278401  0.7028754871483545  1.0000
  C   C4        1.0  0.22062866850549773  0.9942200691464579  0.20287226582333773  1.0000
  C   C5        1.0  0.7544950357807493  0.8524842291833181  0.3116230103267341  1.0000
  C   C6        1.0  0.7455242378760187  0.14751139711832906  0.8116281253903637  1.0000
  C   C7        1.0  0.245520177738527  0.1475154549079249  0.6883788794636488  1.0000
  C   C8        1.0  0.2544694191858312  0.8524934706855375  0.1883703108933261  1.0000
  C   C9        1.0  0.7874132511463401  0.7663597988646558  0.2502526860859362  1.0000
  C   C10       1.0  0.712603858940568  0.23363566602236574  0.7502574960495068  1.0000
  C   C11       1.0  0.21259636935829457  0.2336398408499321  0.7497480525264991  1.0000
  C   C12       1.0  0.28739588045446846  0.7663724628815558  0.24974381822983827  1.0000
  C   C13       1.0  0.7777342826163929  0.8200549442675252  0.17436336736681574  1.0000
  C   C14       1.0  0.722283242895706  0.17994059890891384  0.6743681571773195  1.0000
  C   C15       1.0  0.2222746852996735  0.1799404064508181  0.8256390980790158  1.0000
  C   C16       1.0  0.2777104141193334  0.8200642688858862  0.3256314303226588  1.0000
  C   C17       1.0  0.8088588913193528  0.7358729376032044  0.10904438151207073  1.0000
  C   C18       1.0  0.691149800230235  0.26412245081429836  0.6090534506387542  1.0000
  C   C19       1.0  0.19114464671166329  0.2641234409841431  0.890956932753568  1.0000
  C   C20       1.0  0.3088418060478944  0.7358781169104843  0.3909449856634737  1.0000
  C   C21       1.0  0.8010326382496301  0.7927506365749081  0.0361533895946877  1.0000
  C   C22       1.0  0.6989754792348251  0.20724906082573816  0.5361601681687491  1.0000
  C   C23       1.0  0.19897073665179474  0.20724466976677286  0.963847924673189  1.0000
  C   C24       1.0  0.3010178515444437  0.7927536624822693  0.4638388437275651  1.0000
  C   C25       1.0  0.7601244004197555  0.9341075455347934  0.0260573549151246  1.0000
  C   C26       1.0  0.7398981944954031  0.0658902773042129  0.5260644447015821  1.0000
  C   C27       1.0  0.23988128176405607  0.06588456628995229  0.9739405056914451  1.0000
  C   C28       1.0  0.2601054135067641  0.9341157404112647  0.4739351427290615  1.0000
  C   C29       1.0  0.7274408468631463  0.020916517616960596  0.0882599015046139  1.0000
  C   C30       1.0  0.7725783207964908  0.9790910482645145  0.588266934863512  1.0000
  C   C31       1.0  0.27256499842685133  0.9790766664489111  0.9117385347078513  1.0000
  C   C32       1.0  0.22742652229464255  0.020913908292669696  0.41173380377607327  1.0000
  C   C33       1.0  0.7390544472235162  0.9645845577405726  0.1644894988532641  1.0000
  C   C34       1.0  0.7609682391581882  0.03541224643323909  0.6644952126992081  1.0000
  C   C35       1.0  0.2609527962616339  0.035408637408138995  0.835510664174052  1.0000
  C   C36       1.0  0.23903257226644561  0.9645937490803148  0.3355055259668944  1.0000
  C   C37       1.0  0.6865485933989388  0.16664626894625198  0.0752213533121733  1.0000
  C   C38       1.0  0.8134633386276205  0.8333528688616668  0.5752189220719046  1.0000
  C   C39       1.0  0.31344557626236735  0.8333436095885317  0.924779961024406  1.0000
  C   C40       1.0  0.18653805555486258  0.16664777654719393  0.4247783629469453  1.0000
  C   C41       1.0  0.5671583239800311  0.2548552300426721  0.1087863648428922  1.0000
  C   C42       1.0  0.9328416730872887  0.7451379514423023  0.6087859371351814  1.0000
  C   C43       1.0  0.43282836496570093  0.7451313762729654  0.8912149495483349  1.0000
  C   C44       1.0  0.06716489448156439  0.2548691606935732  0.3912159527066308  1.0000
  C   C45       1.0  0.5899180375122838  0.38646007552095796  0.0660448642376679  1.0000
  C   C46       1.0  0.9100819862940026  0.613529467755079  0.5660473260705531  1.0000
  C   C47       1.0  0.4100597724759041  0.6135232474836415  0.9339558746096374  1.0000
  C   C48       1.0  0.08992968469007678  0.3864744719796818  0.4339608954292018  1.0000
  C   C49       1.0  0.7206553308099328  0.372269082579983  0.010489164061411302  1.0000
  C   C50       1.0  0.7793629372497932  0.6277289410304618  0.5104928106545827  1.0000
  C   C51       1.0  0.27933529657364176  0.6277250516481628  0.9895121502949707  1.0000
  C   C52       1.0  0.220659430796097  0.37227187080219437  0.4895073522612067  1.0000
  I   I1        1.0  0.08695396860103698  0.38970633333673976  0.1787598617320256  1.0000
  I   I2        1.0  0.41304044182211896  0.610301704675237  0.678761714182933  1.0000
  I   I3        1.0  0.9130364960040324  0.6102867287137171  0.8212328185044413  1.0000
  I   I4        1.0  0.5869537748571075  0.389716019043604  0.32122866356947105  1.0000
  N   N1        1.0  0.7185037522444019  0.05094898278694159  0.2268686745394177  1.0000
  N   N2        1.0  0.7815084313767638  0.9490478670683512  0.7268721947903175  1.0000
  N   N3        1.0  0.28150151038136784  0.9490495514017497  0.77313091288773  1.0000
  N   N4        1.0  0.21848818529858954  0.05095809516497239  0.2731273926882452  1.0000
  O   O1        1.0  0.7795933396164187  0.2387864965486202  0.014576293653128403  1.0000
  O   O2        1.0  0.7204340340537101  0.7612276018207282  0.5145867995206787  1.0000
  O   O3        1.0  0.22040691270574794  0.7612066431496557  0.9854198401651076  1.0000
  O   O4        1.0  0.27957894224794433  0.23878491593371354  0.4854145146634536  1.0000
