data_image0
_chemical_formula_structural       Ag4H36C42N8O16
_chemical_formula_sum              "Ag4 H36 C42 N8 O16"
_cell_length_a       9.504014668647756
_cell_length_b       10.937455162884735
_cell_length_c       12.47729979237825
_cell_angle_alpha    78.8655569791063
_cell_angle_beta     85.47528264716252
_cell_angle_gamma    64.93312380173145

_space_group_name_H-M_alt    "P 1"
_space_group_IT_number       1

loop_
  _space_group_symop_operation_xyz
  'x, y, z'

loop_
  _atom_site_type_symbol
  _atom_site_label
  _atom_site_symmetry_multiplicity
  _atom_site_fract_x
  _atom_site_fract_y
  _atom_site_fract_z
  _atom_site_occupancy
  Ag  Ag1       1.0  0.39153642496063407  0.4077372394889807  0.4822191037504737  1.0000
  Ag  Ag2       1.0  0.6084649404284619  0.592262541028262  0.5177802608878609  1.0000
  Ag  Ag3       1.0  0.430559321809433  0.13920898652714436  0.591336607554183  1.0000
  Ag  Ag4       1.0  0.5694399277411007  0.8607908045031891  0.40866287044688226  1.0000
  H   H1        1.0  0.2735638286480651  0.2538067492625515  0.9645671755577895  1.0000
  H   H2        1.0  0.7264354099040631  0.7461930483905307  0.035433103399555  1.0000
  H   H3        1.0  0.5457975800465463  0.12155227645048682  0.9037906755850147  1.0000
  H   H4        1.0  0.45420176826027614  0.8784495602939373  0.09620844589371559  1.0000
  H   H5        1.0  0.7606488084102025  0.022663098802510703  0.0392894800354853  1.0000
  H   H6        1.0  0.23935101947811438  0.9773377124565954  0.9607097913637264  1.0000
  H   H7        1.0  0.7073895847280979  0.056584045167120706  0.2327921498544256  1.0000
  H   H8        1.0  0.29261025415863895  0.9434167594692298  0.7672063205884995  1.0000
  H   H9        1.0  0.5100188567716514  0.49980965276982653  0.7940286250099933  1.0000
  H   H10       1.0  0.4899809821150783  0.500191151866531  0.2059698454329322  1.0000
  H   H11       1.0  0.6337744279282944  0.5254224736743254  0.9513765792040232  1.0000
  H   H12       1.0  0.3662232731230545  0.4745783547206202  0.04862360651420522  1.0000
  H   H13       1.0  0.8827467607162445  0.33714518413081873  0.029454199614420386  1.0000
  H   H14       1.0  0.11725199825438179  0.6628556390075888  0.9705459294224498  1.0000
  H   H15       1.0  0.9966527244624006  0.1201506287281759  0.9548496642572176  1.0000
  H   H16       1.0  0.003348040592086922  0.8798481448057985  0.04515150889553611  1.0000
  H   H17       1.0  0.880841534346736  0.5228854391120948  0.67183338147953  1.0000
  H   H18       1.0  0.11915982004394005  0.4771143480278966  0.32816678411509775  1.0000
  H   H19       1.0  0.898727301025467  0.26744297892017227  0.34808937450862487  1.0000
  H   H20       1.0  0.10127298444751892  0.73255682009912  0.6519116487236544  1.0000
  H   H21       1.0  0.8023884145788144  0.2056893189200295  0.45793168412031093  1.0000
  H   H22       1.0  0.19761341939337043  0.7943094427346437  0.5420686313947982  1.0000
  H   H23       1.0  0.7245528870859632  0.38382038632814636  0.4037169718508054  1.0000
  H   H24       1.0  0.27544634046775224  0.6161794179476915  0.5962841080628323  1.0000
  H   H25       1.0  0.26857352941166107  0.021991584359007305  0.517993728674071  1.0000
  H   H26       1.0  0.7314256981420472  0.9780082199168306  0.4820073512395667  1.0000
  H   H27       1.0  0.0794002791434636  0.0314613648960673  0.5015975975887272  1.0000
  H   H28       1.0  0.920600017327935  0.9685384275004695  0.4984026246872587  1.0000
  H   H29       1.0  0.16206923513334454  0.10938323620548124  0.3941852002530979  1.0000
  H   H30       1.0  0.8379310613380611  0.8906165561910554  0.6058150220228954  1.0000
  H   H31       1.0  0.258801464986007  0.25891278806108187  0.7857185179429678  1.0000
  H   H32       1.0  0.7411988314853986  0.7410870043354622  0.21428170433301827  1.0000
  H   H33       1.0  0.26265191624291623  0.40663821855313387  0.700772340390934  1.0000
  H   H34       1.0  0.7373483692300766  0.5933615804661585  0.2992286828413455  1.0000
  H   H35       1.0  0.10816108720676713  0.425837973851351  0.7958904163808215  1.0000
  H   H36       1.0  0.8918387186847242  0.5741628506532593  0.20411045693096944  1.0000
  C   C1        1.0  0.9404335611276129  0.4352832956756244  0.630614994635856  1.0000
  C   C2        1.0  0.05956673534379321  0.5647164967209123  0.36938522764013026  1.0000
  C   C3        1.0  0.0935056379449932  0.3434832941878838  0.6559852069517262  1.0000
  C   C4        1.0  0.9064957054472701  0.6565164995748631  0.3440157595991876  1.0000
  C   C5        1.0  0.5946729218173131  0.2817526858565742  0.6958909245035728  1.0000
  C   C6        1.0  0.4053264374879222  0.7182491442650941  0.30410739601887127  1.0000
  C   C7        1.0  0.6810841245228332  0.29712525353016167  0.7846944393894971  1.0000
  C   C8        1.0  0.31891676128476115  0.7028755524723992  0.2153047753283559  1.0000
  C   C9        1.0  0.46149403176786313  0.1735369459725007  0.20822499795849583  1.0000
  C   C10       1.0  0.5385052177826709  0.8264628450578327  0.7917744800425625  1.0000
  C   C11       1.0  0.9261008023517128  0.31166536421392266  0.5041509481706186  1.0000
  C   C12       1.0  0.07389997370118821  0.688333402697303  0.495849424025856  1.0000
  C   C13       1.0  0.6127400234430667  0.09885115703553989  0.17351106120824517  1.0000
  C   C14       1.0  0.387259705688976  0.9011476085094754  0.8264885667133016  1.0000
  C   C15       1.0  0.6426075872176185  0.08087728610005482  0.0651105146987447  1.0000
  C   C16       1.0  0.35739224067069836  0.9191235251590513  0.9348887567004739  1.0000
  C   C17       1.0  0.34232214615305157  0.2268834791500538  0.12991768357847633  1.0000
  C   C18       1.0  0.6576769936427882  0.7731142727889377  0.8700829519011961  1.0000
  C   C19       1.0  0.0807074608503555  0.2156469580556362  0.5308237553715571  1.0000
  C   C20       1.0  0.9192943621234096  0.7843518102217928  0.4691773610998453  1.0000
  C   C21       1.0  0.37117648508723977  0.21015800309042731  0.021018968767854997  1.0000
  C   C22       1.0  0.6288227644633012  0.7898417879399063  0.9789805092332033  1.0000
  C   C23       1.0  0.5222327080405762  0.13691922573823231  0.9882692397824188  1.0000
  C   C24       1.0  0.4777654835906805  0.8630805705486465  0.011730294900004878  1.0000
  C   C25       1.0  0.4407918425563295  0.20554055412878106  0.32226399210715334  1.0000
  C   C26       1.0  0.5592089444949906  0.7944582061596891  0.677735579133035  1.0000
  C   C27       1.0  0.8903990927846764  0.20438254239067535  0.9200652654910898  1.0000
  C   C28       1.0  0.10959846551673284  0.7956162667811952  0.07993848057461858  1.0000
  C   C29       1.0  0.8177974118216014  0.19181913601632064  0.8327489648716125  1.0000
  C   C30       1.0  0.1822028736513914  0.8081806630029716  0.16725205836065982  1.0000
  C   C31       1.0  0.6165579504707638  0.4169973069288772  0.8297897213036975  1.0000
  C   C32       1.0  0.3834412880813645  0.5830024907242047  0.17021055765365392  1.0000
  C   C33       1.0  0.6869845495199982  0.43111671006797536  0.9177435930096466  1.0000
  C   C34       1.0  0.3130142204490413  0.5688841064476761  0.0822557350709303  1.0000
  C   C35       1.0  0.8331087522643799  0.2917210416445641  0.4234217014196986  1.0000
  C   C36       1.0  0.16689201279010749  0.7082777318894102  0.5765794717330623  1.0000
  C   C37       1.0  0.15283842132939177  0.0878279586667787  0.4833620467372839  1.0000
  C   C38       1.0  0.847162922062878  0.9121718350959686  0.5166389198136301  1.0000
  C   C39       1.0  0.1846865888142304  0.3601550656502042  0.7399403509380349  1.0000
  C   C40       1.0  0.8153115808202004  0.6398447438821789  0.2600607856569681  1.0000
  C   C41       1.0  0.825070958658124  0.3256443283944819  0.9624008690886754  1.0000
  C   C42       1.0  0.17492838964869858  0.6743575083499422  0.037598252390061794  1.0000
  N   N1        1.0  0.16330261782463404  0.23597016941838686  0.6029200490569407  1.0000
  N   N2        1.0  0.8366987255676293  0.7640296243443602  0.3970809174939731  1.0000
  N   N3        1.0  0.1809306967456195  0.302449946245126  0.16022852210451793  1.0000
  N   N4        1.0  0.8190691201442847  0.6975508716367286  0.8397715502509868  1.0000
  N   N5        1.0  0.8598326176395973  0.42145129687536104  0.5535906281437164  1.0000
  N   N6        1.0  0.14016767883180856  0.5785484955211756  0.4464095941322698  1.0000
  N   N7        1.0  0.8927526551818874  0.06173581603948008  0.7914556615685838  1.0000
  N   N8        1.0  0.1072471727064297  0.9382649952196259  0.2085436098306346  1.0000
  O   O1        1.0  0.4761908115176823  0.10638871827635649  0.40215262233281385  1.0000
  O   O2        1.0  0.5238089066159405  0.8936100538914145  0.5978478065450191  1.0000
  O   O3        1.0  0.3996593304170872  0.3305636403615607  0.32679013715914357  1.0000
  O   O4        1.0  0.6003414786310586  0.6694351066814122  0.6732078321684655  1.0000
  O   O5        1.0  0.5918893504182989  0.16594481533410033  0.7015180089046567  1.0000
  O   O6        1.0  0.40811049946684375  0.8340559826795013  0.29847966058198233  1.0000
  O   O7        1.0  0.526136207572911  0.3900715030977863  0.6257270064418208  1.0000
  O   O8        1.0  0.4738620828146267  0.6099303389031832  0.37427217171827454  1.0000
  O   O9        1.0  0.14490967829283363  0.2849636040042967  0.2581488403702111  1.0000
  O   O10       1.0  0.8550906291769844  0.7150361817694844  0.7418505809494889  1.0000
  O   O11       1.0  0.08742692585195752  0.38039007187215645  0.08652884159241131  1.0000
  O   O12       1.0  0.9125718441170818  0.6196107446434951  0.9134704864881655  1.0000
  O   O13       1.0  0.9184585791947057  0.9545289374148069  0.8586685484598887  1.0000
  O   O14       1.0  0.0815449130313581  0.04547082596658919  0.1413299018594358  1.0000
  O   O15       1.0  0.9307631246053563  0.06585680108712919  0.6942360504500158  1.0000
  O   O16       1.0  0.0692367032829608  0.9341440101719768  0.3057632209492027  1.0000
