data_image0
_chemical_formula_structural       Hg4H36C46S6N18O4
_chemical_formula_sum              "Hg4 H36 C46 S6 N18 O4"
_cell_length_a       9.030125481456341
_cell_length_b       11.937131759379955
_cell_length_c       14.4833
_cell_angle_alpha    85.57248828927507
_cell_angle_beta     74.73789140555763
_cell_angle_gamma    87.54495869675551

_space_group_name_H-M_alt    "P 1"
_space_group_IT_number       1

loop_
  _space_group_symop_operation_xyz
  'x, y, z'

loop_
  _atom_site_type_symbol
  _atom_site_label
  _atom_site_symmetry_multiplicity
  _atom_site_fract_x
  _atom_site_fract_y
  _atom_site_fract_z
  _atom_site_occupancy
  Hg  Hg1       1.0  0.651870087560489  0.4790957413110065  0.8567045154289233  1.0000
  Hg  Hg2       1.0  0.3481321872569794  0.5209069386633659  0.1432959073341351  1.0000
  Hg  Hg3       1.0  0.8812837820071876  0.14525583796758212  0.9601915137648903  1.0000
  Hg  Hg4       1.0  0.11871395500920558  0.8547451610870598  0.0398097607075911  1.0000
  H   H1        1.0  0.9859708341567384  0.5936109192649185  0.8269391394385297  1.0000
  H   H2        1.0  0.0140304540296512  0.4063867179502623  0.1730610756557596  1.0000
  H   H3        1.0  0.2228572029915625  0.64303164023287  0.6960383103264008  1.0000
  H   H4        1.0  0.7771429104302283  0.3569668374421795  0.30396066319787013  1.0000
  H   H5        1.0  0.09016359239883799  0.4019171523894443  0.526775134055967  1.0000
  H   H6        1.0  0.9098400453167413  0.5980788039060131  0.4732254928272255  1.0000
  H   H7        1.0  0.8562257990919304  0.3651428310066224  0.6625047791278577  1.0000
  H   H8        1.0  0.1437754622182368  0.6348556466684273  0.3374946964516425  1.0000
  H   H9        1.0  0.3181435304270223  0.5071250778009359  0.4544214572561104  1.0000
  H   H10       1.0  0.6818577040069371  0.49287424033397553  0.5455779692589786  1.0000
  H   H11       1.0  0.5856051731663642  0.7803964005301652  0.48921921623725245  1.0000
  H   H12       1.0  0.414392590726237  0.21960375806461496  0.5107814168492553  1.0000
  H   H13       1.0  0.032311760208223496  0.9171526678853681  0.25010107731900894  1.0000
  H   H14       1.0  0.9676837079076321  0.0828474907094048  0.749902694359328  1.0000
  H   H15       1.0  0.825377503390385  0.8779183204783791  0.4021887564566526  1.0000
  H   H16       1.0  0.17461801847789357  0.12208015719667033  0.5978144229001217  1.0000
  H   H17       1.0  0.63761602262786  0.6437746067533184  0.2521970965360936  1.0000
  H   H18       1.0  0.3623804589952897  0.3562297541407844  0.7478020987227582  1.0000
  H   H19       1.0  0.8522177565988969  0.692217032438684  0.10586933577393873  1.0000
  H   H20       1.0  0.14778227619424908  0.3077839666159576  0.8941322523586236  1.0000
  H   H21       1.0  0.8823570612260595  0.20172045306212993  0.16223976891558325  1.0000
  H   H22       1.0  0.1176440657030327  0.7982822269122423  0.8377580804411054  1.0000
  H   H23       1.0  0.7406554665484248  0.14638457556596052  0.33414287985385743  1.0000
  H   H24       1.0  0.2593456872568822  0.8536172639485431  0.6658557090176204  1.0000
  H   H25       1.0  0.4067278081864956  0.9907004701911433  0.22137903607402618  1.0000
  H   H26       1.0  0.5932721708542202  0.009302209783228902  0.7786224539297139  1.0000
  H   H27       1.0  0.5625611225433431  0.0485147052337283  0.05737152877699709  1.0000
  H   H28       1.0  0.43743653384439785  0.9514888152005057  0.9426295985022577  1.0000
  H   H29       1.0  0.37365176120859184  0.9757923931099343  0.3962964496715173  1.0000
  H   H30       1.0  0.6263516614972601  0.024210286864438  0.6037037846963926  1.0000
  H   H31       1.0  0.15448851333374589  0.258705312812971  0.08753816999376343  1.0000
  H   H32       1.0  0.8455103715710236  0.7412956862416709  0.912462225633192  1.0000
  H   H33       1.0  0.3476382223401018  0.21285738673014273  0.0829352160847208  1.0000
  H   H34       1.0  0.6523606894408829  0.7871427718646374  0.9170645381562609  1.0000
  H   H35       1.0  0.2044758232161428  0.19491104723780245  0.19199333950665934  1.0000
  H   H36       1.0  0.7955230885648347  0.8050891113569777  0.8080064147343223  1.0000
  C   C1        1.0  0.6577952446329505  0.2275427419471896  0.7830394493911685  1.0000
  C   C2        1.0  0.3422048419126326  0.7724565761877216  0.21695947506869834  1.0000
  C   C3        1.0  0.8355270686573348  0.4251256110950763  0.019430790663733405  1.0000
  C   C4        1.0  0.164483510140947  0.5748686642806433  0.9805674230766215  1.0000
  C   C5        1.0  0.657382242494478  0.6636741749713765  0.6786535626747964  1.0000
  C   C6        1.0  0.34261787092732016  0.3363243027036731  0.3213440299487119  1.0000
  C   C7        1.0  0.011996370002336196  0.5551413903348674  0.7583230467262326  1.0000
  C   C8        1.0  0.9880049450602681  0.4448554064204516  0.24167514608132734  1.0000
  C   C9        1.0  0.14273249176017092  0.582432803063533  0.6859876426444487  1.0000
  C   C10       1.0  0.857269944314602  0.41756483415164786  0.3140116936043142  1.0000
  C   C11       1.0  0.17119517097503226  0.529856155303392  0.599243139296938  1.0000
  C   C12       1.0  0.8288073188521635  0.4701398009920652  0.40075905688217267  1.0000
  C   C13       1.0  0.0687493129588219  0.4480928578195318  0.5913889231246046  1.0000
  C   C14       1.0  0.9312520558562127  0.5519022580160566  0.40861074871253317  1.0000
  C   C15       1.0  0.939348795197219  0.4268544370369014  0.6668031320868409  1.0000
  C   C16       1.0  0.060654842518360376  0.5731415192585487  0.3331974947963516  1.0000
  C   C17       1.0  0.300122542393069  0.5573887800132483  0.5170706953896484  1.0000
  C   C18       1.0  0.6998753021281843  0.4426088572019325  0.48292870398933024  1.0000
  C   C19       1.0  0.5936650258578027  0.7319917955387184  0.42672014289008325  1.0000
  C   C20       1.0  0.4063304691342609  0.2680075225962  0.5732802256007545  1.0000
  C   C21       1.0  0.9415559106307398  0.8582994658551544  0.25422646531411885  1.0000
  C   C22       1.0  0.05844067849726998  0.1417015331994875  0.7457763784542735  1.0000
  C   C23       1.0  0.8269348880305003  0.8354624904097394  0.3379714801173961  1.0000
  C   C24       1.0  0.17306175484993958  0.164536827725172  0.6620307713294409  1.0000
  C   C25       1.0  0.7145292755466386  0.7572022296422248  0.3391156742606329  1.0000
  C   C26       1.0  0.28546499092840344  0.24279960987227875  0.660884735432127  1.0000
  C   C27       1.0  0.7228881715148461  0.7046869354522087  0.2541256798309348  1.0000
  C   C28       1.0  0.27710497394803474  0.29531406360243306  0.7458756577717622  1.0000
  C   C29       1.0  0.8401936174992243  0.731272361894476  0.17315660211173886  1.0000
  C   C30       1.0  0.1598040120123017  0.26873199899962696  0.8268458570038676  1.0000
  C   C31       1.0  0.7775471592802604  0.1539319051515591  0.1805661213940368  1.0000
  C   C32       1.0  0.222454021401262  0.8460690939030826  0.8194332069922368  1.0000
  C   C33       1.0  0.69935729308159  0.1232500773284215  0.2741659796213511  1.0000
  C   C34       1.0  0.3006415649469573  0.8767517621860819  0.7258336764908081  1.0000
  C   C35       1.0  0.5651701474499049  0.060615646366628105  0.2910107524697452  1.0000
  C   C36       1.0  0.4348310332316175  0.9393853526880136  0.7089892663669064  1.0000
  C   C37       1.0  0.5117190833688595  0.03641040226137451  0.21261226970803904  1.0000
  C   C38       1.0  0.488277425130498  0.9635931181728594  0.7873883555159793  1.0000
  C   C39       1.0  0.5971686853529192  0.06890762339240551  0.12055628289464689  1.0000
  C   C40       1.0  0.4028289979110368  0.9310950565819669  0.8794442029986345  1.0000
  C   C41       1.0  0.48349461276545463  0.0173554962074078  0.3866886433229483  1.0000
  C   C42       1.0  0.5165042183868775  0.9826471837669573  0.6133095828240374  1.0000
  C   C43       1.0  0.19326344127915715  0.0784577688357402  0.0884096515865593  1.0000
  C   C44       1.0  0.8067365915139887  0.9215432302189015  0.9115898651948628  1.0000
  C   C45       1.0  0.2259860563763709  0.1940151170219622  0.11367105134856811  1.0000
  C   C46       1.0  0.774013976416775  0.8059858820326797  0.8863291558832318  1.0000
  S   S1        1.0  0.5978009266372553  0.2692161038817318  0.8938323223637925  1.0000
  S   S2        1.0  0.4021991061558907  0.7307848951729099  0.10616719441762973  1.0000
  S   S3        1.0  0.7170211045067703  0.532499401578079  0.013480284401644796  1.0000
  S   S4        1.0  0.2829907028085401  0.4674923524180485  0.9865185785871662  1.0000
  S   S5        1.0  0.5136642936924289  0.620204750305831  0.77031652067096  1.0000
  S   S6        1.0  0.48633694074153055  0.3797945678290803  0.2296822153937441  1.0000
  N   N1        1.0  0.7004025078153118  0.194986688625626  0.705357680024953  1.0000
  N   N2        1.0  0.2995928796718914  0.8050159913487391  0.29463903995634416  1.0000
  N   N3        1.0  0.9217111758607573  0.3490413009174418  0.025019270238374216  1.0000
  N   N4        1.0  0.078306344020227  0.6509512935385545  0.9749779112598987  1.0000
  N   N5        1.0  0.7564882534292892  0.6961360967880807  0.6123286327858111  1.0000
  N   N6        1.0  0.24351287349980308  0.3038665831862843  0.38766852612049263  1.0000
  N   N7        1.0  0.910434547942337  0.4802707042019492  0.74845001762138  1.0000
  N   N8        1.0  0.08956788813242873  0.5197269330132315  0.2515500090777678  1.0000
  N   N9        1.0  0.38897019687285456  0.6401312132395631  0.5161542075203585  1.0000
  N   N10       1.0  0.6110286880319151  0.3598697858150787  0.48384825945773  1.0000
  N   N11       1.0  0.4991823808278113  0.6526238086694391  0.4292574638526929  1.0000
  N   N12       1.0  0.5008153024361447  0.3473788713049331  0.5707437124909661  1.0000
  N   N13       1.0  0.9473275012885835  0.8068599602920372  0.17362005632443098  1.0000
  N   N14       1.0  0.0526713836161861  0.1931410387626045  0.8263810297529021  1.0000
  N   N15       1.0  0.7281603525577437  0.12496545591240962  0.10560653854174262  1.0000
  N   N16       1.0  0.2718384785945887  0.8750372240619626  0.8943930685060055  1.0000
  N   N17       1.0  0.5450739135462754  0.023790897391919006  0.4573364113382895  1.0000
  N   N18       1.0  0.4549283612711932  0.9762117825824533  0.5426633209743913  1.0000
  O   O1        1.0  0.2800154344447066  0.9959903245799782  0.10258542098195993  1.0000
  O   O2        1.0  0.7199857731130308  0.004009834014794901  0.8974125755679624  1.0000
  O   O3        1.0  0.0773299530280482  0.0666543504949715  0.05510552342396841  1.0000
  O   O4        1.0  0.9226666092237462  0.9333474890195392  0.9448965808296351  1.0000
