data_image0
_chemical_formula_structural       Ag4H16C28Br4O12
_chemical_formula_sum              "Ag4 H16 C28 Br4 O12"
_cell_length_a       7.216371088546214
_cell_length_b       8.21066950400739
_cell_length_c       12.875210798798129
_cell_angle_alpha    89.99985099577799
_cell_angle_beta     94.0883574093017
_cell_angle_gamma    90.00004118371338

_space_group_name_H-M_alt    "P 1"
_space_group_IT_number       1

loop_
  _space_group_symop_operation_xyz
  'x, y, z'

loop_
  _atom_site_type_symbol
  _atom_site_label
  _atom_site_symmetry_multiplicity
  _atom_site_fract_x
  _atom_site_fract_y
  _atom_site_fract_z
  _atom_site_occupancy
  Ag  Ag1       1.0  0.5438208912150486  0.4713853515582114  0.10594575474215163  1.0000
  Ag  Ag2       1.0  0.9561718090680102  0.9713879399134411  0.39405502598157954  1.0000
  Ag  Ag3       1.0  0.4561690476723542  0.528614130453249  0.8940549698869238  1.0000
  Ag  Ag4       1.0  0.043836263841015494  0.02861519589282579  0.6059418531972229  1.0000
  H   H1        1.0  0.5471724061288726  0.7327290654853368  0.2932608748130293  1.0000
  H   H2        1.0  0.9528187049835994  0.23272626816174832  0.2067410068358698  1.0000
  H   H3        1.0  0.45282178695713077  0.26726554482799963  0.706734603963689  1.0000
  H   H4        1.0  0.0471794950280753  0.7672634704216531  0.7932647493186596  1.0000
  H   H5        1.0  0.5551878799627517  0.913893029787644  0.44689902472254783  1.0000
  H   H6        1.0  0.944814512019363  0.4138872030161236  0.05310151009241789  1.0000
  H   H7        1.0  0.4448119194545229  0.08611010602526648  0.5530935991002155  1.0000
  H   H8        1.0  0.055189207777083006  0.5861086252007649  0.9469068242406924  1.0000
  H   H9        1.0  0.814568322893372  0.5296037049786758  0.6356570113757273  1.0000
  H   H10       1.0  0.685436396455714  0.029597694403633988  0.8643434153939256  1.0000
  H   H11       1.0  0.18542859918093063  0.47040673838594643  0.3643416968836777  1.0000
  H   H12       1.0  0.3145730409443459  0.9704054413996627  0.13565507853265055  1.0000
  H   H13       1.0  0.7249127024040051  0.3254407134136271  0.3179365442056438  1.0000
  H   H14       1.0  0.7750812229261257  0.8254367711585925  0.18206764036746395  1.0000
  H   H15       1.0  0.2750897147201244  0.6745563327416587  0.6820662945711721  1.0000
  H   H16       1.0  0.22491713781391812  0.17455540330043814  0.8179280256854826  1.0000
  C   C1        1.0  0.6772177586428825  0.5309037285537384  0.37690917664339463  1.0000
  C   C2        1.0  0.8227787259792623  0.03090242661768629  0.12309483445764616  1.0000
  C   C3        1.0  0.32278886322909983  0.4690981893168809  0.6230915209191894  1.0000
  C   C4        1.0  0.17722094979674813  0.9690885299045459  0.8769055509900812  1.0000
  C   C5        1.0  0.6079354432116517  0.6901721053122426  0.36825240290141903  1.0000
  C   C6        1.0  0.8920611418684672  0.19016714861614759  0.13175290213654736  1.0000
  C   C7        1.0  0.3920684496787318  0.3098310304917787  0.6317450651646511  1.0000
  C   C8        1.0  0.10793986130715888  0.8098225899708704  0.8682514265444614  1.0000
  C   C9        1.0  0.612480620673793  0.7915583020128948  0.4549696346404988  1.0000
  C   C10       1.0  0.8875202612072074  0.29155491562813296  0.04503258854050779  1.0000
  C   C11       1.0  0.38752471089095053  0.2084484875801421  0.5450247912013142  1.0000
  C   C12       1.0  0.11248210646233052  0.7084421305207935  0.9549733548823414  1.0000
  C   C13       1.0  0.6846870400713172  0.7321074288084898  0.5513962612586669  1.0000
  C   C14       1.0  0.815313608976517  0.23210600988622318  0.948607530508625  1.0000
  C   C15       1.0  0.3153197054385686  0.26789814286046  0.4485966746858738  1.0000
  C   C16       1.0  0.1846859802577967  0.7678946900446983  0.05139828806176182  1.0000
  C   C17       1.0  0.7553527100082463  0.5756366291451157  0.5613563878184495  1.0000
  C   C18       1.0  0.7446506192143258  0.07563156206118997  0.9386462303286937  1.0000
  C   C19       1.0  0.2446525473755727  0.424372596293338  0.438642694990442  1.0000
  C   C20       1.0  0.2553531994927383  0.9243679199508532  0.061355894709386426  1.0000
  C   C21       1.0  0.7529597020120635  0.4726634738480441  0.4744570240478226  1.0000
  C   C22       1.0  0.7470440017452021  0.9726552860396321  0.025551239462657815  1.0000
  C   C23       1.0  0.2470510627890476  0.5273420978024814  0.5255454131090647  1.0000
  C   C24       1.0  0.25295707561375025  0.027338106339364288  0.9744484322463339  1.0000
  C   C25       1.0  0.8308056829688015  0.30521062013667677  0.48625829001517945  1.0000
  C   C26       1.0  0.669199389661742  0.8052073136312783  0.01374332212966321  1.0000
  C   C27       1.0  0.16919954968579992  0.6947937335886747  0.513742345120676  1.0000
  C   C28       1.0  0.3307989216265881  0.19479216838625743  0.9862554485633841  1.0000
  Br  Br1       1.0  0.6863181674987262  0.866936625063175  0.6725107026341492  1.0000
  Br  Br2       1.0  0.8136631137464363  0.36694544404884494  0.8274935487612115  1.0000
  Br  Br3       1.0  0.3136774271759607  0.13307503623666145  0.32748406239197453  1.0000
  Br  Br4       1.0  0.18631139538225489  0.6330710889258381  0.1725158031198931  1.0000
  O   O1        1.0  0.6696394640812144  0.43416757539614526  0.29156791558160944  1.0000
  O   O2        1.0  0.8303476129823509  0.9341659886270147  0.20843500431129777  1.0000
  O   O3        1.0  0.33036024878909137  0.565831906623195  0.7084301413746775  1.0000
  O   O4        1.0  0.16965071066627493  0.06582496789976487  0.7915629902271565  1.0000
  O   O5        1.0  0.8220089062341815  0.2159208716218898  0.4027038662636216  1.0000
  O   O6        1.0  0.677994632813281  0.7159172277770973  0.09730248528502022  1.0000
  O   O7        1.0  0.1779962893285187  0.7840810462437414  0.597299097358736  1.0000
  O   O8        1.0  0.3220009247642466  0.2840786004607522  0.9026946082384771  1.0000
  O   O9        1.0  0.8996293365599544  0.26136263155697037  0.574592519960696  1.0000
  O   O10       1.0  0.6003810352823963  0.7613576073144156  0.9254132136436087  1.0000
  O   O11       1.0  0.10037726058616409  0.7386429400928944  0.4254097299219454  1.0000
  O   O12       1.0  0.3996117314967337  0.23864309263132094  0.07458453118794495  1.0000
