data_image0
_chemical_formula_structural       Zr6H28C72Br12O32
_chemical_formula_sum              "Zr6 H28 C72 Br12 O32"
_cell_length_a       17.01959207038946
_cell_length_b       17.019589582003135
_cell_length_c       17.01959493812597
_cell_angle_alpha    59.9999098380362
_cell_angle_beta     59.999996259100215
_cell_angle_gamma    59.99994791006584

_space_group_name_H-M_alt    "P 1"
_space_group_IT_number       1

loop_
  _space_group_symop_operation_xyz
  'x, y, z'

loop_
  _atom_site_type_symbol
  _atom_site_label
  _atom_site_symmetry_multiplicity
  _atom_site_fract_x
  _atom_site_fract_y
  _atom_site_fract_z
  _atom_site_occupancy
  Zr  Zr1       1.0  0.8962221434268828  0.3962197495067841  0.6037785330753352  1.0000
  Zr  Zr2       1.0  0.10377509138959351  0.6037753693839747  0.39622826084049484  1.0000
  Zr  Zr3       1.0  0.10377605456031337  0.3962150762366861  0.603781833695365  1.0000
  Zr  Zr4       1.0  0.896219211680801  0.6037792492010754  0.3962205261633471  1.0000
  Zr  Zr5       1.0  0.8962164532096324  0.6037715343028223  0.603780483578568  1.0000
  Zr  Zr6       1.0  0.103775602675988  0.39622428125073833  0.39621999847657463  1.0000
  H   H1        1.0  0.9181248148642426  0.4181269529080892  0.745616143131258  1.0000
  H   H2        1.0  0.9181243336829537  0.7456133151747367  0.41813026244641116  1.0000
  H   H3        1.0  0.24561231545152404  0.41812734342182983  0.41812917599290245  1.0000
  H   H4        1.0  0.9181265249585876  0.41812671661326567  0.41813019514084726  1.0000
  H   H5        1.0  0.6237849116876362  0.3945867533648554  0.8736030063929476  1.0000
  H   H6        1.0  0.654217026212578  0.6455109084711096  0.8423243711482086  1.0000
  H   H7        1.0  0.37359820295289126  0.6080223454739552  0.12379030905801611  1.0000
  H   H8        1.0  0.34232011293605075  0.35794438484517593  0.15422030669480338  1.0000
  H   H9        1.0  0.8945841984391405  0.12378772687431193  0.6080233765871484  1.0000
  H   H10       1.0  0.14551118587935727  0.15421723241851026  0.3579462926371805  1.0000
  H   H11       1.0  0.10802160454726809  0.8735984361271748  0.39458950804595366  1.0000
  H   H12       1.0  0.85794367090385  0.84231993882247  0.6455163877997523  1.0000
  H   H13       1.0  0.6237857251870125  0.8735998573397411  0.6080242514863557  1.0000
  H   H14       1.0  0.6542160687190446  0.8423203988473277  0.3579473282928876  1.0000
  H   H15       1.0  0.3735980182534604  0.1237864666665658  0.3945890511654398  1.0000
  H   H16       1.0  0.3423207672015067  0.1542201914642973  0.6455130753828159  1.0000
  H   H17       1.0  0.10802129723655446  0.3945853246688101  0.12378957732864394  1.0000
  H   H18       1.0  0.8579443139028841  0.6455125122397404  0.154219129693182  1.0000
  H   H19       1.0  0.894585482188191  0.6080240432889638  0.8736012847419588  1.0000
  H   H20       1.0  0.14551076264191914  0.35794515413205363  0.8423235554683687  1.0000
  H   H21       1.0  0.10802102899482702  0.12378653449867733  0.8736017914018247  1.0000
  H   H22       1.0  0.8579419956758227  0.1542174048325293  0.8423237230596855  1.0000
  H   H23       1.0  0.8945851990599607  0.8735988848932903  0.12378921287602658  1.0000
  H   H24       1.0  0.1455108140090503  0.84232125319361  0.15422048194655258  1.0000
  H   H25       1.0  0.6237858076022817  0.6080213023996065  0.3945881284766841  1.0000
  H   H26       1.0  0.6542168036619387  0.35794322978931337  0.6455144346563273  1.0000
  H   H27       1.0  0.37359743683462887  0.3945867446807085  0.6080254293989142  1.0000
  H   H28       1.0  0.34231906441044657  0.6455131341553936  0.3579473205520786  1.0000
  C   C1        1.0  0.7328368836670832  0.5100891144139936  0.7622294440329397  1.0000
  C   C2        1.0  0.9948389266858866  0.7622252586038415  0.5100935784342296  1.0000
  C   C3        1.0  0.26222471125247887  0.49484018093303206  0.232840858624499  1.0000
  C   C4        1.0  0.010087345647974718  0.23283848239764635  0.4948427164234559  1.0000
  C   C5        1.0  0.9948408718681134  0.2328364684340086  0.7622289396496953  1.0000
  C   C6        1.0  0.7328364685684009  0.4948406858317254  0.5100919175193043  1.0000
  C   C7        1.0  0.010088989823110156  0.7622273487406517  0.23284073555465312  1.0000
  C   C8        1.0  0.262225838999669  0.5100916602347282  0.4948426131535228  1.0000
  C   C9        1.0  0.01008842617590487  0.49484107614366485  0.7622298308380806  1.0000
  C   C10       1.0  0.26222555149315957  0.23283883632464616  0.5100927452559035  1.0000
  C   C11       1.0  0.9948391455582097  0.5100890876640135  0.2328401810425406  1.0000
  C   C12       1.0  0.7328361336262786  0.7622266009355341  0.49484276449346243  1.0000
  C   C13       1.0  0.5980072681140881  0.4531754549155733  0.8992673292380787  1.0000
  C   C14       1.0  0.6146228956505265  0.5953512358366738  0.8822539114862381  1.0000
  C   C15       1.0  0.5353895159835388  0.6047356926809755  0.9630804432830188  1.0000
  C   C16       1.0  0.4821237235797185  0.5399549013234334  0.015994173002368904  1.0000
  C   C17       1.0  0.3992638077329715  0.5495472277951521  0.09801074296483853  1.0000
  C   C18       1.0  0.3822493255165114  0.40776932221969286  0.11462575723884076  1.0000
  C   C19       1.0  0.463076237639811  0.3967926528463437  0.03539255832921383  1.0000
  C   C20       1.0  0.5159914658480815  0.4619256005917123  0.9821275066033409  1.0000
  C   C21       1.0  0.6460035695918621  0.5187997685449091  0.8499538196987971  1.0000
  C   C22       1.0  0.3499486921040288  0.4852398897577074  0.14600848758674093  1.0000
  C   C23       1.0  0.9531733975810965  0.09800945583050691  0.5495469054875317  1.0000
  C   C24       1.0  0.095350072340267  0.11462387426374927  0.4077703962767885  1.0000
  C   C25       1.0  0.10473442548279623  0.03539028433639404  0.39679392788600143  1.0000
  C   C26       1.0  0.03995335767579153  0.9821243908704532  0.46192769854663146  1.0000
  C   C27       1.0  0.049546248150939186  0.899263752139049  0.4531773503849197  1.0000
  C   C28       1.0  0.90776837833279  0.882250233499441  0.5953556964987216  1.0000
  C   C29       1.0  0.8967930659130726  0.9630762589015375  0.6047381947036359  1.0000
  C   C30       1.0  0.961924441121674  0.015992089421970928  0.5399546290095997  1.0000
  C   C31       1.0  0.018797877751737187  0.14600610223404684  0.4852406920422681  1.0000
  C   C32       1.0  0.9852391174059323  0.8499498405311883  0.5188025223021814  1.0000
  C   C33       1.0  0.5980066571834826  0.8992639717983477  0.5495508335897199  1.0000
  C   C34       1.0  0.6146211927606944  0.8822503501643196  0.4077725542308603  1.0000
  C   C35       1.0  0.5353879855125643  0.963077534909466  0.39679486324114077  1.0000
  C   C36       1.0  0.4821230340218107  0.015991105062710283  0.46192862991171785  1.0000
  C   C37       1.0  0.39926310072883103  0.09800836650467198  0.45317746173167  1.0000
  C   C38       1.0  0.38225040213590944  0.11462382451619388  0.5953534045242179  1.0000
  C   C39       1.0  0.4630777261724218  0.035389583873488645  0.6047372482245664  1.0000
  C   C40       1.0  0.5159901483705269  0.982124659008825  0.5399547573084789  1.0000
  C   C41       1.0  0.6460027788742694  0.8499498834788779  0.48524411419579383  1.0000
  C   C42       1.0  0.3499492716157207  0.14600592051039024  0.5188008193820437  1.0000
  C   C43       1.0  0.0495452407511152  0.4531744861655511  0.09801018213736515  1.0000
  C   C44       1.0  0.9077685726322002  0.5953519636355367  0.11462507513656565  1.0000
  C   C45       1.0  0.8967925951851113  0.6047373412535606  0.035389965085435876  1.0000
  C   C46       1.0  0.9619245406059563  0.5399553755431937  0.9821253850185275  1.0000
  C   C47       1.0  0.9531737784507683  0.5495482968603868  0.8992665644323737  1.0000
  C   C48       1.0  0.09535093443270147  0.4077701327450427  0.882252692246091  1.0000
  C   C49       1.0  0.1047352192956765  0.39679306011480253  0.9630794155096895  1.0000
  C   C50       1.0  0.03995157513212887  0.4619268529697322  0.015992877380796237  1.0000
  C   C51       1.0  0.985238666573693  0.5187993935148398  0.14600719713202906  1.0000
  C   C52       1.0  0.0187986391468158  0.4852405029218473  0.8499524725966057  1.0000
  C   C53       1.0  0.049546100286207345  0.09800685067061464  0.8992673050965011  1.0000
  C   C54       1.0  0.9077677670147181  0.11462257691151469  0.8822531019794085  1.0000
  C   C55       1.0  0.8967916590198752  0.03538966724823927  0.9630805809099031  1.0000
  C   C56       1.0  0.9619250798290366  0.9821244356969386  0.015992285134409326  1.0000
  C   C57       1.0  0.9531746962772232  0.8992639894943295  0.09801073139192343  1.0000
  C   C58       1.0  0.09535113550686707  0.882250815286035  0.11462633311046497  1.0000
  C   C59       1.0  0.10473493479541629  0.9630771572979102  0.035393102211372776  1.0000
  C   C60       1.0  0.03995359582312134  0.015990575856719067  0.9821263622339699  1.0000
  C   C61       1.0  0.9852379378979138  0.14600470273708033  0.8499534956365553  1.0000
  C   C62       1.0  0.018798987277449445  0.8499500048948929  0.1460076615243936  1.0000
  C   C63       1.0  0.5980061126769413  0.549546234060891  0.4531766091466879  1.0000
  C   C64       1.0  0.6146211707900592  0.40776821178404515  0.595354720086185  1.0000
  C   C65       1.0  0.5353878965232896  0.39679277668495405  0.6047369838030151  1.0000
  C   C66       1.0  0.4821224621751269  0.46192754339320163  0.5399569846301518  1.0000
  C   C67       1.0  0.3992625717134645  0.453175225590563  0.5495503551035911  1.0000
  C   C68       1.0  0.3822485050886754  0.5953533186311548  0.40777272336210063  1.0000
  C   C69       1.0  0.4630747580528334  0.6047371664926403  0.39679441612045724  1.0000
  C   C70       1.0  0.51598995567209  0.539954882770104  0.4619276555539643  1.0000
  C   C71       1.0  0.646003849787746  0.4852379267812736  0.5188012415927902  1.0000
  C   C72       1.0  0.3499492850870214  0.5188002445001628  0.48524216340029386  1.0000
  Br  Br1       1.0  0.50427968910126  0.2904648062812143  0.9972513405085693  1.0000
  Br  Br2       1.0  0.49724910099994457  0.708003035662081  0.0042810631046921  1.0000
  Br  Br3       1.0  0.7904652494196114  0.004279285609889961  0.7080054505327384  1.0000
  Br  Br4       1.0  0.20800367340343218  0.99724752864838  0.2904673523666048  1.0000
  Br  Br5       1.0  0.504279863133732  0.9972491458729492  0.7080038294455662  1.0000
  Br  Br6       1.0  0.49724785199011723  0.004281156137317152  0.2904664694730741  1.0000
  Br  Br7       1.0  0.20800218784722804  0.29046611249152215  0.004281191606160902  1.0000
  Br  Br8       1.0  0.7904655918911204  0.70800424946588  0.9972484870662301  1.0000
  Br  Br9       1.0  0.20800266943429346  0.004278433787696803  0.9972505880914684  1.0000
  Br  Br10      1.0  0.79046424702571  0.9972463703332225  0.004282408614294291  1.0000
  Br  Br11      1.0  0.5042789297226166  0.7080029607621582  0.29046802828636237  1.0000
  Br  Br12      1.0  0.49724624910614074  0.2904647990322858  0.7080054149643118  1.0000
  O   O1        1.0  0.7635552154306352  0.4414301569753362  0.7323822364214794  1.0000
  O   O2        1.0  0.06262689713952355  0.7323787028298125  0.4414343785715218  1.0000
  O   O3        1.0  0.23237783283746427  0.5626278916788224  0.2635593056807295  1.0000
  O   O4        1.0  0.9414290800383825  0.2635574430585452  0.5626297996720808  1.0000
  O   O5        1.0  0.06262770956579541  0.263556637161706  0.7323806429761817  1.0000
  O   O6        1.0  0.7635544456007536  0.5626278373991981  0.4414318392613837  1.0000
  O   O7        1.0  0.9414309980663801  0.7323798989657887  0.2635589130250154  1.0000
  O   O8        1.0  0.23237998408827545  0.44143393289970595  0.5626282601506318  1.0000
  O   O9        1.0  0.9414294852273599  0.5626273876317428  0.7323829498851283  1.0000
  O   O10       1.0  0.23237862600100098  0.2635563665404206  0.4414335734416923  1.0000
  O   O11       1.0  0.06262559927186839  0.44142911249159755  0.2635603275948882  1.0000
  O   O12       1.0  0.7635549926434351  0.7323786553394384  0.562630425048674  1.0000
  O   O13       1.0  0.22379894134449776  0.2712953709876799  0.5750916731736453  1.0000
  O   O14       1.0  0.9298095480383777  0.575088523027432  0.2712974218942392  1.0000
  O   O15       1.0  0.7712943300909956  0.7238016526366452  0.42981232667710173  1.0000
  O   O16       1.0  0.07508702493811373  0.4298094668572148  0.7238040998855908  1.0000
  O   O17       1.0  0.9298112082174228  0.2712959042076121  0.7238019535066726  1.0000
  O   O18       1.0  0.22380051010302546  0.5750884896515557  0.4298116272586442  1.0000
  O   O19       1.0  0.07508753419352127  0.7238014251011577  0.27129843082761346  1.0000
  O   O20       1.0  0.7712935951985642  0.4298110227358905  0.5750908373760738  1.0000
  O   O21       1.0  0.075087278268505  0.2712961357097043  0.42981295950004755  1.0000
  O   O22       1.0  0.771294338910181  0.575087831675802  0.7238021421673366  1.0000
  O   O23       1.0  0.9298071113881929  0.7238015292230316  0.5750917901474822  1.0000
  O   O24       1.0  0.2237991133001386  0.4298110397076158  0.2712983899445193  1.0000
  O   O25       1.0  0.9413822706767617  0.4413824404512214  0.44138693417129127  1.0000
  O   O26       1.0  0.17584364517666276  0.44138444908541885  0.4413844165835172  1.0000
  O   O27       1.0  0.9413816792132293  0.675844813812425  0.4413858357430486  1.0000
  O   O28       1.0  0.9413813122135648  0.4413835430934085  0.6758474731748125  1.0000
  O   O29       1.0  0.0431646601943427  0.5431647392683062  0.5431666763815244  1.0000
  O   O30       1.0  0.8704982045504793  0.5431652900265931  0.5431681104079189  1.0000
  O   O31       1.0  0.043163566948870025  0.5431650340640316  0.3705024521191406  1.0000
  O   O32       1.0  0.04316328255227118  0.37049982503651785  0.5431686649404526  1.0000
