data_image0
_chemical_formula_structural       Al2H14C30Cl2O14
_chemical_formula_sum              "Al2 H14 C30 Cl2 O14"
_cell_length_a       6.569528002928877
_cell_length_b       11.143367675234702
_cell_length_c       17.58050683139423
_cell_angle_alpha    83.9644115780583
_cell_angle_beta     81.7466182217666
_cell_angle_gamma    72.53254088177587

_space_group_name_H-M_alt    "P 1"
_space_group_IT_number       1

loop_
  _space_group_symop_operation_xyz
  'x, y, z'

loop_
  _atom_site_type_symbol
  _atom_site_label
  _atom_site_symmetry_multiplicity
  _atom_site_fract_x
  _atom_site_fract_y
  _atom_site_fract_z
  _atom_site_occupancy
  Al  Al1       1.0  0.4850007366081214  0.49293315564080603  0.5044025107670578  1.0000
  Al  Al2       1.0  0.985548133157181  0.49595343385637153  0.5001850366521976  1.0000
  H   H1        1.0  0.2902307814010642  0.3412669574507917  0.5427142466191411  1.0000
  H   H2        1.0  0.7333223233730521  0.5534240537915381  0.408087420615324  1.0000
  H   H3        1.0  0.573567821365842  0.6052303312734537  0.27656372094330806  1.0000
  H   H4        1.0  0.6588484103219158  0.6141634715073181  0.13401913394054787  1.0000
  H   H5        1.0  0.08106918062878778  0.4298002153634428  0.259115267479963  1.0000
  H   H6        1.0  0.9012026824289878  0.59604065344179  0.728637056473701  1.0000
  H   H7        1.0  0.3983271431473411  0.4193352835858166  0.7358586976362315  1.0000
  H   H8        1.0  0.3343313383882532  0.4267833875966645  0.8794519326397889  1.0000
  H   H9        1.0  0.1968522498079537  0.23329991051147678  0.3917148932457265  1.0000
  H   H10       1.0  0.47055217219384105  0.765709230287449  0.42592989717765295  1.0000
  H   H11       1.0  0.7546735502391329  0.8720612441253767  0.5587868821267534  1.0000
  H   H12       1.0  0.6333290026854144  0.10764200650090322  0.5529201693731024  1.0000
  H   H13       1.0  0.3814993448105356  0.14553520618164134  0.22908778767968835  1.0000
  H   H14       1.0  0.838750549306141  0.7496941050896667  0.40498786532885567  1.0000
  C   C1        1.0  0.8464752280394949  0.2670120437028914  0.4928267769642358  1.0000
  C   C2        1.0  0.691776754988723  0.5009038448115248  0.6390913472845623  1.0000
  C   C3        1.0  0.13240834172263755  0.7214810997239739  0.5058809940386907  1.0000
  C   C4        1.0  0.2800642691828941  0.5059441518344983  0.3618100990860638  1.0000
  C   C5        1.0  0.3239013617866036  0.5155873865822331  0.27668558358881506  1.0000
  C   C6        1.0  0.4862380358283006  0.5679937984089066  0.2413008538277949  1.0000
  C   C7        1.0  0.5337442359371424  0.573303068534834  0.16197193396762086  1.0000
  C   C8        1.0  0.42351938799829714  0.5237713495444896  0.11556647724405164  1.0000
  C   C9        1.0  0.258400401063838  0.47261098483321734  0.15226316125067285  1.0000
  C   C10       1.0  0.20743254117691376  0.4700217469018782  0.23175253685685948  1.0000
  C   C11       1.0  0.47963456049660647  0.5244402705398344  0.035172939416206375  1.0000
  C   C12       1.0  0.5312261166335972  0.5241234125773461  0.9656698068946736  1.0000
  C   C13       1.0  0.5762469383893815  0.5189218221254209  0.8850965937936973  1.0000
  C   C14       1.0  0.7363884666581981  0.5673095435851323  0.8412683247363686  1.0000
  C   C15       1.0  0.7763206835113295  0.5599432434375089  0.7617840210403484  1.0000
  C   C16       1.0  0.6531957931682228  0.5069672123844956  0.7240621896345585  1.0000
  C   C17       1.0  0.49256823164334684  0.4596521913310952  0.7663487536739948  1.0000
  C   C18       1.0  0.4567989080142496  0.4641634030274562  0.8456729285297511  1.0000
  C   C19       1.0  0.9248536977648882  0.12726354785935712  0.48864006096459156  1.0000
  C   C20       1.0  0.1307866445250454  0.06495616355135783  0.45000741401060634  1.0000
  C   C21       1.0  0.7922628611012218  0.058003976615722805  0.5259303795322551  1.0000
  C   C22       1.0  0.2559186383561638  0.13096836644399457  0.3993671260340576  1.0000
  C   C23       1.0  0.44662001473547264  0.06767204876761922  0.35825045440412845  1.0000
  C   C24       1.0  0.06664485330612259  0.8619706095130157  0.4989152404483119  1.0000
  C   C25       1.0  0.8611872960829673  0.9256890154089561  0.5299704715326498  1.0000
  C   C26       1.0  0.2064099890682768  0.9297427585588454  0.4577524855156126  1.0000
  C   C27       1.0  0.4103426198729207  0.8679389127242704  0.41892483693813876  1.0000
  C   C28       1.0  0.5279435793502641  0.934201111569266  0.3696808725945855  1.0000
  C   C29       1.0  0.5706914225236874  0.14170370806651536  0.3037850494148627  1.0000
  C   C30       1.0  0.7220195031627767  0.8662091423845197  0.31856963565179797  1.0000
  Cl  Cl1       1.0  0.12112381210209118  0.4098152756494003  0.09799798094017825  1.0000
  Cl  Cl2       1.0  0.8834352638475592  0.6363304355527861  0.887302384411356  1.0000
  O   O1        1.0  0.6483724068174369  0.3204103356102693  0.48713800632621207  1.0000
  O   O2        1.0  0.8599304902745571  0.5246529496890917  0.6035808913277589  1.0000
  O   O3        1.0  0.9948538753383646  0.669247562736466  0.49081650468872323  1.0000
  O   O4        1.0  0.4186480898562197  0.5253629099655441  0.3993798330470638  1.0000
  O   O5        1.0  0.3169833589614014  0.6628962960253236  0.5249376141301594  1.0000
  O   O6        1.0  0.10920783154512033  0.4793286183980714  0.3929903068289632  1.0000
  O   O7        1.0  0.9822568960743825  0.32187038507564847  0.5055179629478628  1.0000
  O   O8        1.0  0.5539385039610991  0.4708369970750469  0.6066798991552389  1.0000
  O   O9        1.0  0.25134365287631516  0.432479884209414  0.535310746313243  1.0000
  O   O10       1.0  0.719194571545671  0.552251333440623  0.46400803097675675  1.0000
  O   O11       1.0  0.4920024851331988  0.18482514779617532  0.23561494104370678  1.0000
  O   O12       1.0  0.7246073745516882  0.16850612637654902  0.32029870452710435  1.0000
  O   O13       1.0  0.8581837022916687  0.760514761148663  0.3480842094853214  1.0000
  O   O14       1.0  0.7526903434209873  0.9013701413699808  0.25088393576003637  1.0000
