data_image0
_chemical_formula_structural       H8Pb2C4S2O12
_chemical_formula_sum              "H8 Pb2 C4 S2 O12"
_cell_length_a       6.382479456636471
_cell_length_b       6.383287251612322
_cell_length_c       9.094682590215816
_cell_angle_alpha    101.23721285447586
_cell_angle_beta     104.26414130773391
_cell_angle_gamma    111.74649180340691

_space_group_name_H-M_alt    "P 1"
_space_group_IT_number       1

loop_
  _space_group_symop_operation_xyz
  'x, y, z'

loop_
  _atom_site_type_symbol
  _atom_site_label
  _atom_site_symmetry_multiplicity
  _atom_site_fract_x
  _atom_site_fract_y
  _atom_site_fract_z
  _atom_site_occupancy
  H   H1        1.0  0.7990053186103266  0.5427396221544496  0.5928903957114214  1.0000
  H   H2        1.0  0.9486765351233402  0.20497382205324044  0.4069908452214505  1.0000
  H   H3        1.0  0.2010112259831018  0.4572386711703516  0.4071018251816553  1.0000
  H   H4        1.0  0.051360402113729636  0.7950399793350513  0.5930373037160803  1.0000
  H   H5        1.0  0.18763010546201286  0.3644955589411011  0.7746170452012392  1.0000
  H   H6        1.0  0.5885727156823038  0.411669869671897  0.225149894490329  1.0000
  H   H7        1.0  0.8123844810402899  0.6354932743874214  0.22540596533485757  1.0000
  H   H8        1.0  0.41140232002992144  0.5883206312396396  0.7748400273890113  1.0000
  Pb  Pb1       1.0  0.37628569390944455  0.7504331233556553  0.12700895800517017  1.0000
  Pb  Pb2       1.0  0.6237159019459212  0.2495699342722091  0.8729873374918353  1.0000
  C   C1        1.0  0.03979980369571455  0.7896212239978762  0.8289514816806329  1.0000
  C   C2        1.0  0.9601142798244169  0.210395691591863  0.17100389528653887  1.0000
  C   C3        1.0  0.9179921861513306  0.733602011352616  0.6505713094035243  1.0000
  C   C4        1.0  0.08197874394605977  0.26642241250272036  0.3493576695917255  1.0000
  S   S1        1.0  0.7286039915726548  0.87987070269579  0.6075227882205709  1.0000
  S   S2        1.0  0.2715015086626308  0.12011152667356838  0.392502047544994  1.0000
  O   O1        1.0  0.9365727954410799  0.6557275041915175  0.9013198983049759  1.0000
  O   O2        1.0  0.7541335829714838  0.0345617552755755  0.09844900956529298  1.0000
  O   O3        1.0  0.06351487843424757  0.3443789405742947  0.09870234793370966  1.0000
  O   O4        1.0  0.24574646426626845  0.9653499191562884  0.9015893377491933  1.0000
  O   O5        1.0  0.6290897119987091  0.8050371753138916  0.43295551396322196  1.0000
  O   O6        1.0  0.3709531077093402  0.19499421962060373  0.5671310545576062  1.0000
  O   O7        1.0  0.8827259366165379  0.13901978036071228  0.6812330882910159  1.0000
  O   O8        1.0  0.4570082402087579  0.2009242081618723  0.318748243699062  1.0000
  O   O9        1.0  0.1172010343997696  0.8608871581552148  0.3187072723555317  1.0000
  O   O10       1.0  0.5430200273853882  0.7991021938002727  0.6812152402076987  1.0000
  O   O11       1.0  0.34892013474324557  0.49425727950245585  0.8422437873163913  1.0000
  O   O12       1.0  0.6510868955826864  0.5057581965643223  0.15776505829690982  1.0000
