data_image0
_chemical_formula_structural       Zn8H66C90N2O31
_chemical_formula_sum              "Zn8 H66 C90 N2 O31"
_cell_length_a       18.370681040325774
_cell_length_b       18.33504752855818
_cell_length_c       18.386166870905353
_cell_angle_alpha    60.6948957486752
_cell_angle_beta     60.25827140754069
_cell_angle_gamma    60.4826545711757

_space_group_name_H-M_alt    "P 1"
_space_group_IT_number       1

loop_
  _space_group_symop_operation_xyz
  'x, y, z'

loop_
  _atom_site_type_symbol
  _atom_site_label
  _atom_site_symmetry_multiplicity
  _atom_site_fract_x
  _atom_site_fract_y
  _atom_site_fract_z
  _atom_site_occupancy
  Zn  Zn1       1.0  0.9587820409929507  0.45892615606800974  0.1287967015605318  1.0000
  Zn  Zn2       1.0  0.13484696939061558  0.45726194523011526  0.9556374239692359  1.0000
  Zn  Zn3       1.0  0.9590866719630426  0.6287520176161647  0.9523997220547358  1.0000
  Zn  Zn4       1.0  0.9629600011299433  0.45095931824288044  0.9579193908238323  1.0000
  Zn  Zn5       1.0  0.5395752009197139  0.04583746442306607  0.3687255938885983  1.0000
  Zn  Zn6       1.0  0.5389824154406568  0.8743953132939664  0.5419122019477953  1.0000
  Zn  Zn7       1.0  0.36403617828629103  0.04370718499244949  0.5405352482605109  1.0000
  Zn  Zn8       1.0  0.5374917218628996  0.0432607510189485  0.5475585359383215  1.0000
  H   H1        1.0  0.7042671980973341  0.7344611956708532  0.7057038020066954  1.0000
  H   H2        1.0  0.058173418122123614  0.3281761916914263  0.5232669596630757  1.0000
  H   H3        1.0  0.007929378146784032  0.19689642303206498  0.6023998774445687  1.0000
  H   H4        1.0  0.04905565354456352  0.08071203850653327  0.7351890961171746  1.0000
  H   H5        1.0  0.14185166015132472  0.0952172147876595  0.7868583904873105  1.0000
  H   H6        1.0  0.8824180499033221  0.922252010396249  0.7309409219613202  1.0000
  H   H7        1.0  0.037916314903633126  0.8244027773383421  0.7033901468225138  1.0000
  H   H8        1.0  0.056071988445815305  0.8762887559496806  0.8970421200899139  1.0000
  H   H9        1.0  0.89783116973139  0.9741201665771301  0.9268941078396509  1.0000
  H   H10       1.0  0.7892340756255084  0.31022823449766423  0.31155984689937094  1.0000
  H   H11       1.0  0.18599413319477526  0.9128826266474589  0.7011395352338781  1.0000
  H   H12       1.0  0.7823536784845188  0.7979739447464879  0.8188492913920342  1.0000
  H   H13       1.0  0.3129509126287007  0.587018792879924  0.7837116786210601  1.0000
  H   H14       1.0  0.44992099993369555  0.669135625735805  0.5593062540802053  1.0000
  H   H15       1.0  0.6989750586171726  0.5478677832066199  0.6054283994506873  1.0000
  H   H16       1.0  0.6190846584280724  0.571781015746886  0.7524030974594638  1.0000
  H   H17       1.0  0.4547536999760597  0.6442674384439188  0.8022292665763258  1.0000
  H   H18       1.0  0.8349280510873104  0.5087346002701594  0.44382449412182  1.0000
  H   H19       1.0  0.9464080502154535  0.5800409427169269  0.317820697758222  1.0000
  H   H20       1.0  0.09474046350770494  0.4882020739232899  0.24393908584934107  1.0000
  H   H21       1.0  0.8238829682921252  0.2546171418597181  0.16047167170381724  1.0000
  H   H22       1.0  0.02425663883703785  0.25276990704061564  0.4232590701157477  1.0000
  H   H23       1.0  0.42914699835998976  0.43697768107278984  0.7611816746546297  1.0000
  H   H24       1.0  0.8749916623173281  0.34452177103247533  0.49671758007598754  1.0000
  H   H25       1.0  0.19000570516900694  0.2413585173925696  0.4069702480712607  1.0000
  H   H26       1.0  0.3072687290105592  0.2745653518291462  0.0892219748553202  1.0000
  H   H27       1.0  0.4814926189319167  0.2574809615298648  0.09455519189263842  1.0000
  H   H28       1.0  0.6272920551049239  0.16962880955158968  0.0123940497622783  1.0000
  H   H29       1.0  0.6544102326319461  0.014267056863403212  0.0349211859923244  1.0000
  H   H30       1.0  0.53516758244686  0.9467602514087969  0.1412437660201888  1.0000
  H   H31       1.0  0.3899773871443558  0.034214370233165384  0.22515846680074958  1.0000
  H   H32       1.0  0.676514168906266  0.9085003171006245  0.1878524139117843  1.0000
  H   H33       1.0  0.6762163707482857  0.734123397727302  0.3461252034689366  1.0000
  H   H34       1.0  0.35020553210925  0.16158503195624976  0.9248917198161948  1.0000
  H   H35       1.0  0.809559614883689  0.6722588969808498  0.2528403663897336  1.0000
  H   H36       1.0  0.6896040332644732  0.8991932496804224  0.7249952126772854  1.0000
  H   H37       1.0  0.9067498109559087  0.5191740443928052  0.7791563235788529  1.0000
  H   H38       1.0  0.9167306393413814  0.6048398234633936  0.6736382936426467  1.0000
  H   H39       1.0  0.7970544360596321  0.5846004386470014  0.661920785126469  1.0000
  H   H40       1.0  0.887825511889439  0.4838443459161112  0.6748160444560581  1.0000
  H   H41       1.0  0.78841787537246  0.49882441049150106  0.7667225257739858  1.0000
  H   H42       1.0  0.42706082281346625  0.46632752195776556  0.8688684144261174  1.0000
  H   H43       1.0  0.5375702223196017  0.41872780622136196  0.8039787461757584  1.0000
  H   H44       1.0  0.5875308167596744  0.3572457655877416  0.9348892514026872  1.0000
  H   H45       1.0  0.4328205170553617  0.18966986636176839  0.9774252886469554  1.0000
  H   H46       1.0  0.5396430021002419  0.47479608907386267  0.9017631515164338  1.0000
  H   H47       1.0  0.4770899538197499  0.408473898875023  0.9971983648479323  1.0000
  H   H48       1.0  0.4544025312712493  0.35836616867356946  0.6042850124771845  1.0000
  H   H49       1.0  0.46522719405895463  0.44268201864792883  0.6168248571631523  1.0000
  H   H50       1.0  0.3485273532541557  0.5580548361656311  0.5467164649401467  1.0000
  H   H51       1.0  0.4386157499185118  0.49783327973491953  0.4742585782658608  1.0000
  H   H52       1.0  0.33715300301789625  0.4740056941442746  0.5344413041017829  1.0000
  H   H53       1.0  0.7377782591957003  0.9647554689082015  0.815753343453494  1.0000
  H   H54       1.0  0.7737295097879767  0.05696706931877336  0.731842841373151  1.0000
  H   H55       1.0  0.6530720745436372  0.1525781473263874  0.8293125760127539  1.0000
  H   H56       1.0  0.41153177135501556  0.18631858015616118  0.7097274350635773  1.0000
  H   H57       1.0  0.609623403374087  0.10850204109572553  0.798212967958122  1.0000
  H   H58       1.0  0.615673116531234  0.06049425058890995  0.9066293591636168  1.0000
  H   H59       1.0  0.528710231577236  0.5931953401141071  0.4673338325373209  1.0000
  H   H60       1.0  0.5987817451808228  0.4868624834969777  0.5142982722375679  1.0000
  H   H61       1.0  0.7284721972211728  0.5136427802846485  0.3714687076189591  1.0000
  H   H62       1.0  0.6404227808678514  0.5150763704264136  0.3544600961725237  1.0000
  H   H63       1.0  0.6542833826404649  0.6163565778865561  0.3252940518352857  1.0000
  H   H64       1.0  0.08562627534889343  0.3139469399662571  0.7888759353294077  1.0000
  H   H65       1.0  0.6971956077199625  0.22507902055384216  0.24038990433485447  1.0000
  H   H66       1.0  0.1506054573020706  0.3425234382186915  0.575831853283745  1.0000
  C   C1        1.0  0.14073268535617706  0.3599526937576058  0.8624773231333478  1.0000
  C   C2        1.0  0.812143608765041  0.6808679911371412  0.8023099960355751  1.0000
  C   C3        1.0  0.41263861248780415  0.3761268300461251  0.7982151484892555  1.0000
  C   C4        1.0  0.8586811330253142  0.6388453530712113  0.134242432672643  1.0000
  C   C5        1.0  0.3677966116280659  0.3585976920445263  0.768480790903851  1.0000
  C   C6        1.0  0.34309298573532504  0.28242224986141207  0.814102539333575  1.0000
  C   C7        1.0  0.36811134693483927  0.22171637476971268  0.8890179081092383  1.0000
  C   C8        1.0  0.4134246808903442  0.23717129573790174  0.9193109528330936  1.0000
  C   C9        1.0  0.43434963710558355  0.31583150453049313  0.8747071602980513  1.0000
  C   C10       1.0  0.3394327292830256  0.2142364462767928  0.7284755847291606  1.0000
  C   C11       1.0  0.29769527138186913  0.19618455915206562  0.6955848564298535  1.0000
  C   C12       1.0  0.8241091937192735  0.28939744926654504  0.19435250265465948  1.0000
  C   C13       1.0  0.2044303954758321  0.23179609603192833  0.7173717064930684  1.0000
  C   C14       1.0  0.15755610815882912  0.28499779037565526  0.7713335419875449  1.0000
  C   C15       1.0  0.19917967517971402  0.3028515624955119  0.8044518751930027  1.0000
  C   C16       1.0  0.13956971752573116  0.37280825496754477  0.1365471240213978  1.0000
  C   C17       1.0  0.29251202928470826  0.2667919187036603  0.7830456476424388  1.0000
  C   C18       1.0  0.12833702453740173  0.2850778302817148  0.6105732501077055  1.0000
  C   C19       1.0  0.07662935187112656  0.27690358124139164  0.5809732568725821  1.0000
  C   C20       1.0  0.04830228552614112  0.2033122835007149  0.6254523610618461  1.0000
  C   C21       1.0  0.07147120273324964  0.1381352755556975  0.699877874372035  1.0000
  C   C22       1.0  0.1231183452142589  0.14640877128010743  0.7292926526679935  1.0000
  C   C23       1.0  0.6941560828825148  0.8367588821370189  0.21983606109601075  1.0000
  C   C24       1.0  0.15255286370857854  0.21969296369482536  0.6845853022052424  1.0000
  C   C25       1.0  0.91919349983106  0.9122535677060526  0.7685063310007507  1.0000
  C   C26       1.0  0.0076781786559152075  0.8568527713051067  0.7527936351856823  1.0000
  C   C27       1.0  0.05843512551767562  0.843213768466043  0.7979390389942793  1.0000
  C   C28       1.0  0.8678338604006158  0.6292882097827  0.8608870873492478  1.0000
  C   C29       1.0  0.01785622426464081  0.8864169210787907  0.8606720233165247  1.0000
  C   C30       1.0  0.9295399071941829  0.9409314423293724  0.8778679214571098  1.0000
  C   C31       1.0  0.879493645133856  0.9551765676807304  0.8312464945713174  1.0000
  C   C32       1.0  0.21322256529219902  0.8408192632274093  0.720876820063026  1.0000
  C   C33       1.0  0.30558349610758756  0.801533527573305  0.6909801372084131  1.0000
  C   C34       1.0  0.6668033901673455  0.8043537841997404  0.3088174093852203  1.0000
  C   C35       1.0  0.3440316372156788  0.7082738692342474  0.7128808918126524  1.0000
  C   C36       1.0  0.28621698020865705  0.6590258090589315  0.7653256546630444  1.0000
  C   C37       1.0  0.19357041464209612  0.6984724911160214  0.7969583180363741  1.0000
  C   C38       1.0  0.15517532450081029  0.7917428003744573  0.7737526763917086  1.0000
  C   C39       1.0  0.48696205977258017  0.645769307372042  0.6023595375107078  1.0000
  C   C40       1.0  0.13921535975532617  0.638220484563902  0.8578560644787814  1.0000
  C   C41       1.0  0.5794699723509852  0.604889025393497  0.5746064703369953  1.0000
  C   C42       1.0  0.6270034887150404  0.57864482898497  0.6285804361647394  1.0000
  C   C43       1.0  0.5817823089978805  0.5922443279419837  0.7105402877943519  1.0000
  C   C44       1.0  0.48977168617850014  0.6322034058701006  0.7388713653460073  1.0000
  C   C45       1.0  0.7460553483114581  0.7812046127682136  0.1627595068499659  1.0000
  C   C46       1.0  0.44200984282797173  0.660822744061015  0.6840806944024251  1.0000
  C   C47       1.0  0.9627864136329763  0.5083251685548049  0.34085124553737234  1.0000
  C   C48       1.0  0.046263753167131896  0.4568290798159609  0.2992453583595491  1.0000
  C   C49       1.0  0.06925566422211926  0.3643390623510425  0.3282846532726111  1.0000
  C   C50       1.0  0.006939784437186335  0.32460728366466907  0.4002939719036718  1.0000
  C   C51       1.0  0.9230395911669408  0.3763172887337092  0.4413078805419488  1.0000
  C   C52       1.0  0.8736873496012338  0.35295824375379664  0.1378228450898717  1.0000
  C   C53       1.0  0.9006031209856434  0.4683811977360573  0.41179230827393093  1.0000
  C   C54       1.0  0.21446274109398183  0.24851638636842205  0.3371365494415955  1.0000
  C   C55       1.0  0.30201424791420106  0.19772158069923046  0.3009457594468472  1.0000
  C   C56       1.0  0.8030552617433317  0.6983785725985285  0.18811643251232366  1.0000
  C   C57       1.0  0.33717781942816344  0.2060624026688841  0.21039902442873168  1.0000
  C   C58       1.0  0.28240745614471763  0.2673893636220015  0.1591136858531286  1.0000
  C   C59       1.0  0.19488666224568624  0.3177418656543337  0.1953877471386818  1.0000
  C   C60       1.0  0.15944323273123476  0.30927171218997523  0.2860636948463906  1.0000
  C   C61       1.0  0.4939785413681222  0.18883433060265273  0.10591537726623561  1.0000
  C   C62       1.0  0.5758187904153403  0.13934793254943398  0.059956491547062285  1.0000
  C   C63       1.0  0.5912371001870229  0.05202611870569022  0.07277277119952427  1.0000
  C   C64       1.0  0.7286536026789324  0.21736803940783742  0.3406866968483726  1.0000
  C   C65       1.0  0.5241691938545259  0.014333987314799419  0.13233509564171442  1.0000
  C   C66       1.0  0.4425634138510974  0.06343348543796871  0.1792070816067195  1.0000
  C   C67       1.0  0.7122308108599856  0.8284118409024545  0.7354957373658664  1.0000
  C   C68       1.0  0.4267609541145918  0.15127154393876188  0.16633916572690308  1.0000
  C   C69       1.0  0.6318174472816696  0.8659233384426909  0.639117430143294  1.0000
  C   C70       1.0  0.35712537710799114  0.13985781358449856  0.36010930051066486  1.0000
  C   C71       1.0  0.6197313171126881  0.8633433827918392  0.363031898790446  1.0000
  C   C72       1.0  0.35597096131910194  0.13998942892482796  0.6366452138975944  1.0000
  C   C73       1.0  0.3594618397799538  0.8623933097059222  0.6364844048176934  1.0000
  C   C74       1.0  0.6366177147284449  0.13621776358898793  0.3649988631811567  1.0000
  C   C75       1.0  0.6899722679973196  0.19610906661718983  0.31037140223712356  1.0000
  C   C76       1.0  0.7822388670184781  0.27611905847167867  0.281759491262676  1.0000
  C   C77       1.0  0.7193094516786191  0.18661976172624142  0.4321660363096171  1.0000
  C   C78       1.0  0.6851980904774353  0.8036067014586048  0.6970140760775223  1.0000
  C   C79       1.0  0.871419229151386  0.5705846605101781  0.7324756110307857  1.0000
  C   C80       1.0  0.8335388305688197  0.5325576941664276  0.7075155077141702  1.0000
  C   C81       1.0  0.4900971948069854  0.4115216104646108  0.8722433131488572  1.0000
  C   C82       1.0  0.5257158338993975  0.41278100691576464  0.9301519520845716  1.0000
  C   C83       1.0  0.4187046701993823  0.4244044346345033  0.6127414646440741  1.0000
  C   C84       1.0  0.3835308002699877  0.4927257430409709  0.5376612827246203  1.0000
  C   C85       1.0  0.7413075315443227  0.028353094800088678  0.8035170410432924  1.0000
  C   C86       1.0  0.6496683054771212  0.09107686122203523  0.8366600887409844  1.0000
  C   C87       1.0  0.5976995325572646  0.5538279538262361  0.4662415608334953  1.0000
  C   C88       1.0  0.6590216853436602  0.5496307128885649  0.3740879231660371  1.0000
  C   C89       1.0  0.7696871388962595  0.7698241995314559  0.7877093212117217  1.0000
  C   C90       1.0  0.7324763799168892  0.819900953136013  0.0793809421119391  1.0000
  N   N1        1.0  0.7178667305212587  0.16814341915873135  0.503280287549714  1.0000
  N   N2        1.0  0.7131877644196649  0.856845974047694  0.015393718382931399  1.0000
  O   O1        1.0  0.003803675314792261  0.49907013628406827  0.9995051369803247  1.0000
  O   O2        1.0  0.3192862387565186  0.10650168796327349  0.6229682848151513  1.0000
  O   O3        1.0  0.4409305826998848  0.828995444746539  0.6298270048388445  1.0000
  O   O4        1.0  0.058884503946202905  0.39703576768786064  0.8677549375152012  1.0000
  O   O5        1.0  0.6205880904472783  0.106313720385124  0.44814559975442586  1.0000
  O   O6        1.0  0.31881932338995983  0.9437013599704897  0.6017670476199654  1.0000
  O   O7        1.0  0.6118883992098604  0.12069690714863408  0.3215317836670195  1.0000
  O   O8        1.0  0.6102649100268213  0.9456242532967277  0.3227962527310666  1.0000
  O   O9        1.0  0.43869630941111415  0.12990759747059843  0.6049565358998378  1.0000
  O   O10       1.0  0.6236706899312453  0.8302129221481848  0.5995699955700999  1.0000
  O   O11       1.0  0.31538031005780454  0.11790651069801332  0.4433623754681975  1.0000
  O   O12       1.0  0.057698998227550626  0.37940685861868667  0.17343000441233158  1.0000
  O   O13       1.0  0.8908570217391232  0.557543334023421  0.1769109791107084  1.0000
  O   O14       1.0  0.17927290842945356  0.40565907450107364  0.0541873016473602  1.0000
  O   O15       1.0  0.9018988062832779  0.6716218004811054  0.8665744642338138  1.0000
  O   O16       1.0  0.17931351605576412  0.5559002296161208  0.8659975258531246  1.0000
  O   O17       1.0  0.9059541579476974  0.3631327450779409  0.0551155915999217  1.0000
  O   O18       1.0  0.05759672093035565  0.6730114380295262  0.8984820739902162  1.0000
  O   O19       1.0  0.8793905648629309  0.3919131334633831  0.17540166313793285  1.0000
  O   O20       1.0  0.7968640965457041  0.6361929649611683  0.7732862953222224  1.0000
  O   O21       1.0  0.4753567862099859  0.3282772605319551  0.9107596826853666  1.0000
  O   O22       1.0  0.34402335062443984  0.4190756091382967  0.694155194898201  1.0000
  O   O23       1.0  0.8749699733311049  0.54751517701542  0.901105561312491  1.0000
  O   O24       1.0  0.7942830980337877  0.011945082850466922  0.8505877949572918  1.0000
  O   O25       1.0  0.6286368765231246  0.5927709625023565  0.4926909533670454  1.0000
  O   O26       1.0  0.17492183678430714  0.3671288189062736  0.9032882588297397  1.0000
  O   O27       1.0  0.8698710748581817  0.6732000023731217  0.0518395309592989  1.0000
  O   O28       1.0  0.49458568861196994  0.004418234365118755  0.4980961143118989  1.0000
  O   O29       1.0  0.5984947809357808  0.9484995369963938  0.6309481993792473  1.0000
  O   O30       1.0  0.4410599298320222  0.1193834364733206  0.3224839667865425  1.0000
  O   O31       1.0  0.5934345359979715  0.8246237152120413  0.4465750897049645  1.0000
