data_image0
_chemical_formula_structural       Co4H56C56N16Cl8
_chemical_formula_sum              "Co4 H56 C56 N16 Cl8"
_cell_length_a       10.039333985
_cell_length_b       11.254204447
_cell_length_c       14.4943
_cell_angle_alpha    90.0
_cell_angle_beta     90.0
_cell_angle_gamma    90.0

_space_group_name_H-M_alt    "P 1"
_space_group_IT_number       1

loop_
  _space_group_symop_operation_xyz
  'x, y, z'

loop_
  _atom_site_type_symbol
  _atom_site_label
  _atom_site_symmetry_multiplicity
  _atom_site_fract_x
  _atom_site_fract_y
  _atom_site_fract_z
  _atom_site_occupancy
  Co  Co1       1.0  0.9232455075056478  0.0  0.24999965503680954  1.0000
  Co  Co2       1.0  0.5767743167675903  0.4999998024293931  0.7500003449631905  1.0000
  Co  Co3       1.0  0.0767620642117706  0.9999996048587863  0.7500003449631905  1.0000
  Co  Co4       1.0  0.4232262823757438  0.4999998024293931  0.24999965503680954  1.0000
  H   H1        1.0  0.6817125528671184  0.377772593346954  0.508526110264036  1.0000
  H   H2        1.0  0.8182883458478756  0.1222192120711512  0.0085357692334256  1.0000
  H   H3        1.0  0.6817125528671184  0.6222279000686441  0.9914738897359641  1.0000
  H   H4        1.0  0.8182873497658605  0.8777803927876351  0.4914663005457314  1.0000
  H   H5        1.0  0.3182890423582236  0.6222323428526906  0.4914656106193434  1.0000
  H   H6        1.0  0.1817102611314283  0.877781281344447  0.9914663005457316  1.0000
  H   H7        1.0  0.3182900384402316  0.3777681505629006  0.0085336994542686  1.0000
  H   H8        1.0  0.1817102611314283  0.1222192120711512  0.5085343893806495  1.0000
  H   H9        1.0  0.9089497384621551  0.12060825857502522  0.44895441656375124  1.0000
  H   H10       1.0  0.5910392072686861  0.3793826582862679  0.9489488971526756  1.0000
  H   H11       1.0  0.9089487423801473  0.8793922348405658  0.051044203583479913  1.0000
  H   H12       1.0  0.5910421955147243  0.6206169465725182  0.5510504129209437  1.0000
  H   H13       1.0  0.0910448841890954  0.8793877920565196  0.5510435136570919  1.0000
  H   H14       1.0  0.408962387956656  0.6206196122429475  0.051053172626481604  1.0000
  H   H15       1.0  0.0910448841890954  0.12061181280226661  0.9489564863429082  1.0000
  H   H16       1.0  0.4089613918746409  0.3793808811726507  0.4489468273735185  1.0000
  H   H17       1.0  0.8018739103637884  0.5384378814635227  0.40120530139434163  1.0000
  H   H18       1.0  0.6981240001051745  0.9615704113927563  0.9012080610998796  1.0000
  H   H19       1.0  0.8018739103637884  0.4615626119520755  0.09879538853204653  1.0000
  H   H20       1.0  0.6981259922691976  0.03842919346602971  0.5987919389001208  1.0000
  H   H21       1.0  0.1981276848615536  0.461566166179317  0.598789179194583  1.0000
  H   H22       1.0  0.3018716186280983  0.0384336362500761  0.09879469860565851  1.0000
  H   H23       1.0  0.1981276848615536  0.5384334386794691  0.9012108208054175  1.0000
  H   H24       1.0  0.3018716186280983  0.9615659686087101  0.4012066812471106  1.0000
  H   H25       1.0  0.6963001739402728  0.1943575852296746  0.20367316807296734  1.0000
  H   H26       1.0  0.8037276189890576  0.3056315545180013  0.7036848968215068  1.0000
  H   H27       1.0  0.6962991778582577  0.8056429081859237  0.29632614200065194  1.0000
  H   H28       1.0  0.8037296111530879  0.6943662732271676  0.7963151031784932  1.0000
  H   H29       1.0  0.3037073977771456  0.8056411310722993  0.7963213125159572  1.0000
  H   H30       1.0  0.1962679997442081  0.694368938897597  0.2963178628840312  1.0000
  H   H31       1.0  0.3037073977771456  0.1943584737864867  0.7036786874840433  1.0000
  H   H32       1.0  0.1962699919082311  0.305629777404377  0.203681447189588  1.0000
  H   H33       1.0  0.008280429769961  0.3201505727897498  0.5995239507944491  1.0000
  H   H34       1.0  0.4917238541297522  0.1798430097419725  0.0995363694693765  1.0000
  H   H35       1.0  0.008280429769961  0.6798481435122242  0.9004753592791632  1.0000
  H   H36       1.0  0.4917238541297522  0.8201557065600015  0.40046225067785474  1.0000
  H   H37       1.0  0.991719173291358  0.6798525862962777  0.4004705297944682  1.0000
  H   H38       1.0  0.5082727606855286  0.8201574836736186  0.9004643204570044  1.0000
  H   H39       1.0  0.9917201693733659  0.3201470185625084  0.0995301601319127  1.0000
  H   H40       1.0  0.5082747528495517  0.1798421211851675  0.5995349896166076  1.0000
  H   H41       1.0  0.6401171641068757  0.36950457223198196  0.3332882581428578  1.0000
  H   H42       1.0  0.8599026601663554  0.130494341640599  0.8333117156399439  1.0000
  H   H43       1.0  0.6401181601888908  0.6304959211836163  0.16671105193076136  1.0000
  H   H44       1.0  0.8598996719203171  0.8695061517749921  0.6666910440656011  1.0000
  H   H45       1.0  0.3598884154465125  0.6304959211836163  0.6667034627405286  1.0000
  H   H46       1.0  0.1400979389769716  0.8695079288886165  0.16669035413921313  1.0000
  H   H47       1.0  0.3598884154465125  0.36950368367516984  0.8332965372594714  1.0000
  H   H48       1.0  0.1401019233050249  0.1304907874133647  0.3333089559343989  1.0000
  H   H49       1.0  0.7885383643803507  0.269273586975558  0.5579200099349395  1.0000
  H   H50       1.0  0.7114695069087276  0.23072088411297642  0.057930358830709815  1.0000
  H   H51       1.0  0.7885383643803507  0.7307260178832281  0.9420799900650609  1.0000
  H   H52       1.0  0.7114685108267196  0.7692787207458096  0.44207171094844  1.0000
  H   H53       1.0  0.21146123868096112  0.7307304606672744  0.442075160580366  1.0000
  H   H54       1.0  0.2885330843986296  0.7692822749730511  0.942072400874828  1.0000
  H   H55       1.0  0.21146223476297624  0.2692700327483237  0.05792483941963411  1.0000
  H   H56       1.0  0.2885330843986296  0.2307191069993522  0.557927599125172  1.0000
  C   C1        1.0  0.8443866906575509  0.1631514700703249  0.3987470936851026  1.0000
  C   C2        1.0  0.6556132119754352  0.3368430010182166  0.8987519231697976  1.0000
  C   C3        1.0  0.8443856945755357  0.8368490233452733  0.1012529063148975  1.0000
  C   C4        1.0  0.6556152041394583  0.6631557152837645  0.6012487667565836  1.0000
  C   C5        1.0  0.155608928075722  0.8368472462316562  0.6012501466093596  1.0000
  C   C6        1.0  0.3443863910858838  0.6631601580678109  0.1012515264621285  1.0000
  C   C7        1.0  0.15560793199370693  0.16315235862713  0.8987491634642595  1.0000
  C   C8        1.0  0.3443863910858838  0.3368403353477873  0.39874847353787163  1.0000
  C   C9        1.0  0.8923271218374538  0.4202509401951318  0.5009320905459377  1.0000
  C   C10       1.0  0.6076757690415633  0.07974886223426131  0.0009382998834013002  1.0000
  C   C11       1.0  0.8923261257554458  0.5797495532204665  0.9990665296012936  1.0000
  C   C12       1.0  0.6076737768775402  0.9202516311813371  0.4990617001165987  1.0000
  C   C13       1.0  0.1076764655519113  0.5797504417772714  0.4990630799693677  1.0000
  C   C14       1.0  0.3923208457737175  0.9202542968517662  0.9990637698957485  1.0000
  C   C15       1.0  0.1076754694699034  0.42025005163832674  0.0009369200306324002  1.0000
  C   C16       1.0  0.3923218418557255  0.079746196563832  0.5009376099570204  1.0000
  C   C17       1.0  0.7781024131353291  0.33270588051189526  0.5009003539322379  1.0000
  C   C18       1.0  0.7219024699077181  0.1672894791334514  0.0009120826807774001  1.0000
  C   C19       1.0  0.7781024131353291  0.667294612903703  0.9990982662149934  1.0000
  C   C20       1.0  0.7219014738257031  0.8327119028389519  0.4990879173192226  1.0000
  C   C21       1.0  0.2218991820900129  0.6672963900173202  0.4990920568775295  1.0000
  C   C22       1.0  0.2780941449075627  0.8327119028389519  0.9990899870983796  1.0000
  C   C23       1.0  0.22190017817202803  0.3327041033982709  0.0009079431224706002  1.0000
  C   C24       1.0  0.2780951409895778  0.1672885905766393  0.5009093229752395  1.0000
  C   C25       1.0  0.004307058622075  0.3996364222083174  0.556313861310997  1.0000
  C   C26       1.0  0.49569622919562306  0.10036338022107572  0.0563242102067676  1.0000
  C   C27       1.0  0.004307058622075  0.600364959764093  0.943684758836234  1.0000
  C   C28       1.0  0.495695233113615  0.8996371131945224  0.4436750998668444  1.0000
  C   C29       1.0  0.9956955326852821  0.600364959764093  0.4436792394251513  1.0000
  C   C30       1.0  0.5042993895376426  0.899641555978569  0.9436785494987705  1.0000
  C   C31       1.0  0.9956935405212518  0.39963464509469304  0.05632283035399872  1.0000
  C   C32       1.0  0.5043013817016657  0.1003580488802172  0.5563214505012299  1.0000
  C   C33       1.0  0.8887850542009801  0.5212283131717683  0.444503011528667  1.0000
  C   C34       1.0  0.6112148484319988  0.9787799796845109  0.944507841013362  1.0000
  C   C35       1.0  0.8887860502829952  0.47877306880064213  0.055495608618557  1.0000
  C   C36       1.0  0.6112148484319988  0.021221402287892502  0.5554928489130191  1.0000
  C   C37       1.0  0.11121654102436201  0.47877129168701776  0.5554893992810934  1.0000
  C   C38       1.0  0.38878276246529  0.021226733628751  0.055495608618557  1.0000
  C   C39       1.0  0.11121654102436201  0.5212265360581441  0.9445106007188999  1.0000
  C   C40       1.0  0.3887837585473051  0.978772871230035  0.4445043913814431  1.0000
  C   C41       1.0  0.7025924240132754  0.2911889521318898  0.3368179215277749  1.0000
  C   C42       1.0  0.7974194316038563  0.2088117388543154  0.8368296502763144  1.0000
  C   C43       1.0  0.7025924240132754  0.7088115412837084  0.1631820784722251  1.0000
  C   C44       1.0  0.7974204276858714  0.7911914202317121  0.6631703497236856  1.0000
  C   C45       1.0  0.2974081751300588  0.7088159840677548  0.6631779389139183  1.0000
  C   C46       1.0  0.2025811675394706  0.7911887545612828  0.1631724195028426  1.0000
  C   C47       1.0  0.2974071790480437  0.2911827322342262  0.8368213711596937  1.0000
  C   C48       1.0  0.2025811675394706  0.2088108502975032  0.3368275804971575  1.0000
  C   C49       1.0  0.7331054043023784  0.20513666788907872  0.2732370656051017  1.0000
  C   C50       1.0  0.7669164121348828  0.2948578031994558  0.7732494842800295  1.0000
  C   C51       1.0  0.7331044082203633  0.7948638255265195  0.22676224446851737  1.0000
  C   C52       1.0  0.7669174082168979  0.705139135988901  0.7267518955727399  1.0000
  C   C53       1.0  0.2668981830869939  0.794860271299278  0.7267553452046658  1.0000
  C   C54       1.0  0.2330811987624131  0.7051462444433768  0.2267512056463588  1.0000
  C   C55       1.0  0.2668971870049788  0.20513933355950803  0.7732446547953346  1.0000
  C   C56       1.0  0.2330831909264361  0.2948533604154094  0.27324810442726033  1.0000
  N   N1        1.0  0.7730532734139359  0.262816444638915  0.4155743982117103  1.0000
  N   N2        1.0  0.7269516096291113  0.23717980356323665  0.9155854370338687  1.0000
  N   N3        1.0  0.7730522773319208  0.7371831602198711  0.0844256017882898  1.0000
  N   N4        1.0  0.7269506135470962  0.7628215784091668  0.5844159428189002  1.0000
  N   N5        1.0  0.2269473257293981  0.7371822716630589  0.5844207723035952  1.0000
  N   N6        1.0  0.2730460012681775  0.7628251326364079  0.08441801259805713  1.0000
  N   N7        1.0  0.2269473257293981  0.2628173331957271  0.9155785377700172  1.0000
  N   N8        1.0  0.2730479934322076  0.2371744722223781  0.415581987401943  1.0000
  N   N9        1.0  0.821937990341695  0.12588539746828792  0.3124524813202427  1.0000
  N   N10       1.0  0.6780728691934215  0.37410729650662233  0.8124545510993999  1.0000
  N   N11       1.0  0.821936994259687  0.8741150959473033  0.18754682875336937  1.0000
  N   N12       1.0  0.6780758574394596  0.6258905312385394  0.6875447589742195  1.0000
  N   N13       1.0  0.178061612719624  0.8741124302768739  0.6875447589742195  1.0000
  N   N14       1.0  0.3219267338678975  0.6258940854657808  0.18754889853252624  1.0000
  N   N15       1.0  0.1780606166376089  0.12588717458191212  0.8124559309521688  1.0000
  N   N16       1.0  0.3219277299499055  0.3741055193930052  0.3124511014674738  1.0000
  Cl  Cl1       1.0  0.0401889209585846  0.9169017720084796  0.3653981220203805  1.0000
  Cl  Cl2       1.0  0.4597346802981193  0.583140286006568  0.8653353387193621  1.0000
  Cl  Cl3       1.0  0.0401909131226077  0.0830969442935015  0.1346018779796196  1.0000
  Cl  Cl4       1.0  0.45973169205208114  0.41685931885221816  0.6346667310597953  1.0000
  Cl  Cl5       1.0  0.9598116781847423  0.0831040527479772  0.6346067074643145  1.0000
  Cl  Cl6       1.0  0.5402589462711234  0.41686287307945247  0.13465914186956243  1.0000
  Cl  Cl7       1.0  0.9598096860207193  0.9168982177812383  0.8653939824620736  1.0000
  Cl  Cl8       1.0  0.5402589462711234  0.5831376203361387  0.36534016820404963  1.0000
