data_image0
_chemical_formula_structural       Mn4H18C18N2O24
_chemical_formula_sum              "Mn4 H18 C18 N2 O24"
_cell_length_a       6.550550787671691
_cell_length_b       8.834534708253685
_cell_length_c       11.15087921692528
_cell_angle_alpha    91.86301280484523
_cell_angle_beta     106.21967369113042
_cell_angle_gamma    92.30694856336696

_space_group_name_H-M_alt    "P 1"
_space_group_IT_number       1

loop_
  _space_group_symop_operation_xyz
  'x, y, z'

loop_
  _atom_site_type_symbol
  _atom_site_label
  _atom_site_symmetry_multiplicity
  _atom_site_fract_x
  _atom_site_fract_y
  _atom_site_fract_z
  _atom_site_occupancy
  Mn  Mn1       1.0  0.6324441662195426  0.2734147557721159  0.16678294688417583  1.0000
  Mn  Mn2       1.0  0.3675618280685597  0.7265848184834597  0.8332187467309848  1.0000
  Mn  Mn3       1.0  0.19584869191093904  0.7858257618177122  0.27304516976711557  1.0000
  Mn  Mn4       1.0  0.8041492719279263  0.214172714722487  0.7269542584517479  1.0000
  H   H1        1.0  0.7699968737307117  0.97935069924403  0.14488356653059495  1.0000
  H   H2        1.0  0.23000117946487822  0.020648911265013205  0.8551159128968066  1.0000
  H   H3        1.0  0.7531105817440746  0.04945543314826041  0.011671849333517073  1.0000
  H   H4        1.0  0.2468875608082257  0.9505453113296128  0.9883276813024222  1.0000
  H   H5        1.0  0.7456522569710627  0.3597859292009034  0.9710259664208107  1.0000
  H   H6        1.0  0.25434748737419  0.6402148284023215  0.028972036943898202  1.0000
  H   H7        1.0  0.5162101676828783  0.2956268065516809  0.9071078264309801  1.0000
  H   H8        1.0  0.48378939177874264  0.7043716738520232  0.09289097002064749  1.0000
  H   H9        1.0  0.6545749680776255  0.36636258172852376  0.3988352716058328  1.0000
  H   H10       1.0  0.3454230789477535  0.6336370195186803  0.601165103325556  1.0000
  H   H11       1.0  0.49000337298421226  0.4783848992891963  0.3180516372773923  1.0000
  H   H12       1.0  0.5099962758341193  0.5216147150833523  0.6819472103827733  1.0000
  H   H13       1.0  0.9157369364329638  0.7130182359780054  0.019318981397660178  1.0000
  H   H14       1.0  0.08426121845974423  0.2869825270235469  0.980678758230297  1.0000
  H   H15       1.0  0.9675806692770267  0.5710253992401421  0.1066392869799841  1.0000
  H   H16       1.0  0.0324191644249439  0.42897649233192686  0.8933587675932626  1.0000
  H   H17       1.0  0.8220094928858119  0.5947255082004972  0.4784251279105759  1.0000
  H   H18       1.0  0.177991828571578  0.405275225480736  0.5215749301988665  1.0000
  C   C1        1.0  0.7202603474144168  0.11643723857062582  0.4418465180672228  1.0000
  C   C2        1.0  0.279740967872769  0.8835634858487682  0.558154435546214  1.0000
  C   C3        1.0  0.7519296233095291  0.9702131284786474  0.5082568562038502  1.0000
  C   C4        1.0  0.2480731982436879  0.029786465835414302  0.491743414433813  1.0000
  C   C5        1.0  0.7608195882080153  0.8298990110127279  0.448080371095429  1.0000
  C   C6        1.0  0.23918181643588807  0.17010284737550316  0.5519206337265459  1.0000
  C   C7        1.0  0.8073279786124771  0.7043597086455691  0.522020643766268  1.0000
  C   C8        1.0  0.1926716640356503  0.29563989646513994  0.47797909939789196  1.0000
  C   C9        1.0  0.8284945605123042  0.7183694380851267  0.6499598368642692  1.0000
  C   C10       1.0  0.17150340332656813  0.28162903845507253  0.35003959135460133  1.0000
  C   C11       1.0  0.7975942256221559  0.8606429928711209  0.7005636779428668  1.0000
  C   C12       1.0  0.2024039107599336  0.13935774234492024  0.2994367481970599  1.0000
  C   C13       1.0  0.7759949567313525  0.8895416882038847  0.8299457150889891  1.0000
  C   C14       1.0  0.2240063523856222  0.11045902695367003  0.17005613402844227  1.0000
  C   C15       1.0  0.8868655203098682  0.5813167927659892  0.7260376592060991  1.0000
  C   C16       1.0  0.1131325328857145  0.4186828177430544  0.2739618202213022  1.0000
  C   C17       1.0  0.7108115605824707  0.8081400844536761  0.308444014027934  1.0000
  C   C18       1.0  0.28918976087491904  0.1918606492275502  0.6915560440815083  1.0000
  N   N1        1.0  0.7683944492405318  0.9824042979752505  0.6306845868042996  1.0000
  N   N2        1.0  0.2316051040508853  0.017594173166621405  0.3693151051513154  1.0000
  O   O1        1.0  0.6981709496412379  0.10966344347301775  0.32553641020390234  1.0000
  O   O2        1.0  0.30183513400358214  0.8903372647514017  0.6744653346197962  1.0000
  O   O3        1.0  0.7190261398766467  0.23646843780718294  0.5087751759811069  1.0000
  O   O4        1.0  0.2809719071487322  0.763531163440021  0.4912251989502819  1.0000
  O   O5        1.0  0.8061488717043658  0.02538301511519591  0.8730329372853373  1.0000
  O   O6        1.0  0.19385403920556848  0.9746177131677031  0.1269673845608636  1.0000
  O   O7        1.0  0.7163848210551649  0.7771624847474855  0.8842238862148687  1.0000
  O   O8        1.0  0.2836195776101818  0.222837085644585  0.11577843916753489  1.0000
  O   O9        1.0  0.061873720816471696  0.5872784689502026  0.8115197307621071  1.0000
  O   O10       1.0  0.9381210579471075  0.41272000912481843  0.18848006548723356  1.0000
  O   O11       1.0  0.7598228388692265  0.4644895233989672  0.6953832730250153  1.0000
  O   O12       1.0  0.24017671442218363  0.5355089477429046  0.30461641893059976  1.0000
  O   O13       1.0  0.8586207352398817  0.8129028077840774  0.2556072872273631  1.0000
  O   O14       1.0  0.14138377129280144  0.18709792436233397  0.744392402851595  1.0000
  O   O15       1.0  0.5167336517389529  0.777906500419306  0.24968770239247104  1.0000
  O   O16       1.0  0.4832676697184368  0.2220942332619202  0.7503123557169714  1.0000
  O   O17       1.0  0.7320024225336824  0.0695122662992418  0.0960006851424069  1.0000
  O   O18       1.0  0.26799730947116274  0.9304884727803119  0.9039991092302839  1.0000
  O   O19       1.0  0.6014801745250153  0.3515849934768412  0.9845022786414004  1.0000
  O   O20       1.0  0.3985178848407714  0.6484146262940342  0.01549630528200649  1.0000
  O   O21       1.0  0.624793501809009  0.42773350956536405  0.32212905155857635  1.0000
  O   O22       1.0  0.3752061408391186  0.572266095545352  0.6778706916055767  1.0000
  O   O23       1.0  0.031362850300830296  0.6647853676033648  0.080922807212616  1.0000
  O   O24       1.0  0.9686352090649635  0.3352142521675107  0.9190757767107908  1.0000
