data_image0
_chemical_formula_structural       In6H90C96N24O48
_chemical_formula_sum              "In6 H90 C96 N24 O48"
_cell_length_a       14.300471256975598
_cell_length_b       18.683927425171678
_cell_length_c       18.684049688406382
_cell_angle_alpha    113.71862230098483
_cell_angle_beta     104.78559628338535
_cell_angle_gamma    104.78591814285188

_space_group_name_H-M_alt    "P 1"
_space_group_IT_number       1

loop_
  _space_group_symop_operation_xyz
  'x, y, z'

loop_
  _atom_site_type_symbol
  _atom_site_label
  _atom_site_symmetry_multiplicity
  _atom_site_fract_x
  _atom_site_fract_y
  _atom_site_fract_z
  _atom_site_occupancy
  In  In1       1.0  0.39741410138475425  0.5733524956322497  0.07366628671175587  1.0000
  In  In2       1.0  0.32369667636363186  0.9263620602131938  0.49981559029689054  1.0000
  In  In3       1.0  0.8240602723157409  0.5001688126980638  0.4266376292588206  1.0000
  In  In4       1.0  0.8236882837484671  0.4998106640671124  0.9263568854386294  1.0000
  In  In5       1.0  0.324058834012014  0.42663899931562094  0.5001658270633487  1.0000
  In  In6       1.0  0.8974277096871435  0.07366194983553949  0.5733517726275255  1.0000
  H   H1        1.0  0.3486427771680027  0.6766233391086159  0.2361092254149356  1.0000
  H   H2        1.0  0.11265540415540436  0.7638175371489879  0.44065195770570414  1.0000
  H   H3        1.0  0.6720623358611135  0.5592636630987328  0.3232565793260065  1.0000
  H   H4        1.0  0.6126525600472235  0.440648762805047  0.7638167059796147  1.0000
  H   H5        1.0  0.1720649975934734  0.3232590078708597  0.5592598958479089  1.0000
  H   H6        1.0  0.8486479206879454  0.23610810806699334  0.6766228765964544  1.0000
  H   H7        1.0  0.5256219022171038  0.9469583098287513  0.34747313796835755  1.0000
  H   H8        1.0  0.1781156189637016  0.65267530047619  0.5998570003677275  1.0000
  H   H9        1.0  0.5784727141415686  0.40028620126692965  0.0529346979744574  1.0000
  H   H10       1.0  0.6781102442502985  0.5998556067530388  0.6526786668990144  1.0000
  H   H11       1.0  0.07847220474403122  0.0529326476198548  0.4002832804954864  1.0000
  H   H12       1.0  0.025617633288000215  0.34747079008090503  0.9469593861478958  1.0000
  H   H13       1.0  0.6123527733371361  0.9125250984802592  0.24688375445832395  1.0000
  H   H14       1.0  0.3655012649390699  0.7533782880120654  0.6660871773888248  1.0000
  H   H15       1.0  0.6996769255956254  0.3341219111605652  0.08735761190551737  1.0000
  H   H16       1.0  0.865500969388471  0.666088771985983  0.7533786140399672  1.0000
  H   H17       1.0  0.1996771616095714  0.0873545050826863  0.33411839437928154  1.0000
  H   H18       1.0  0.11235160553825811  0.2468835414102486  0.9125291133971846  1.0000
  H   H19       1.0  0.6943374381056344  0.8741540400208976  0.1723535975307371  1.0000
  H   H20       1.0  0.522061130552494  0.8275823506068817  0.701837195131269  1.0000
  H   H21       1.0  0.8203384814969044  0.29831526795801716  0.12574032917253677  1.0000
  H   H22       1.0  0.02205269430741906  0.7018354886187339  0.8275831801247978  1.0000
  H   H23       1.0  0.3203367946014596  0.12573848693111958  0.29831083437004946  1.0000
  H   H24       1.0  0.19433038495822796  0.1723443218670084  0.8741539979561356  1.0000
  H   H25       1.0  0.7993773159135671  0.8164549192782147  0.09257107774155328  1.0000
  H   H26       1.0  0.706899802592311  0.9072437366481837  0.7237452258430399  1.0000
  H   H27       1.0  0.9830897021693163  0.2762195200862508  0.18344819939960652  1.0000
  H   H28       1.0  0.2068912316035634  0.7237495184704696  0.9072443040048346  1.0000
  H   H29       1.0  0.4830901980883908  0.18344612804767016  0.2762177358612022  1.0000
  H   H30       1.0  0.29938157627597667  0.0925719090231993  0.8164684759549136  1.0000
  H   H31       1.0  0.5786998857749663  0.563430958326826  0.0031901052865491897  1.0000
  H   H32       1.0  0.5755234276946908  0.9967534031841296  0.5602497358123771  1.0000
  H   H33       1.0  0.015265993210462568  0.4395104961460844  0.43647764868119066  1.0000
  H   H34       1.0  0.07551795200266291  0.5602476067160891  0.9967494397245463  1.0000
  H   H35       1.0  0.5152668337327881  0.43647507862421253  0.4395051692425228  1.0000
  H   H36       1.0  0.07871760989011281  0.0031969905883144985  0.5634408892712559  1.0000
  H   H37       1.0  0.41167859857856115  0.47374718171712255  0.7425561084093177  1.0000
  H   H38       1.0  0.6688361017087843  0.2574696792728446  0.7311910049659505  1.0000
  H   H39       1.0  0.9381280238709665  0.26889293908754297  0.5262808376557759  1.0000
  H   H40       1.0  0.16883558816034838  0.7311948813501202  0.257471768470687  1.0000
  H   H41       1.0  0.43812925006614717  0.5262816049234614  0.2688922051923868  1.0000
  H   H42       1.0  0.9116767080325872  0.7425559198320855  0.4737466896205832  1.0000
  H   H43       1.0  0.4439852760852433  0.5471149673850492  0.8527388471165911  1.0000
  H   H44       1.0  0.5909760231845667  0.14725019740159687  0.6943184279347607  1.0000
  H   H45       1.0  0.8970824154165344  0.30579371536207844  0.4529740411781874  1.0000
  H   H46       1.0  0.09097261753625206  0.694322288203814  0.14725247070566644  1.0000
  H   H47       1.0  0.39708385449191047  0.45297444439944456  0.30579227077334553  1.0000
  H   H48       1.0  0.9439832523681774  0.8527393705995578  0.5471146470238042  1.0000
  H   H49       1.0  0.3110000937992083  0.494245540958751  0.7761163500487743  1.0000
  H   H50       1.0  0.5345145787382535  0.22378750596405436  0.7179084880775409  1.0000
  H   H51       1.0  0.8170542676331677  0.28211646906257204  0.5058991820813078  1.0000
  H   H52       1.0  0.03451188228685708  0.7179119498257122  0.22379012672269744  1.0000
  H   H53       1.0  0.3170536229385164  0.5058982243250014  0.28211568706875323  1.0000
  H   H54       1.0  0.8109963139065925  0.7761162113716509  0.49424377607844877  1.0000
  H   H55       1.0  0.3995363018206035  0.34452751338494625  0.7061622483456207  1.0000
  H   H56       1.0  0.6934115384960223  0.29376828972893076  0.6383118004239281  1.0000
  H   H57       1.0  0.05534051372363534  0.36174651598053476  0.655636116184674  1.0000
  H   H58       1.0  0.19341188727372582  0.6383155513885157  0.29376669863764004  1.0000
  H   H59       1.0  0.5553407202741383  0.6556391498058076  0.3617470120969914  1.0000
  H   H60       1.0  0.8995327759724888  0.7061638601875018  0.34452662846425874  1.0000
  H   H61       1.0  0.2704321880682202  0.29710405105122123  0.7002900907238685  1.0000
  H   H62       1.0  0.5702836072639244  0.2997091870682951  0.5966730846386029  1.0000
  H   H63       1.0  0.9735887982076225  0.40326478171785857  0.7029507740961168  1.0000
  H   H64       1.0  0.07028653760561093  0.5966761151065397  0.29970895658608043  1.0000
  H   H65       1.0  0.47358756438876537  0.7029527590341756  0.40326419883184184  1.0000
  H   H66       1.0  0.7704315322723048  0.7002924916062127  0.2971059297355083  1.0000
  H   H67       1.0  0.38312811155535803  0.29626630874269466  0.7694936746176995  1.0000
  H   H68       1.0  0.613751950631034  0.2304231521295605  0.5267165480906544  1.0000
  H   H69       1.0  0.08720529192358126  0.4733305962896636  0.703917217195148  1.0000
  H   H70       1.0  0.11375080584089398  0.5267163695762633  0.23042104544722977  1.0000
  H   H71       1.0  0.5872029640456091  0.7039180812702952  0.473329323113788  1.0000
  H   H72       1.0  0.8831261413309408  0.7694950869174803  0.2962677401399248  1.0000
  H   H73       1.0  0.27361598737649473  0.2989332390789272  0.8497904958900764  1.0000
  H   H74       1.0  0.4237468810221614  0.15020496107377573  0.4490415794869735  1.0000
  H   H75       1.0  0.9747889518232923  0.5509352627777274  0.7011881340990841  1.0000
  H   H76       1.0  0.9237423116380015  0.44904303989136446  0.1502035024531594  1.0000
  H   H77       1.0  0.47478446006339675  0.701186041084071  0.550933170241187  1.0000
  H   H78       1.0  0.7736208361867156  0.8497947029351847  0.29893924806506084  1.0000
  H   H79       1.0  0.3397265826155049  0.37193501203959306  0.9625243611315714  1.0000
  H   H80       1.0  0.3770871828775881  0.037452890103566  0.4093004752796291  1.0000
  H   H81       1.0  0.9680025746959728  0.5907068727088002  0.6282271648812385  1.0000
  H   H82       1.0  0.8770896246316016  0.4093010029374965  0.03745362475599732  1.0000
  H   H83       1.0  0.46800110775812004  0.6282242583698476  0.5907040569498464  1.0000
  H   H84       1.0  0.8397340453666827  0.962529423439342  0.37193813798310765  1.0000
  H   H85       1.0  0.4115948580723625  0.33213133877844564  0.9019101330434156  1.0000
  H   H86       1.0  0.5096132605071588  0.09810104758346228  0.43015179988470464  1.0000
  H   H87       1.0  0.07973344879662385  0.569967367453735  0.6681636031561597  1.0000
  H   H88       1.0  0.009611682345735022  0.43015589835808743  0.09810535967982051  1.0000
  H   H89       1.0  0.5797306701761684  0.668164321943209  0.5699658644794356  1.0000
  H   H90       1.0  0.9115966474568464  0.9019110321137018  0.332131257906255  1.0000
  C   C1        1.0  0.40652654176226133  0.7303300888814875  0.23994926302921749  1.0000
  C   C2        1.0  0.16673271190379063  0.7600279438417913  0.4905397009909366  1.0000
  C   C3        1.0  0.6762724102928959  0.5094291826782822  0.26956748877957903  1.0000
  C   C4        1.0  0.6667277955370211  0.49053997165090374  0.7600298323742367  1.0000
  C   C5        1.0  0.176269043950164  0.2695663515310969  0.5094233322466339  1.0000
  C   C6        1.0  0.9065292737730248  0.23994876538478843  0.7303334040745856  1.0000
  C   C7        1.0  0.4321612446920184  0.8142190097119126  0.301244165500002  1.0000
  C   C8        1.0  0.1310601587837184  0.698778403611442  0.5131832932053586  1.0000
  C   C9        1.0  0.6179417523386024  0.4868298918015909  0.18568394209419387  1.0000
  C   C10       1.0  0.6310589613005179  0.5131853021399877  0.6987825075117018  1.0000
  C   C11       1.0  0.11794112890232358  0.18568368273015068  0.48682761865003965  1.0000
  C   C12       1.0  0.9321575395794072  0.30124089466981735  0.8142202045727773  1.0000
  C   C13       1.0  0.504701530944267  0.8806480707893272  0.30152468319821696  1.0000
  C   C14       1.0  0.20322498885484208  0.6985932200463765  0.5794649142518227  1.0000
  C   C15       1.0  0.6238717917385018  0.42060136075190246  0.11923489402332885  1.0000
  C   C16       1.0  0.703223109148354  0.5794660826718215  0.698595234033043  1.0000
  C   C17       1.0  0.12387004943845172  0.11923399044591318  0.4205994785808117  1.0000
  C   C18       1.0  0.004698120189935604  0.30152335888260484  0.8806495957177777  1.0000
  C   C19       1.0  0.5527785249393063  0.860943339342107  0.2443977285300464  1.0000
  C   C20       1.0  0.3084234175359413  0.7557736369323463  0.616913430646804  1.0000
  C   C21       1.0  0.6917001482998588  0.38321165088505893  0.13893406134764785  1.0000
  C   C22       1.0  0.8084211615719072  0.6169177720016491  0.7557765003801865  1.0000
  C   C23       1.0  0.1916991640304886  0.13893326666243408  0.3832068251856813  1.0000
  C   C24       1.0  0.052779563714714976  0.24439764561200408  0.8609453618136133  1.0000
  C   C25       1.0  0.526107379151135  0.7753207279418532  0.18686896868127445  1.0000
  C   C26       1.0  0.33933284397580377  0.8131831579145726  0.5886749171972101  1.0000
  C   C27       1.0  0.7508266857206749  0.4113958216474742  0.22455840594954427  1.0000
  C   C28       1.0  0.8393262933259323  0.5886771950667723  0.8131847243588555  1.0000
  C   C29       1.0  0.25082307536791854  0.2245579799962627  0.4113887888786253  1.0000
  C   C30       1.0  0.026112212679521497  0.18686953446149349  0.775326286519409  1.0000
  C   C31       1.0  0.5822647711864092  0.7482623307228237  0.13138742198773198  1.0000
  C   C32       1.0  0.4509428787595127  0.8686037043656897  0.6169829024768634  1.0000
  C   C33       1.0  0.8340646157646605  0.3830366801806235  0.2516386643962606  1.0000
  C   C34       1.0  0.9509384104711959  0.6169818480079314  0.8686027287549226  1.0000
  C   C35       1.0  0.33406323264988214  0.2516380642785734  0.38303258855734884  1.0000
  C   C36       1.0  0.08227105238794512  0.1313893696984749  0.748266343647629  1.0000
  C   C37       1.0  0.6701422808072339  0.8055344765468602  0.13409631400990196  1.0000
  C   C38       1.0  0.53611331437412  0.8658213317823424  0.6714551079208209  1.0000
  C   C39       1.0  0.8647347822615359  0.3285895242052774  0.19435234506912738  1.0000
  C   C40       1.0  0.036106206048657434  0.6714518651691535  0.8658189759713227  1.0000
  C   C41       1.0  0.3647336641062609  0.1943503297164924  0.3285840134705752  1.0000
  C   C42       1.0  0.17014523230685089  0.1340941505994238  0.8055384194028794  1.0000
  C   C43       1.0  0.7287644079489298  0.7739560727363608  0.0901318726936964  1.0000
  C   C44       1.0  0.6386868218251609  0.9097144597135622  0.6837553513970891  1.0000
  C   C45       1.0  0.9549370675330096  0.31621136152944723  0.2259381811283845  1.0000
  C   C46       1.0  0.13867952899180117  0.6837541008982838  0.9097095722188729  1.0000
  C   C47       1.0  0.4549335782523302  0.22593466188060055  0.31620567277452244  1.0000
  C   C48       1.0  0.22877055610391753  0.09013072091840968  0.7739644490902295  1.0000
  C   C49       1.0  0.699048159913133  0.6857503403842315  0.04440421862303622  1.0000
  C   C50       1.0  0.6546841184979898  0.9554982604214216  0.6413164020703948  1.0000
  C   C51       1.0  0.013337766155416353  0.3585664304116349  0.31414590478145515  1.0000
  C   C52       1.0  0.15467522022269245  0.6413150472392387  0.9554933445324213  1.0000
  C   C53       1.0  0.5133403772080102  0.31414255286112086  0.35856307096055684  1.0000
  C   C54       1.0  0.19906438783591082  0.0444083884378728  0.6857608334397727  1.0000
  C   C55       1.0  0.6065746012250701  0.6325781557730819  0.0401324211602655  1.0000
  C   C56       1.0  0.5664831708248527  0.9598223593257555  0.592473808833418  1.0000
  C   C57       1.0  0.9739799645740493  0.40734673428320184  0.3673248991581205  1.0000
  C   C58       1.0  0.06647690155611491  0.592473533898577  0.9598200595891275  1.0000
  C   C59       1.0  0.4739804554656289  0.3673241175392974  0.4073420466649581  1.0000
  C   C60       1.0  0.1065918057773132  0.040137112828361396  0.6325869195118871  1.0000
  C   C61       1.0  0.3836255708693487  0.8293405428322558  0.3653029667918874  1.0000
  C   C62       1.0  0.01845143012570097  0.6347534857323395  0.46424501249377687  1.0000
  C   C63       1.0  0.5544895937768785  0.5359084729361283  0.1706214217513775  1.0000
  C   C64       1.0  0.5184469968509191  0.46423961366581057  0.6347560508827857  1.0000
  C   C65       1.0  0.05449062340962741  0.17062232738811642  0.5359069768891234  1.0000
  C   C66       1.0  0.8836210210027745  0.36529785328816183  0.829340166149031  1.0000
  C   C67       1.0  0.765931959311992  0.647932223476566  0.0038040757064621423  1.0000
  C   C68       1.0  0.7622014986921427  0.9960776574795601  0.644082905687455  1.0000
  C   C69       1.0  0.11802857081673317  0.35577682828434115  0.35193537252933293  1.0000
  C   C70       1.0  0.26219297555749677  0.6440861102617176  0.9960745091180461  1.0000
  C   C71       1.0  0.6180312856976329  0.3519328302670459  0.3557719520658012  1.0000
  C   C72       1.0  0.26594760374290166  0.0038110550726457994  0.6479443721663716  1.0000
  C   C73       1.0  0.36555772822395477  0.42729934922869006  0.8855226682088077  1.0000
  C   C74       1.0  0.47991712665044883  0.11446728093178389  0.5416648714175027  1.0000
  C   C75       1.0  0.9386012782326391  0.45838027197716974  0.5728709093854365  1.0000
  C   C76       1.0  0.9799150763021064  0.5416689670118017  0.11446771383913296  1.0000
  C   C77       1.0  0.43860144418003705  0.5728719731521464  0.45837836159649487  1.0000
  C   C78       1.0  0.8655664158250148  0.8855300760410146  0.42730564980890784  1.0000
  C   C79       1.0  0.3860044375814198  0.48725519794302835  0.7950925488389518  1.0000
  C   C80       1.0  0.5906546240503304  0.2048828897650381  0.6920633845068667  1.0000
  C   C81       1.0  0.8990481684396203  0.30800865530547833  0.5128487975610626  1.0000
  C   C82       1.0  0.09065340964620806  0.6920676029059647  0.2048845988234902  1.0000
  C   C83       1.0  0.3990468424155651  0.5128485312919436  0.3080062104383999  1.0000
  C   C84       1.0  0.8860025741276019  0.7950937695714656  0.48725603919714905  1.0000
  C   C85       1.0  0.3550302731506535  0.3334002660402149  0.7432530934282158  1.0000
  C   C86       1.0  0.6118303854376281  0.2566953947026462  0.5900576120171268  1.0000
  C   C87       1.0  0.021972025180190244  0.40996266773638007  0.6667230177647102  1.0000
  C   C88       1.0  0.11183027564023003  0.590059315714548  0.2566935449633051  1.0000
  C   C89       1.0  0.5219705411590994  0.6667245137626807  0.40996158445096154  1.0000
  C   C90       1.0  0.8550282033299367  0.7432567796929275  0.3334028925983645  1.0000
  C   C91       1.0  0.34652431733895384  0.3532861615475298  0.9013993693267255  1.0000
  C   C92       1.0  0.44502128546891834  0.09858938628524776  0.45178848020478324  1.0000
  C   C93       1.0  0.9934768660609381  0.5482490462008441  0.6469033468958617  1.0000
  C   C94       1.0  0.9450209121296851  0.4517909271689362  0.09859085797659622  1.0000
  C   C95       1.0  0.49347376866708  0.6469021556132759  0.5482465501453009  1.0000
  C   C96       1.0  0.8465299444482071  0.9014035650905468  0.353290598113695  1.0000
  N   N1        1.0  0.451449008968453  0.7118496757223626  0.18423972163891036  1.0000
  N   N2        1.0  0.26734328568745264  0.8157661291960138  0.5277738628673208  1.0000
  N   N3        1.0  0.739674600201596  0.4722162930213329  0.28804854564654664  1.0000
  N   N4        1.0  0.7673394028382746  0.5277760432503555  0.8157678405171328  1.0000
  N   N5        1.0  0.2396680936447098  0.28804772601995404  0.4722080734102152  1.0000
  N   N6        1.0  0.951453911784839  0.18424104600177313  0.7118540649404256  1.0000
  N   N7        1.0  0.550079194333158  0.6631418704724937  0.08176789824807436  1.0000
  N   N8        1.0  0.46834609678093403  0.9182316878732593  0.5814709887500771  1.0000
  N   N9        1.0  0.8869131296448459  0.4184524895191045  0.3367696753665756  1.0000
  N   N10       1.0  0.9683388011799682  0.5814666147213146  0.9182295991183342  1.0000
  N   N11       1.0  0.3869121389864816  0.33677039434055434  0.4184453422079884  1.0000
  N   N12       1.0  0.05008944073757961  0.081767834958228  0.6631476390776998  1.0000
  N   N13       1.0  0.2392843359583168  0.4631845291392124  0.09744660805723275  1.0000
  N   N14       1.0  0.1418984694498489  0.9026121064217347  0.365831346941775  1.0000
  N   N15       1.0  0.7762222114924954  0.634136434294504  0.5368037800777615  1.0000
  N   N16       1.0  0.6418965269072248  0.3658272058316996  0.9026099856937937  1.0000
  N   N17       1.0  0.276226222481462  0.5368043095088026  0.634137628403636  1.0000
  N   N18       1.0  0.739292467311529  0.09744862076648529  0.46318975456740946  1.0000
  N   N19       1.0  0.37311660685997333  0.41625021811121593  0.8121299498878687  1.0000
  N   N20       1.0  0.5608844721958307  0.1878541122992559  0.6040278066141271  1.0000
  N   N21       1.0  0.9572893334853347  0.3960332441519512  0.5838684203477913  1.0000
  N   N22       1.0  0.06088288115645921  0.6040313871679502  0.1878545978488903  1.0000
  N   N23       1.0  0.4572879257367575  0.5838686381677504  0.39603239662658046  1.0000
  N   N24       1.0  0.8731178508689367  0.8121339479231863  0.41625348360985753  1.0000
  O   O1        1.0  0.3427921713105774  0.7702580184695547  0.3777108108782131  1.0000
  O   O2        1.0  0.9650787613475061  0.6224852856586691  0.3928537483853918  1.0000
  O   O3        1.0  0.5731092682823231  0.6075425457420564  0.22963457921540711  1.0000
  O   O4        1.0  0.46507840148517227  0.39285020000178145  0.622485511551844  1.0000
  O   O5        1.0  0.07311202848532616  0.22963487271545086  0.607541843993154  1.0000
  O   O6        1.0  0.8427839304513258  0.3777066369333966  0.7702578424938198  1.0000
  O   O7        1.0  0.3894299578878914  0.9066621447020964  0.40485951828964084  1.0000
  O   O8        1.0  0.9847562298481025  0.595042892927502  0.5019172281182522  1.0000
  O   O9        1.0  0.4827605834392513  0.49808255934765094  0.09335653783655572  1.0000
  O   O10       1.0  0.48475029829440064  0.5019141083237811  0.5950451285965387  1.0000
  O   O11       1.0  0.9827668028528862  0.09335708673168601  0.49808379918255963  1.0000
  O   O12       1.0  0.8894246332805693  0.40485586503304927  0.9066601816020284  1.0000
  O   O13       1.0  0.7349579428488014  0.5664825301833005  0.9779736920174432  1.0000
  O   O14       1.0  0.7570732336155997  0.0218607762403025  0.5884179716037965  1.0000
  O   O15       1.0  0.16858360945406048  0.41139830504111063  0.4333868482781897  1.0000
  O   O16       1.0  0.2570573977894881  0.5884167830221613  0.021853530246858027  1.0000
  O   O17       1.0  0.668581107272587  0.43338733832906934  0.4113856349614907  1.0000
  O   O18       1.0  0.23497243126336528  0.9779796257761361  0.5664942588170946  1.0000
  O   O19       1.0  0.8416420076771802  0.6929752811346787  0.9988425312615523  1.0000
  O   O20       1.0  0.842865371204127  0.0010862719417375002  0.6941360005754904  1.0000
  O   O21       1.0  0.1486105026269016  0.30574994520240045  0.30684950127090377  1.0000
  O   O22       1.0  0.34285733932625106  0.6941362434675324  0.001082185732826611  1.0000
  O   O23       1.0  0.6486083740218336  0.30684244347118284  0.30574579146216513  1.0000
  O   O24       1.0  0.34165427142352195  0.9988487398058793  0.6929915593061226  1.0000
  O   O25       1.0  0.23866522360793846  0.4274551894147364  0.02363513772589694  1.0000
  O   O26       1.0  0.2150354427650639  0.9764792619183564  0.40407187700174063  1.0000
  O   O27       1.0  0.811133351788186  0.5958454941713639  0.5723679572650725  1.0000
  O   O28       1.0  0.7150378604013241  0.40406695852595936  0.9764755060982896  1.0000
  O   O29       1.0  0.3111374521143232  0.572371613289384  0.5958492292963059  1.0000
  O   O30       1.0  0.7386685456333453  0.023636093825061294  0.42745722273817693  1.0000
  O   O31       1.0  0.311556724799125  0.5401895165177704  0.1518367192192684  1.0000
  O   O32       1.0  0.15972510105914484  0.8481757616799327  0.3883948276406032  1.0000
  O   O33       1.0  0.7712851488443706  0.6115282066109842  0.45975949410299005  1.0000
  O   O34       1.0  0.659720891948531  0.3883881878255479  0.8481729622566123  1.0000
  O   O35       1.0  0.27128742680572066  0.4597597517027125  0.6115272347626192  1.0000
  O   O36       1.0  0.8115682723863106  0.151835723888631  0.540192437612774  1.0000
  O   O37       1.0  0.17512403582460218  0.4283276097756215  0.11965316456367259  1.0000
  O   O38       1.0  0.055634507656748204  0.8803927600302545  0.30864261386139474  1.0000
  O   O39       1.0  0.7473251661183582  0.6913928881395323  0.5719017696456989  1.0000
  O   O40       1.0  0.5556331171056499  0.3086439391789924  0.8803944507437368  1.0000
  O   O41       1.0  0.24733035121735014  0.5719024590853722  0.6913958890975851  1.0000
  O   O42       1.0  0.6751307279494868  0.11965703668462166  0.42833572961671973  1.0000
  O   O43       1.0  0.3740025058500791  0.5003545994370311  0.9382375693204213  1.0000
  O   O44       1.0  0.4355988926185078  0.06177493587367879  0.5620218095047493  1.0000
  O   O45       1.0  0.8738509038021576  0.4380066886192679  0.4998451688110708  1.0000
  O   O46       1.0  0.93559468915921  0.5620224506295131  0.06177344226910721  1.0000
  O   O47       1.0  0.37385011811804963  0.49984413295515395  0.4380051779742404  1.0000
  O   O48       1.0  0.8740137933883434  0.9382442513023076  0.5003592140810441  1.0000
