data_image0
_chemical_formula_structural       Al4H23C44N3Cl2O26
_chemical_formula_sum              "Al4 H23 C44 N3 Cl2 O26"
_cell_length_a       6.644216811504482
_cell_length_b       15.841193468019666
_cell_length_c       17.186007366103432
_cell_angle_alpha    101.72906523152547
_cell_angle_beta     91.3479474965269
_cell_angle_gamma    91.81446495326514

_space_group_name_H-M_alt    "P 1"
_space_group_IT_number       1

loop_
  _space_group_symop_operation_xyz
  'x, y, z'

loop_
  _atom_site_type_symbol
  _atom_site_label
  _atom_site_symmetry_multiplicity
  _atom_site_fract_x
  _atom_site_fract_y
  _atom_site_fract_z
  _atom_site_occupancy
  Al  Al1       1.0  0.1151771195318432  0.5022660118272597  0.49559309596056544  1.0000
  Al  Al2       1.0  0.6181031262831738  0.4978089562274518  0.4994949974069416  1.0000
  Al  Al3       1.0  0.6538973517848419  0.9981503305870022  0.0050563181991095385  1.0000
  Al  Al4       1.0  0.1513897877300536  0.0005066235092527999  0.0013265626780665008  1.0000
  H   H1        1.0  0.6318413662207689  0.8086364192275751  0.1414753252272831  1.0000
  H   H2        1.0  0.2396651745980449  0.9058293518889968  0.20033177605586883  1.0000
  H   H3        1.0  0.4903831357197248  0.6909340098386708  0.20347239585846227  1.0000
  H   H4        1.0  0.2775532311173876  0.8082489629267613  0.29648703352126676  1.0000
  H   H5        1.0  0.5282677588127243  0.5938184038730867  0.30006197771184173  1.0000
  H   H6        1.0  0.13700516028335133  0.6902593936996482  0.35773241588653104  1.0000
  H   H7        1.0  0.716395620894879  0.8008467751903013  0.6416498128844456  1.0000
  H   H8        1.0  0.5317686013814368  0.7798920695316554  0.784905378219364  1.0000
  H   H9        1.0  0.7096135044885798  0.6154442815452938  0.7675568149048434  1.0000
  H   H10       1.0  0.05044072765839051  0.6965865366718234  0.8596052038051814  1.0000
  H   H11       1.0  0.2343582392431145  0.7178393076496548  0.7169669609713056  1.0000
  H   H12       1.0  0.057364834689501314  0.8825394180099622  0.7341062813481121  1.0000
  H   H13       1.0  0.2433321767429817  0.1113425856045538  0.2721005456767075  1.0000
  H   H14       1.0  0.7448757610463801  0.2340182289675639  0.22437476213789162  1.0000
  H   H15       1.0  0.5260474935572361  0.38807660402490274  0.23240872939225457  1.0000
  H   H16       1.0  0.2121795898284589  0.2873730430772454  0.13509362349515905  1.0000
  H   H17       1.0  0.022661402440640206  0.2631438637903827  0.2785312087172614  1.0000
  H   H18       1.0  0.6407661544057532  0.06695657899270908  0.778455106815038  1.0000
  H   H19       1.0  0.5754807723322273  0.2810759621002674  0.6222489598952239  1.0000
  H   H20       1.0  0.3817209534798209  0.6081779211570362  0.5372895469759771  1.0000
  H   H21       1.0  0.8707090467677433  0.39708322383277295  0.5227487764147727  1.0000
  H   H22       1.0  0.38949458677378596  0.8894563542506049  0.9661065579496299  1.0000
  H   H23       1.0  0.9007135910499927  0.09955724619062778  0.9728260848880413  1.0000
  C   C1        1.0  0.3460890973463647  0.3797767134322357  0.3885292814185562  1.0000
  C   C2        1.0  0.36794058513925876  0.41854471149373035  0.6038232426049464  1.0000
  C   C3        1.0  0.8873987199329819  0.6214742079016274  0.6093073178821202  1.0000
  C   C4        1.0  0.8523413552563852  0.5806518621688853  0.39334315215634785  1.0000
  C   C5        1.0  0.9322155244740244  0.8623080432507279  0.16586578968360755  1.0000
  C   C6        1.0  0.8363734162391624  0.6368649508225204  0.33387613919765624  1.0000
  C   C7        1.0  0.6308545841738677  0.6913696013193655  0.23780742218454531  1.0000
  C   C8        1.0  0.6517312260085574  0.6370793803080801  0.2903605738078881  1.0000
  C   C9        1.0  0.9963215890964532  0.6914383453840144  0.32397769337009674  1.0000
  C   C10       1.0  0.9773368050690647  0.7495364107738354  0.2719020828819014  1.0000
  C   C11       1.0  0.7908599648470158  0.7495649177404075  0.2276976315050022  1.0000
  C   C12       1.0  0.7722338905595051  0.8075826398528677  0.17548477039025567  1.0000
  C   C13       1.0  0.11644517180363319  0.8623080750754895  0.2096902528771097  1.0000
  C   C14       1.0  0.1372319515430505  0.8078599340593229  0.2620549200579562  1.0000
  C   C15       1.0  0.6873812107798327  0.7656428661894027  0.769232038331815  1.0000
  C   C16       1.0  0.7897544974029033  0.7786765679479684  0.6911542247504062  1.0000
  C   C17       1.0  0.8906335820401451  0.6886143838288987  0.6828283006541088  1.0000
  C   C18       1.0  0.7856539890186697  0.6758204278996728  0.7613996023679666  1.0000
  C   C19       1.0  0.9766122628463308  0.7193283768471231  0.810576756573646  1.0000
  C   C20       1.0  0.07894183430109081  0.7323928179844615  0.7325595767842119  1.0000
  C   C21       1.0  0.9806103352414014  0.8222115629976302  0.740340451905347  1.0000
  C   C22       1.0  0.8758431729380406  0.809348579512516  0.8190816683147948  1.0000
  C   C23       1.0  0.48007319164202034  0.2279915024206147  0.3123375278021998  1.0000
  C   C24       1.0  0.30255144593743927  0.17335219495486595  0.26225174310371113  1.0000
  C   C25       1.0  0.41021484336309305  0.18809776545030835  0.18463919865618555  1.0000
  C   C26       1.0  0.5852767816986315  0.241829900398244  0.2360771003477567  1.0000
  C   C27       1.0  0.4625697633338888  0.3253608764963545  0.2387151653003842  1.0000
  C   C28       1.0  0.2865053218624709  0.271479043556326  0.1874037501690325  1.0000
  C   C29       1.0  0.18156154787502032  0.25689598212046144  0.26465801432558334  1.0000
  C   C30       1.0  0.3545711442727963  0.3108172106994189  0.31629282206471043  1.0000
  C   C31       1.0  0.4074595039695623  0.1424797498914074  0.8408812873070136  1.0000
  C   C32       1.0  0.3526584046322512  0.3693135930414114  0.6696414593406959  1.0000
  C   C33       1.0  0.1774969742445761  0.3379721274901896  0.7842174270701749  1.0000
  C   C34       1.0  0.2065535316839515  0.3882352735392445  0.7282990400277999  1.0000
  C   C35       1.0  0.46688148063677914  0.2981448385037595  0.6688218519365707  1.0000
  C   C36       1.0  0.4437989293011242  0.24541799457244198  0.7254672709189693  1.0000
  C   C37       1.0  0.29854538944571374  0.2659149240857629  0.7873445929056335  1.0000
  C   C38       1.0  0.29079392084467054  0.2145950292611971  0.8467568310246496  1.0000
  C   C39       1.0  0.5457331132199669  0.12192850029477138  0.7795666506751008  1.0000
  C   C40       1.0  0.5652072282482478  0.172428459282763  0.7236878380613807  1.0000
  C   C41       1.0  0.39807050485484297  0.08553583656254199  0.9009927934932027  1.0000
  C   C42       1.0  0.42326379142043885  0.118756672785679  0.11277215264439636  1.0000
  C   C43       1.0  0.9175701193395012  0.9187256854414512  0.10661792090662911  1.0000
  C   C44       1.0  0.8785081503895497  0.877662001114679  0.8917331693618142  1.0000
  N   N1        1.0  0.5736980688520318  0.2071743672647344  0.3841191426463412  1.0000
  N   N2        1.0  0.007729559711656014  0.36109570178498274  0.8381413118426554  1.0000
  N   N3        1.0  0.08573215841968113  0.4655087600417147  0.7308829589639746  1.0000
  Cl  Cl1       1.0  0.1556941459831904  0.24509448456498717  0.9319971060358018  1.0000
  Cl  Cl2       1.0  0.7430665353153003  0.1472505435594798  0.6519789218109369  1.0000
  O   O1        1.0  0.5429419730125247  0.4397244905669451  0.5853473773586516  1.0000
  O   O2        1.0  0.17939764733647928  0.41465788844657675  0.40606894692294315  1.0000
  O   O3        1.0  0.025671241126929107  0.5712029257406639  0.42318761769516317  1.0000
  O   O4        1.0  0.20058650970278077  0.43129119825341883  0.5715831613861156  1.0000
  O   O5        1.0  0.05555753538489942  0.5925486605542576  0.5838003154619219  1.0000
  O   O6        1.0  0.5142987586730284  0.3991580163544626  0.42580340197174155  1.0000
  O   O7        1.0  0.3727689910761142  0.5519583161410254  0.501832078045162  1.0000
  O   O8        1.0  0.7143173422371804  0.5975168739236806  0.5765207169879788  1.0000
  O   O9        1.0  0.6874918775797808  0.5476231425696838  0.4116305188514248  1.0000
  O   O10       1.0  0.8655990939129481  0.44744131386580216  0.4989032570682072  1.0000
  O   O11       1.0  0.25901717531792906  0.1005375869746672  0.07229462774056833  1.0000
  O   O12       1.0  0.5653828868004069  0.0741365608656253  0.9338749178384308  1.0000
  O   O13       1.0  0.7110046754447126  0.9108772894047305  0.913285712101555  1.0000
  O   O14       1.0  0.5906479155706279  0.08335819983903288  0.09685707324624104  1.0000
  O   O15       1.0  0.7461164857028989  0.9261416411389193  0.07420983083039807  1.0000
  O   O16       1.0  0.22639848813155078  0.05362737182068139  0.9123774829520817  1.0000
  O   O17       1.0  0.3973544795692163  0.9468555519963218  0.9994420855413966  1.0000
  O   O18       1.0  0.08199564289562743  0.954277811459562  0.09085015378497022  1.0000
  O   O19       1.0  0.04979013644480551  0.8991342664203045  0.9271056613715207  1.0000
  O   O20       1.0  0.9048479059346733  0.05247827282969549  0.0011254346968883001  1.0000
  O   O21       1.0  0.7564086822239344  0.1936809180042829  0.38431964986023825  1.0000
  O   O22       1.0  0.45998646974865653  0.2050364863761018  0.4401189968428414  1.0000
  O   O23       1.0  0.8593065444871114  0.31081046628749226  0.8271519702916807  1.0000
  O   O24       1.0  0.02553950755027761  0.4297459462969328  0.8873399514685903  1.0000
  O   O25       1.0  0.18214040255503514  0.53506314374021  0.74104398692613  1.0000
  O   O26       1.0  0.9007354165581275  0.4549165781084384  0.7233706370070725  1.0000
