data_image0
_chemical_formula_structural       Zn4H36C48N20Cl8
_chemical_formula_sum              "Zn4 H36 C48 N20 Cl8"
_cell_length_a       5.207455510988552
_cell_length_b       12.394318084847047
_cell_length_c       21.654839705324388
_cell_angle_alpha    89.99943717909949
_cell_angle_beta     90.00027326870318
_cell_angle_gamma    97.07927127516494

_space_group_name_H-M_alt    "P 1"
_space_group_IT_number       1

loop_
  _space_group_symop_operation_xyz
  'x, y, z'

loop_
  _atom_site_type_symbol
  _atom_site_label
  _atom_site_symmetry_multiplicity
  _atom_site_fract_x
  _atom_site_fract_y
  _atom_site_fract_z
  _atom_site_occupancy
  Zn  Zn1       1.0  0.9052111918500005  0.3540275371745808  0.6488211672745479  1.0000
  Zn  Zn2       1.0  0.09477258696588113  0.14597116982223923  0.1488213421003834  1.0000
  Zn  Zn3       1.0  0.09478007682336202  0.645986609110665  0.3511770432440926  1.0000
  Zn  Zn4       1.0  0.9052317470977232  0.8540158040739174  0.8511764067086105  1.0000
  H   H1        1.0  0.9654962023201894  0.953569017258751  0.3590750826280241  1.0000
  H   H2        1.0  0.034548210113136704  0.5464316302303303  0.8590808394328064  1.0000
  H   H3        1.0  0.03452814554054841  0.0464475529729143  0.6409189717850552  1.0000
  H   H4        1.0  0.9654611555954493  0.45355061503144617  0.1409159858105156  1.0000
  H   H5        1.0  0.47734521182281503  0.4394119671526725  0.5693752072003662  1.0000
  H   H6        1.0  0.5226094567571452  0.06058334288704972  0.0693679500215794  1.0000
  H   H7        1.0  0.5226146548599858  0.5605981789913204  0.4306248504762991  1.0000
  H   H8        1.0  0.47739076173343165  0.9394019135581644  0.9306242573037337  1.0000
  H   H9        1.0  0.17664148819659437  0.3633631133766358  0.4857690187683588  1.0000
  H   H10       1.0  0.823313147392618  0.13662589852868487  0.9857616467448764  1.0000
  H   H11       1.0  0.8233153059839751  0.6366396807471019  0.514235656832362  1.0000
  H   H12       1.0  0.17670327953498344  0.8633646045577877  0.0142351784791757  1.0000
  H   H13       1.0  0.563211073549681  0.07427410555165892  0.49103625757179253  1.0000
  H   H14       1.0  0.43680348792473483  0.4257284063666944  0.9910380094149004  1.0000
  H   H15       1.0  0.4367556289443969  0.925730547305996  0.5089739595149964  1.0000
  H   H16       1.0  0.5632308247373673  0.5742657670740955  0.0089722077331658  1.0000
  H   H17       1.0  0.8418536082722952  0.16013285299136024  0.5743339323876668  1.0000
  H   H18       1.0  0.15814644936595101  0.33986913933753743  0.074330794469617  1.0000
  H   H19       1.0  0.15811075453548543  0.8398814455584187  0.4256725903472399  1.0000
  H   H20       1.0  0.8418710205821114  0.6601157292256802  0.925670648675748  1.0000
  H   H21       1.0  0.7491799233209591  0.9734449443408126  0.2737420365861709  1.0000
  H   H22       1.0  0.25080811233724637  0.5265509330395021  0.7737444161712261  1.0000
  H   H23       1.0  0.2508492025561538  0.026565273886717505  0.7262584829141261  1.0000
  H   H24       1.0  0.7491693158691676  0.47343619311350693  0.22626256843510362  1.0000
  H   H25       1.0  0.41859063813038233  0.9900558883658873  0.1935629887293899  1.0000
  H   H26       1.0  0.5813708391573585  0.509940709581315  0.6935611594519315  1.0000
  H   H27       1.0  0.5814307922758603  0.009942013777603597  0.8064361454294158  1.0000
  H   H28       1.0  0.4186016560100968  0.4900640846207197  0.30644166898870395  1.0000
  H   H29       1.0  0.24542766463007848  0.2835713254194019  0.2637283754102384  1.0000
  H   H30       1.0  0.7545642478823568  0.21642723618196416  0.7637246552101614  1.0000
  H   H31       1.0  0.7545692980938626  0.7164300228109326  0.7362656790314688  1.0000
  H   H32       1.0  0.24544740103306137  0.7835696189048065  0.2362661667172006  1.0000
  H   H33       1.0  0.5787636954045327  0.2819016158911226  0.3479794524976114  1.0000
  H   H34       1.0  0.4212589649788114  0.21809787494562738  0.8479809441423285  1.0000
  H   H35       1.0  0.4212346626667627  0.7181086605159168  0.6520169108729235  1.0000
  H   H36       1.0  0.5787522047870227  0.7818836057639801  0.1520149575228942  1.0000
  C   C1        1.0  0.48987707114488893  0.3585358848702853  0.5506969317401982  1.0000
  C   C2        1.0  0.5100956793557857  0.14145452499735003  0.0506910655941653  1.0000
  C   C3        1.0  0.5100870379294309  0.6414767904056833  0.4493054348842378  1.0000
  C   C4        1.0  0.4899157441099506  0.8585285790167636  0.9493052978572577  1.0000
  C   C5        1.0  0.3208910607044119  0.31560871969686843  0.5045220710378614  1.0000
  C   C6        1.0  0.6790713233196828  0.1843830338736154  0.0045175170064482  1.0000
  C   C7        1.0  0.6790784605962018  0.6844016618726985  0.4954835281292134  1.0000
  C   C8        1.0  0.3209331376211324  0.8156047516498435  0.9954834643341214  1.0000
  C   C9        1.0  0.33873755850478915  0.20999258280190966  0.4830518804871957  1.0000
  C   C10       1.0  0.6612476404932438  0.290007732149796  0.9830490519060717  1.0000
  C   C11       1.0  0.6612359514832421  0.7900187045989712  0.5169551040509148  1.0000
  C   C12       1.0  0.3387709711232461  0.7099844412664285  0.0169565473345941  1.0000
  C   C13       1.0  0.5334515166387136  0.15426186981152776  0.5078216477885888  1.0000
  C   C14       1.0  0.46654154008732  0.34574108679461807  0.0078215448818142  1.0000
  C   C15       1.0  0.466519681921625  0.8457469355056446  0.4921885692889632  1.0000
  C   C16       1.0  0.5334779594935029  0.6542567681739443  0.9921872868774243  1.0000
  C   C17       1.0  0.6916705227326292  0.20211900825299278  0.5537632855594694  1.0000
  C   C18       1.0  0.30831937983935387  0.2978822788664104  0.053761907955618006  1.0000
  C   C19       1.0  0.3082987448806591  0.7978897500005502  0.4462432371930092  1.0000
  C   C20       1.0  0.6917009089823482  0.7021083183473137  0.9462423059185809  1.0000
  C   C21       1.0  0.1656928841191672  0.15561909464006624  0.4365196233868716  1.0000
  C   C22       1.0  0.8343190380052905  0.34437377199216723  0.9365180480110382  1.0000
  C   C23       1.0  0.8342828104235454  0.8443938632133767  0.5634813578707565  1.0000
  C   C24       1.0  0.16573217359027845  0.6556054510470448  0.0634820097944413  1.0000
  C   C25       1.0  0.8842390554776147  0.12149880570714802  0.3661708924765747  1.0000
  C   C26       1.0  0.11577814262405178  0.3785002414540842  0.8661735185778242  1.0000
  C   C27       1.0  0.11576560271299746  0.8785148586110696  0.6338240855160819  1.0000
  C   C28       1.0  0.8842507859361605  0.6214840980400993  0.1338256156218307  1.0000
  C   C29       1.0  0.6875295838327419  0.12630723006081723  0.318802158853785  1.0000
  C   C30       1.0  0.3124828919882461  0.37369251028606953  0.8188050004805446  1.0000
  C   C31       1.0  0.31248216376419446  0.8737025643715202  0.6811918955718426  1.0000
  C   C32       1.0  0.6875211884048157  0.6262928402787156  0.1811955190759846  1.0000
  C   C33       1.0  0.6410325104080102  0.04328579599886951  0.2746796642515932  1.0000
  C   C34       1.0  0.3589617857044446  0.4567142539148819  0.7746825564805632  1.0000
  C   C35       1.0  0.35898617162300195  0.9567314445464279  0.725321317014938  1.0000
  C   C36       1.0  0.6410323864589885  0.5432692378392261  0.2253216574005847  1.0000
  C   C37       1.0  0.45691676914832174  0.051763353839554306  0.2293566586764726  1.0000
  C   C38       1.0  0.5430554636144509  0.44823693141387383  0.7293588508823631  1.0000
  C   C39       1.0  0.5430902287202031  0.9482406647942271  0.7706410900870041  1.0000
  C   C40       1.0  0.45692554448560685  0.551760793376083  0.2706435157912424  1.0000
  C   C41       1.0  0.36263267607046157  0.21685487025821004  0.2684970639869206  1.0000
  C   C42       1.0  0.6373652426704199  0.2831445649986436  0.768495173703343  1.0000
  C   C43       1.0  0.6373765064072643  0.7831508187782391  0.7315006847730174  1.0000
  C   C44       1.0  0.36264074037752897  0.7168529604362919  0.2314984189626585  1.0000
  C   C45       1.0  0.5443215217904865  0.2149660926600703  0.3152469830567171  1.0000
  C   C46       1.0  0.45568484302001633  0.2850319421854053  0.8152504492115398  1.0000
  C   C47       1.0  0.45567851347762917  0.7850426075521427  0.6847470713662815  1.0000
  C   C48       1.0  0.5443220561795741  0.7149591370912846  0.1847454524252754  1.0000
  N   N1        1.0  0.6701246134424252  0.30229224400041244  0.5756943562289862  1.0000
  N   N2        1.0  0.3298543556908271  0.19771001934689994  0.0756893932840441  1.0000
  N   N3        1.0  0.32983601434427373  0.6977227720532682  0.42430754859681497  1.0000
  N   N4        1.0  0.6701658062075212  0.8022797662817284  0.9243065083627043  1.0000
  N   N5        1.0  0.3199915518789567  0.13690539495750192  0.22607071943697582  1.0000
  N   N6        1.0  0.6799955610662067  0.3630920750946984  0.7260679693456282  1.0000
  N   N7        1.0  0.68001405065899  0.86308969548422  0.7739265675598047  1.0000
  N   N8        1.0  0.3200011480039678  0.6369076497889099  0.27393070300576033  1.0000
  N   N9        1.0  0.9842873780151251  0.20156366248830448  0.4036935106218138  1.0000
  N   N10       1.0  0.015700650061063498  0.2984283729570549  0.903697403766344  1.0000
  N   N11       1.0  0.015698859025839357  0.7984552124198107  0.5963070088341027  1.0000
  N   N12       1.0  0.9843121970358057  0.701551531434909  0.09631096624843849  1.0000
  N   N13       1.0  0.0024223228906237013  0.031130452172931204  0.3774448707864622  1.0000
  N   N14       1.0  0.9976030573689344  0.46887021926035294  0.8774492338533335  1.0000
  N   N15       1.0  0.9975900589623593  0.9688834005149122  0.6225510307904614  1.0000
  N   N16       1.0  0.002418147541483513  0.5311139318526943  0.1225503621336586  1.0000
  N   N17       1.0  0.18006516702772052  0.05060382316946739  0.4219485801004693  1.0000
  N   N18       1.0  0.8199397533742783  0.44940771821517717  0.9219501085213366  1.0000
  N   N19       1.0  0.819941196626708  0.9493961371704176  0.578051939417044  1.0000
  N   N20       1.0  0.1800549966286483  0.5506040872539872  0.0780531817012857  1.0000
  Cl  Cl1       1.0  0.12880341284181904  0.2118421632795773  0.6711067338176661  1.0000
  Cl  Cl2       1.0  0.8711788398662181  0.28815612619791864  0.1711054889865409  1.0000
  Cl  Cl3       1.0  0.8712034299496099  0.7881731714489891  0.3288873205903897  1.0000
  Cl  Cl4       1.0  0.1288101737037266  0.711831282628509  0.8288885654896135  1.0000
  Cl  Cl5       1.0  0.07437768655135811  0.5237408912098687  0.6281251591124146  1.0000
  Cl  Cl6       1.0  0.925607450302053  0.976255783318834  0.128130784161165  1.0000
  Cl  Cl7       1.0  0.9256227292812796  0.47627024394567036  0.3718712042567489  1.0000
  Cl  Cl8       1.0  0.0743836210711848  0.023732484217717308  0.871867888218972  1.0000
