data_image0
_chemical_formula_structural       Cu2H28C20I6N8
_chemical_formula_sum              "Cu2 H28 C20 I6 N8"
_cell_length_a       7.099467095739899
_cell_length_b       11.297221914782009
_cell_length_c       11.405887003116758
_cell_angle_alpha    75.67242682590545
_cell_angle_beta     70.97600876152032
_cell_angle_gamma    72.56533466349558

_space_group_name_H-M_alt    "P 1"
_space_group_IT_number       1

loop_
  _space_group_symop_operation_xyz
  'x, y, z'

loop_
  _atom_site_type_symbol
  _atom_site_label
  _atom_site_symmetry_multiplicity
  _atom_site_fract_x
  _atom_site_fract_y
  _atom_site_fract_z
  _atom_site_occupancy
  Cu  Cu1       1.0  0.06925629778179136  0.5903828872849671  0.9094656369393735  1.0000
  Cu  Cu2       1.0  0.5659149665626799  0.4137013548214694  0.08659641351635373  1.0000
  H   H1        1.0  0.8634590940873892  0.8520783139620246  0.7921710505316  1.0000
  H   H2        1.0  0.5064203542962744  0.15095081471456942  0.21861160390282924  1.0000
  H   H3        1.0  0.008191706758267962  0.707674115796806  0.6480690616774397  1.0000
  H   H4        1.0  0.37626067345706815  0.2809380717884905  0.34955331003980933  1.0000
  H   H5        1.0  0.8046897328481607  0.004287459000728535  0.8302197889883517  1.0000
  H   H6        1.0  0.6339211334042222  0.99739582887706  0.18436562988414812  1.0000
  H   H7        1.0  0.1396292251998471  0.6696508569573824  0.49588323969048553  1.0000
  H   H8        1.0  0.31606574766325224  0.31533025004936377  0.5029576851944882  1.0000
  H   H9        1.0  0.6554084390254502  0.8952190681527837  0.9226039498714729  1.0000
  H   H10       1.0  0.4668251377985726  0.10080132102311265  0.09550521074053361  1.0000
  H   H11       1.0  0.973572159322039  0.5773013021069173  0.604870070450531  1.0000
  H   H12       1.0  0.16347069167154873  0.404274806547498  0.39959565130052255  1.0000
  H   H13       1.0  0.2424676399693694  0.8013198929281417  0.24806931025808154  1.0000
  H   H14       1.0  0.2979457512203183  0.20812144850125233  0.7521397586498183  1.0000
  H   H15       1.0  0.7925521477148082  0.2515500560036512  0.6990614307350003  1.0000
  H   H16       1.0  0.7577106292446202  0.7480519253824411  0.2922834835482747  1.0000
  H   H17       1.0  0.1967082489347901  0.9634360613208274  0.18151922046607183  1.0000
  H   H18       1.0  0.33871783814490186  0.04456849101930512  0.8136573475211222  1.0000
  H   H19       1.0  0.8421589593901118  0.31774427427752966  0.5368998541486719  1.0000
  H   H20       1.0  0.6971887083581051  0.6861033807007927  0.45567809916685337  1.0000
  H   H21       1.0  0.42352271302657835  0.8556995341777806  0.11188730951835885  1.0000
  H   H22       1.0  0.38989151322689963  0.14864030358117453  0.8875665480447453  1.0000
  H   H23       1.0  0.8917114574576105  0.3878204046684316  0.6441687011583925  1.0000
  H   H24       1.0  0.9262743103248425  0.6125550844100117  0.3513126503069658  1.0000
  H   H25       1.0  0.241451102477221  0.6473747732399104  0.09051670388377893  1.0000
  H   H26       1.0  0.9767424712447054  0.35829657134248527  0.9016031456597704  1.0000
  H   H27       1.0  0.47966013254195167  0.40903377601475893  0.8526991138178773  1.0000
  H   H28       1.0  0.7360546794928599  0.5986308333396054  0.14197715850005474  1.0000
  C   C1        1.0  0.8117855990797126  0.9047856171696933  0.8702409111006943  1.0000
  C   C2        1.0  0.5829722516351623  0.09562588286620856  0.14220554833799073  1.0000
  C   C3        1.0  0.08726646608883469  0.6295901623541624  0.595347060478062  1.0000
  C   C4        1.0  0.32117687882173857  0.3574692260036867  0.4047520111837244  1.0000
  C   C5        1.0  0.9529664804085983  0.8594079645606029  0.9523581428682066  1.0000
  C   C6        1.0  0.761234419744852  0.14233888430352676  0.052981785750439804  1.0000
  C   C7        1.0  0.2652030897592183  0.547329836170732  0.6406538970075034  1.0000
  C   C8        1.0  0.45699033177722015  0.4466739224998476  0.357993777966101  1.0000
  C   C9        1.0  0.017701485945139157  0.9331057693755083  0.008799071022906401  1.0000
  C   C10       1.0  0.9561935625819161  0.07009555687047686  0.9957845791672074  1.0000
  C   C11       1.0  0.4601847809001567  0.4908372838769352  0.5670325301773789  1.0000
  C   C12       1.0  0.5227054918133331  0.5038550076557656  0.43010774067214913  1.0000
  C   C13       1.0  0.14724614848142184  0.8478538599313268  0.07802188754052963  1.0000
  C   C14       1.0  0.07083912317972359  0.1570242424359164  0.9213670620999042  1.0000
  C   C15       1.0  0.5736040895085706  0.4215737391009497  0.6522645905981295  1.0000
  C   C16       1.0  0.6494659904086786  0.5785058019253667  0.3431631944724672  1.0000
  C   C17       1.0  0.25840281126632897  0.8678821496576886  0.15901159553256156  1.0000
  C   C18       1.0  0.28515628200364057  0.13888573091343648  0.8393482209317827  1.0000
  C   C19       1.0  0.7858407138996311  0.340522550320564  0.6323126997107382  1.0000
  C   C20       1.0  0.7634357295587932  0.660670804923434  0.3612891411912998  1.0000
  I   I1        1.0  0.18876489635140817  0.40778928990241775  0.09220651939584462  1.0000
  I   I2        1.0  0.6923948320851422  0.5961828085731894  0.904100285368536  1.0000
  I   I3        1.0  0.9757668862672729  0.21248618406873718  0.28767620807848726  1.0000
  I   I4        1.0  0.48622376277337764  0.800261675142714  0.6997799695495744  1.0000
  I   I5        1.0  0.7633510916835108  0.03588032433257366  0.4645269052642577  1.0000
  I   I6        1.0  0.2158247451054504  0.9451880823562249  0.5545218079521562  1.0000
  N   N1        1.0  0.03980088195266504  0.736584185100682  0.9835142367707878  1.0000
  N   N2        1.0  0.7568222944667156  0.26582505192500594  0.0165107005531269  1.0000
  N   N3        1.0  0.26026704275820867  0.516137080735966  0.7634452943183447  1.0000
  N   N4        1.0  0.539134541186712  0.4833862906820626  0.23452577516390966  1.0000
  N   N5        1.0  0.15486349768707433  0.7323752832909064  0.05998731502323552  1.0000
  N   N6        1.0  0.9448522719802528  0.2719658632782325  0.9366432600627449  1.0000
  N   N7        1.0  0.4475947697322767  0.43959685573429386  0.7677099033105961  1.0000
  N   N8        1.0  0.6533363486557847  0.5633630892859144  0.22831635028449437  1.0000
