data_image0
_chemical_formula_structural       Cd4H16C16N24Cl8
_chemical_formula_sum              "Cd4 H16 C16 N24 Cl8"
_cell_length_a       6.493011643332607
_cell_length_b       11.195064189393939
_cell_length_c       13.766621849788695
_cell_angle_alpha    106.50845082147816
_cell_angle_beta     89.99903306245783
_cell_angle_gamma    106.87495869769212

_space_group_name_H-M_alt    "P 1"
_space_group_IT_number       1

loop_
  _space_group_symop_operation_xyz
  'x, y, z'

loop_
  _atom_site_type_symbol
  _atom_site_label
  _atom_site_symmetry_multiplicity
  _atom_site_fract_x
  _atom_site_fract_y
  _atom_site_fract_z
  _atom_site_occupancy
  Cd  Cd1       1.0  0.3343624075803362  0.9999127769525701  0.10561243567362769  1.0000
  Cd  Cd2       1.0  0.334488983468475  0.00031360623295030045  0.394396117219685  1.0000
  Cd  Cd3       1.0  0.6656407972811421  8.674775418880164e-05  0.894387522919274  1.0000
  Cd  Cd4       1.0  0.6655095988951414  0.9996859142115754  0.6056045667950585  1.0000
  H   H1        1.0  0.8456781954783992  0.7213688701076324  0.029662332136936725  1.0000
  H   H2        1.0  0.12460088561838492  0.2790525402547744  0.4702816546084562  1.0000
  H   H3        1.0  0.1543249361883099  0.2786335870253823  0.9703383125353965  1.0000
  H   H4        1.0  0.8754033704378019  0.7209460070795759  0.5297180753111946  1.0000
  H   H5        1.0  0.8146549765707716  0.7520957258026043  0.34471792828087183  1.0000
  H   H6        1.0  0.06237552564059707  0.24786568918708698  0.1551231771241319  1.0000
  H   H7        1.0  0.1853481493545175  0.24790671993442007  0.6552848929255433  1.0000
  H   H8        1.0  0.9376220074421082  0.7521348124285084  0.8448770100524926  1.0000
  H   H9        1.0  0.37262890270665844  0.7546484314231918  0.19504731575982956  1.0000
  H   H10       1.0  0.6179110302135127  0.24547555774698546  0.3048931048220069  1.0000
  H   H11       1.0  0.6273712275068702  0.24535110437051347  0.8049504662393047  1.0000
  H   H12       1.0  0.3820877061948664  0.7545181130396729  0.6951033049884288  1.0000
  H   H13       1.0  0.6136200390324048  0.4289131927402466  0.10823017955384982  1.0000
  H   H14       1.0  0.18496131902404028  0.5711402140155428  0.3916022612020384  1.0000
  H   H15       1.0  0.38638308880668865  0.5710892567954461  0.8917719161412022  1.0000
  H   H16       1.0  0.8150280857971949  0.42885635408227785  0.6084013641110458  1.0000
  C   C1        1.0  0.8912169979437933  0.7536103948508456  0.11127939201046648  1.0000
  C   C2        1.0  0.13785974411216984  0.24672600902151495  0.38864446540858927  1.0000
  C   C3        1.0  0.10878319206786102  0.24638618192595643  0.88872278248877  1.0000
  C   C4        1.0  0.8621435435131133  0.7532706022523004  0.6113511795480734  1.0000
  C   C5        1.0  0.8747066063279901  0.7683751966076217  0.274614538671706  1.0000
  C   C6        1.0  0.10612766872376506  0.2316844612965667  0.2252767297462981  1.0000
  C   C7        1.0  0.12529287701318026  0.2316292037196916  0.7253887398513755  1.0000
  C   C8        1.0  0.8938718935536019  0.7683170180004809  0.774723686163263  1.0000
  C   C9        1.0  0.37158868710837123  0.6535102772267012  0.16846460965574292  1.0000
  C   C10       1.0  0.7181304035058246  0.3465925956438626  0.331429785646435  1.0000
  C   C11       1.0  0.6284155746892351  0.3464882815036462  0.831532943729826  1.0000
  C   C12       1.0  0.2818636372099164  0.6534040033068251  0.6685680356652666  1.0000
  C   C13       1.0  0.500820865191848  0.48588349002759673  0.12351650308949048  1.0000
  C   C14       1.0  0.015150093806994454  0.5142276157115975  0.3763240576444957  1.0000
  C   C15       1.0  0.4991858377780075  0.5141199487400598  0.8764836448342521  1.0000
  C   C16       1.0  0.9848433751449761  0.48577091914511084  0.6236778486003587  1.0000
  N   N1        1.0  0.07056380210480036  0.8383199056121599  0.16147025203364515  1.0000
  N   N2        1.0  0.23252702225947525  0.16205499649711902  0.3384844740825058  1.0000
  N   N3        1.0  0.9294419171236965  0.16168156670564574  0.8385316150179988  1.0000
  N   N4        1.0  0.7674751409763159  0.8379455245753676  0.661512085626832  1.0000
  N   N5        1.0  0.06035529668445611  0.8475494124970454  0.2634094273221947  1.0000
  N   N6        1.0  0.21277202605792667  0.15265820262919763  0.23651863143008708  1.0000
  N   N7        1.0  0.9396452416790522  0.1524540180551952  0.7365921715049025  1.0000
  N   N8        1.0  0.7872264926799485  0.8473442692349095  0.7634791111072728  1.0000
  N   N9        1.0  0.7651694031721804  0.7064289954874995  0.18016628542663682  1.0000
  N   N10       1.0  0.058792691447955334  0.29373137302582114  0.3197244908115948  1.0000
  N   N11       1.0  0.23483225958080567  0.2935705252660696  0.8198343986477923  1.0000
  N   N12       1.0  0.9412089751326462  0.706268155325077  0.6802747422401011  1.0000
  N   N13       1.0  0.20639126222882706  0.5468474076801826  0.1402464102713026  1.0000
  N   N14       1.0  0.6597073864819052  0.4532492750527695  0.35971864038759077  1.0000
  N   N15       1.0  0.793609353157059  0.45315309804312426  0.8597530514536443  1.0000
  N   N16       1.0  0.3402872145147741  0.5467453651999251  0.6402794490591363  1.0000
  N   N17       1.0  0.28869417040220907  0.4408010342338997  0.1113680353566835  1.0000
  N   N18       1.0  0.8481022147576665  0.5592967337700826  0.3885351422716923  1.0000
  N   N19       1.0  0.7113065239198663  0.5591965504591345  0.8886285637547502  1.0000
  N   N20       1.0  0.1518893020220347  0.44069789857623937  0.6114643981380824  1.0000
  N   N21       1.0  0.5598985145451606  0.6199912784859337  0.15924583198597023  1.0000
  N   N22       1.0  0.9399913145509725  0.3801372537910126  0.3406245561591277  1.0000
  N   N23       1.0  0.4401051793162906  0.38000922374774865  0.8407543553100183  1.0000
  N   N24       1.0  0.06000467833705162  0.6198632476700682  0.659375630987668  1.0000
  Cl  Cl1       1.0  0.9999985842774206  0.9999995242431937  0.9999999585033804  1.0000
  Cl  Cl2       1.0  0.9999989365181888  4.69246580080087e-06  0.4999985286630276  1.0000
  Cl  Cl3       1.0  0.6024659704484064  7.967851350800017e-05  0.2499987773045333  1.0000
  Cl  Cl4       1.0  0.3975351281960328  0.9999217933407324  0.7500030896575894  1.0000
  Cl  Cl5       1.0  0.39888042312001903  0.8146198000346061  0.9533354819972218  1.0000
  Cl  Cl6       1.0  0.5842994975448406  0.1852894632571279  0.5467902365851529  1.0000
  Cl  Cl7       1.0  0.6011161300489362  0.1853787427284743  0.04666497328459231  1.0000
  Cl  Cl8       1.0  0.4157011197548499  0.81471104626484  0.4532084996284311  1.0000
