data_image0
_chemical_formula_structural       Zn4H32C60S8N4O16
_chemical_formula_sum              "Zn4 H32 C60 S8 N4 O16"
_cell_length_a       13.930123797673213
_cell_length_b       14.188349778124316
_cell_length_c       14.188343079556642
_cell_angle_alpha    103.7033102847515
_cell_angle_beta     105.81140210532911
_cell_angle_gamma    105.81160393573028

_space_group_name_H-M_alt    "P 1"
_space_group_IT_number       1

loop_
  _space_group_symop_operation_xyz
  'x, y, z'

loop_
  _atom_site_type_symbol
  _atom_site_label
  _atom_site_symmetry_multiplicity
  _atom_site_fract_x
  _atom_site_fract_y
  _atom_site_fract_z
  _atom_site_occupancy
  Zn  Zn1       1.0  0.3613174897216707  0.37528922533733305  0.6623259004258628  1.0000
  Zn  Zn2       1.0  0.1386827875279764  0.3376745710712896  0.6247128656995785  1.0000
  Zn  Zn3       1.0  0.6386828979872803  0.6247121802585622  0.3376734018800605  1.0000
  Zn  Zn4       1.0  0.8613173176602658  0.6623260630172964  0.37528759068629824  1.0000
  H   H1        1.0  0.6537349221644675  0.4020740174042601  0.5075286546942622  1.0000
  H   H2        1.0  0.8462650269892221  0.49247078763523416  0.5979259398924698  1.0000
  H   H3        1.0  0.34626536276626024  0.5979250684554385  0.49247219364411177  1.0000
  H   H4        1.0  0.15373376174816392  0.5075282868221079  0.40207380032902057  1.0000
  H   H5        1.0  0.4844812276743795  0.41334492321853833  0.0222784703863326  1.0000
  H   H6        1.0  0.015519894082224529  0.9777219407183324  0.5866541388049316  1.0000
  H   H7        1.0  0.515521014766378  0.5866533942032532  0.9777220181512407  1.0000
  H   H8        1.0  0.9844807827729555  0.0222802582157584  0.41334894995273447  1.0000
  H   H9        1.0  0.48211572776406797  0.4114579953269554  0.5243919311298699  1.0000
  H   H10       1.0  0.01788460855680543  0.47560834064708507  0.5885418599675064  1.0000
  H   H11       1.0  0.5178842718064373  0.5885403096693409  0.47560795391773075  1.0000
  H   H12       1.0  0.9821144645942965  0.5243915115549668  0.4114581377545152  1.0000
  H   H13       1.0  0.4791644217512854  0.7374600817116317  0.708083879112863  1.0000
  H   H14       1.0  0.020834235913618205  0.2919154630649174  0.2625400306848249  1.0000
  H   H15       1.0  0.5208339037763992  0.2625397663485884  0.29191591744582723  1.0000
  H   H16       1.0  0.9791658683281169  0.7080851679049684  0.7374597199108096  1.0000
  H   H17       1.0  0.44160248225585963  0.9072582360626312  0.6941286321375415  1.0000
  H   H18       1.0  0.05839795746617677  0.30587018586651027  0.09274226108664857  1.0000
  H   H19       1.0  0.5583976229323825  0.09274239802596182  0.3058718242483352  1.0000
  H   H20       1.0  0.9416020411578289  0.6941281160110931  0.9072569181707026  1.0000
  H   H21       1.0  0.7172764762589737  0.3239833256354814  0.7895820097793093  1.0000
  H   H22       1.0  0.7827221735255705  0.21041639585559577  0.676014686790346  1.0000
  H   H23       1.0  0.2827227756881143  0.6760149752189832  0.21041767410496706  1.0000
  H   H24       1.0  0.21727810951215082  0.7895826837667101  0.3239847499675507  1.0000
  H   H25       1.0  0.44728286792872035  0.3901111808711234  0.18834086618557674  1.0000
  H   H26       1.0  0.052718306059667  0.8116593372455796  0.609887262792789  1.0000
  H   H27       1.0  0.5527178792652023  0.6098871282670045  0.811659220025348  1.0000
  H   H28       1.0  0.9472820835422909  0.18834207458771599  0.39011345109362605  1.0000
  H   H29       1.0  0.5438140305772237  0.3403494488428791  0.7957734085913517  1.0000
  H   H30       1.0  0.9561855245787854  0.20422631868232344  0.6596505875531096  1.0000
  H   H31       1.0  0.4561860727180047  0.659651179008314  0.2042256362140478  1.0000
  H   H32       1.0  0.043815041926151724  0.795773535565992  0.34034840091507595  1.0000
  C   C1        1.0  0.31032849742947377  0.6644137802329622  0.6795343082607275  1.0000
  C   C2        1.0  0.1896702921316802  0.320464220267823  0.33558603885877863  1.0000
  C   C3        1.0  0.6896705757216282  0.33558607196908957  0.3204656894612939  1.0000
  C   C4        1.0  0.8103295286428464  0.6795356360760605  0.664414160026567  1.0000
  C   C5        1.0  0.30087118024465553  0.3789271184227233  0.8406907165662648  1.0000
  C   C6        1.0  0.1991297808893222  0.1593103822634987  0.6210739152897065  1.0000
  C   C7        1.0  0.6991308824536161  0.6210727472279486  0.15930938001880435  1.0000
  C   C8        1.0  0.800869862035718  0.8406910285466649  0.3789273032236267  1.0000
  C   C9        1.0  0.6994800319483687  0.3610095288985705  0.6470536021233502  1.0000
  C   C10       1.0  0.8005185734341463  0.35294512684513524  0.6389890238371124  1.0000
  C   C11       1.0  0.30051921999871906  0.6389887719559012  0.3529460817609262  1.0000
  C   C12       1.0  0.19948096292665696  0.6470539517540388  0.361010917547695  1.0000
  C   C13       1.0  0.2963661772254582  0.5560315166725758  0.6725254905846045  1.0000
  C   C14       1.0  0.20363173178228064  0.32747528715417923  0.4439686664342376  1.0000
  C   C15       1.0  0.7036324346089484  0.4439691153697466  0.3274759750551083  1.0000
  C   C16       1.0  0.7963688366156559  0.672524573331529  0.5560317336144325  1.0000
  C   C17       1.0  0.27666606843384756  0.35146007920951655  0.10228225861632717  1.0000
  C   C18       1.0  0.22333507194708344  0.89771906353085  0.648539322413079  1.0000
  C   C19       1.0  0.7233346778135753  0.6485382268099114  0.8977171218043482  1.0000
  C   C20       1.0  0.7766656020685828  0.1022831260471548  0.3514616489738672  1.0000
  C   C21       1.0  0.3137773056436117  0.3748891185522466  0.9460644051855102  1.0000
  C   C22       1.0  0.1862237534038798  0.0539363953808376  0.6251105238724508  1.0000
  C   C23       1.0  0.6862252202643617  0.6251099734955545  0.05393563506235204  1.0000
  C   C24       1.0  0.8137751428442497  0.9460650144061872  0.37489119926779324  1.0000
  C   C25       1.0  0.2738432066995601  0.8240184738729183  0.6658228509813284  1.0000
  C   C26       1.0  0.22615646079314186  0.33417545102795987  0.17598196880683054  1.0000
  C   C27       1.0  0.7261564343324736  0.17598293069985257  0.33417695595151303  1.0000
  C   C28       1.0  0.7738435378308566  0.6658228508496435  0.8240172104505279  1.0000
  C   C29       1.0  0.6330549038230799  0.3879700232986281  0.5729055319671517  1.0000
  C   C30       1.0  0.8669440164243198  0.4270933731487148  0.6120289694903536  1.0000
  C   C31       1.0  0.3669443481240151  0.6120282775558366  0.42709415191712463  1.0000
  C   C32       1.0  0.13305551993648376  0.5729057054504594  0.38797097189445406  1.0000
  C   C33       1.0  0.4053454292667951  0.39132795341713933  0.027165857504584747  1.0000
  C   C34       1.0  0.09465574189024295  0.9728344264648994  0.6086711618685642  1.0000
  C   C35       1.0  0.5946565278137469  0.6086695831412497  0.972833667742208  1.0000
  C   C36       1.0  0.9053446486582147  0.027166988487088897  0.39133025780808606  1.0000
  C   C37       1.0  0.5379292023968887  0.3938468355000708  0.5817537028609083  1.0000
  C   C38       1.0  0.962070250630447  0.41824605533119547  0.6061533419285114  1.0000
  C   C39       1.0  0.46207033301741507  0.6061522399804034  0.418245532733657  1.0000
  C   C40       1.0  0.037928538106946456  0.5817530191261467  0.393846398292972  1.0000
  C   C41       1.0  0.4013343588871834  0.7452441530650873  0.6940398981094307  1.0000
  C   C42       1.0  0.09866439714115667  0.3059586664003362  0.25475594726712814  1.0000
  C   C43       1.0  0.5986649986776413  0.254756476881667  0.30596035711312203  1.0000
  C   C44       1.0  0.9013361703102801  0.6940411909666793  0.7452437469912997  1.0000
  C   C45       1.0  0.3809957790781481  0.835624024071606  0.6864222012911086  1.0000
  C   C46       1.0  0.11900387731476769  0.313576524574536  0.16437658511547676  1.0000
  C   C47       1.0  0.6190038629003921  0.1643773836198577  0.3135783114319822  1.0000
  C   C48       1.0  0.8809961213092379  0.6864217773030671  0.8356225941418814  1.0000
  C   C49       1.0  0.6673019794907874  0.3429388708947341  0.7287209637128955  1.0000
  C   C50       1.0  0.832697505705276  0.27127806405851357  0.6570603478975343  1.0000
  C   C51       1.0  0.332697841283739  0.6570609854491494  0.27127923517244323  1.0000
  C   C52       1.0  0.16730277733244478  0.7287210155637919  0.34293908886036206  1.0000
  C   C53       1.0  0.3847777772515784  0.3784076783906585  0.11609062478891026  1.0000
  C   C54       1.0  0.11522314486551007  0.8839102852840027  0.6215915046606854  1.0000
  C   C55       1.0  0.6152234331520462  0.6215898571445918  0.8839094050848078  1.0000
  C   C56       1.0  0.8847772466294543  0.1160911327866785  0.37841062080620713  1.0000
  C   C57       1.0  0.5717666716561141  0.3521722634032399  0.7332294720698516  1.0000
  C   C58       1.0  0.9282331794324745  0.26677064472868744  0.6478278990812145  1.0000
  C   C59       1.0  0.4282337169993369  0.6478291453113555  0.26677053602632134  1.0000
  C   C60       1.0  0.0717673880189622  0.7332292126383279  0.35217179517721325  1.0000
  S   S1        1.0  0.20172850102696316  0.34314133513740325  0.9792176459066371  1.0000
  S   S2        1.0  0.298272673711395  0.0207844158635879  0.6568591000130511  1.0000
  S   S3        1.0  0.7982725296341755  0.6568577486267344  0.020781992014583795  1.0000
  S   S4        1.0  0.7017275370945769  0.979218547317288  0.343141927711102  1.0000
  S   S5        1.0  0.19998877620709968  0.7011185433714855  0.6585831996644061  1.0000
  S   S6        1.0  0.3000105825189295  0.3414166812529516  0.29888310951997715  1.0000
  S   S7        1.0  0.8000104025617389  0.2988836379228488  0.34141736939589157  1.0000
  S   S8        1.0  0.6999897005187847  0.6585823983693542  0.7011163272379122  1.0000
  N   N1        1.0  0.5078724417764348  0.3764102183859421  0.6604021492682294  1.0000
  N   N2        1.0  0.9921274832930465  0.33959865945456597  0.6235909399196163  1.0000
  N   N3        1.0  0.49212691578838264  0.6235904115608123  0.3395981059543233  1.0000
  N   N4        1.0  0.007872337481480007  0.6604011968893176  0.3764092589657225  1.0000
  O   O1        1.0  0.3839844202030989  0.3970972587785864  0.8160176032008553  1.0000
  O   O2        1.0  0.11601568685274088  0.1839826829483258  0.602903504815366  1.0000
  O   O3        1.0  0.6160161472483381  0.6029025985884217  0.18398209105756533  1.0000
  O   O4        1.0  0.8839839551257924  0.816018724743138  0.39709700790772473  1.0000
  O   O5        1.0  0.3784294166979976  0.5299540652293472  0.6839606714102686  1.0000
  O   O6        1.0  0.12156644156328161  0.316036805653262  0.47004370733313294  1.0000
  O   O7        1.0  0.6215665584487055  0.470043435075695  0.31603653873969517  1.0000
  O   O8        1.0  0.8784329160015361  0.6839638242934923  0.5299565478894267  1.0000
  O   O9        1.0  0.20619258921649927  0.3630348298095639  0.782374977057394  1.0000
  O   O10       1.0  0.29380806981608737  0.21762671350859358  0.6369653495618055  1.0000
  O   O11       1.0  0.7938076947677289  0.636964252931442  0.21762516549073752  1.0000
  O   O12       1.0  0.7061915712159461  0.7823746910641771  0.3630344573710431  1.0000
  O   O13       1.0  0.20107524328488316  0.4960106037809736  0.6524223501126017  1.0000
  O   O14       1.0  0.2989222696770568  0.347579501258501  0.5039906574030227  1.0000
  O   O15       1.0  0.7989221586629114  0.5039908008410875  0.3475796764912431  1.0000
  O   O16       1.0  0.7010778345646783  0.6524211297113921  0.496009093192612  1.0000
