data_image0
_chemical_formula_structural       Sr2H12C8N16O18
_chemical_formula_sum              "Sr2 H12 C8 N16 O18"
_cell_length_a       6.610413754118067
_cell_length_b       7.0049450786284435
_cell_length_c       14.807464084863604
_cell_angle_alpha    78.8909715337026
_cell_angle_beta     77.13291083986523
_cell_angle_gamma    61.83864045822459

_space_group_name_H-M_alt    "P 1"
_space_group_IT_number       1

loop_
  _space_group_symop_operation_xyz
  'x, y, z'

loop_
  _atom_site_type_symbol
  _atom_site_label
  _atom_site_symmetry_multiplicity
  _atom_site_fract_x
  _atom_site_fract_y
  _atom_site_fract_z
  _atom_site_occupancy
  Sr  Sr1       1.0  0.5648330665167192  0.7500839197817014  0.24995488116397271  1.0000
  Sr  Sr2       1.0  0.435166118752299  0.24991591842326238  0.750045052155599  1.0000
  H   H1        1.0  0.12628180798322575  0.847764633074192  0.39942245284116507  1.0000
  H   H2        1.0  0.37299551068240777  0.6523199668284576  0.10055440454610934  1.0000
  H   H3        1.0  0.8737159204651443  0.152236832268585  0.6005780846315504  1.0000
  H   H4        1.0  0.6270015002318913  0.34768149938899023  0.8994453015455761  1.0000
  H   H5        1.0  0.9725048287495213  0.8265299333421438  0.28843590396733293  1.0000
  H   H6        1.0  0.08726314942922647  0.673685714357589  0.21155798828932154  1.0000
  H   H7        1.0  0.027493577863402938  0.17347153258076273  0.7115639586664743  1.0000
  H   H8        1.0  0.912733183320526  0.3263157512797292  0.7884423926412722  1.0000
  H   H9        1.0  0.025138497581892145  0.0768873144719464  0.3393842986703817  1.0000
  H   H10       1.0  0.4410858722277736  0.42320236168418995  0.1605982117406626  1.0000
  H   H11       1.0  0.9748599090310248  0.9231141514509601  0.6606155639634254  1.0000
  H   H12       1.0  0.5589139912058056  0.5767974771009036  0.8394010467400009  1.0000
  C   C1        1.0  0.8426299724087583  0.8217548044107588  0.9814643257464652  1.0000
  C   C2        1.0  0.6458222370102858  0.6782509925089781  0.5185692776660246  1.0000
  C   C3        1.0  0.15737356156971316  0.1782417777692515  0.018536062028871914  1.0000
  C   C4        1.0  0.35418025620695187  0.3217521008283626  0.48143030906948775  1.0000
  C   C5        1.0  0.9814674580562581  0.5943865361871586  0.9666614172728103  1.0000
  C   C6        1.0  0.542541033286248  0.9056074742302656  0.5333578016286111  1.0000
  C   C7        1.0  0.0185323442552914  0.4056149294411995  0.03333860190312521  1.0000
  C   C8        1.0  0.4574671038475131  0.09439399108564571  0.46664165058012946  1.0000
  N   N1        1.0  0.08012245811112004  0.5799337476594245  0.878835162120481  1.0000
  N   N2        1.0  0.5390356421618986  0.9201030188397324  0.621178072767222  1.0000
  N   N3        1.0  0.9198803977027906  0.420062833940463  0.12116590049377161  1.0000
  N   N4        1.0  0.46097109927324453  0.07989844677071288  0.37882122289938985  1.0000
  N   N5        1.0  0.8609574956519659  0.9402797097455957  0.901356670007104  1.0000
  N   N6        1.0  0.7027728655022187  0.559736233914826  0.5986794539031948  1.0000
  N   N7        1.0  0.13904324692925482  0.05971687302349689  0.09864340468398321  1.0000
  N   N8        1.0  0.29722129289280025  0.4402668597349688  0.40132069979950563  1.0000
  N   N9        1.0  0.7122597785157724  0.8871443489311515  0.06569075085232617  1.0000
  N   N10       1.0  0.6649820495296196  0.6129148868765526  0.4343186134568669  1.0000
  N   N11       1.0  0.2877422592725339  0.11285386184146522  0.9343087348562163  1.0000
  N   N12       1.0  0.33501697412582837  0.3870882064697482  0.5656813350333039  1.0000
  N   N13       1.0  0.6261762930802134  0.09410433509603422  0.07847622218750426  1.0000
  N   N14       1.0  0.7986619548789731  0.4059826326089818  0.4214981108946816  1.0000
  N   N15       1.0  0.37382367084490625  0.905893875390994  0.9215237818178252  1.0000
  N   N16       1.0  0.20133645173395107  0.5940188333139246  0.5785017517391253  1.0000
  O   O1        1.0  0.008424479979126128  0.7906006598111616  0.8383501377153592  1.0000
  O   O2        1.0  0.6376220199440965  0.7094479667403275  0.6616822104820487  1.0000
  O   O3        1.0  0.9915762626020947  0.2093959229579312  0.16164993697572785  1.0000
  O   O4        1.0  0.3623757085042739  0.29055349860244917  0.3383183269906667  1.0000
  O   O5        1.0  0.6558371216324802  0.23831948908696177  0.02009824206626835  1.0000
  O   O6        1.0  0.9143099924268085  0.2617183414060236  0.4798663015343437  1.0000
  O   O7        1.0  0.34416206363654606  0.761680349118002  0.9799016912533034  1.0000
  O   O8        1.0  0.0856891928422102  0.7382814967989473  0.520133631785221  1.0000
  O   O9        1.0  0.5056393208346391  0.14373061747536298  0.15890129815544907  1.0000
  O   O10       1.0  0.8080153158990272  0.3564736236026817  0.3410431625838798  1.0000
  O   O11       1.0  0.49436126013300435  0.8562692204350596  0.8410987917062442  1.0000
  O   O12       1.0  0.19198091635917075  0.6435294703327016  0.658956472822041  1.0000
  O   O13       1.0  0.934642954287696  0.7501955421360478  0.24997713410619582  1.0000
  O   O14       1.0  0.06535545232522108  0.24980592378685879  0.7500227285276182  1.0000
  O   O15       1.0  0.12963114921000615  0.9193788533087142  0.3353412231122874  1.0000
  O   O16       1.0  0.3838396568435838  0.5807433335382938  0.16464883399768843  1.0000
  O   O17       1.0  0.87036803605902  0.0806209848962567  0.6646587102072772  1.0000
  O   O18       1.0  0.6161594279338941  0.4192581329647353  0.8353503537972103  1.0000
