data_image0
_chemical_formula_structural       Mn2H36C58N8O12
_chemical_formula_sum              "Mn2 H36 C58 N8 O12"
_cell_length_a       8.657560023638675
_cell_length_b       10.429206777463111
_cell_length_c       17.902467004630964
_cell_angle_alpha    75.15426012444786
_cell_angle_beta     88.86608330659433
_cell_angle_gamma    70.37649122809019

_space_group_name_H-M_alt    "P 1"
_space_group_IT_number       1

loop_
  _space_group_symop_operation_xyz
  'x, y, z'

loop_
  _atom_site_type_symbol
  _atom_site_label
  _atom_site_symmetry_multiplicity
  _atom_site_fract_x
  _atom_site_fract_y
  _atom_site_fract_z
  _atom_site_occupancy
  Mn  Mn1       1.0  0.7282227718440736  0.8247402746018864  0.8228635607549821  1.0000
  Mn  Mn2       1.0  0.2717760316837996  0.1752522139111719  0.17714207214966393  1.0000
  H   H1        1.0  0.3644483531665656  0.9552351324515345  0.7444662328997612  1.0000
  H   H2        1.0  0.6355581777726086  0.044769944680716406  0.2555356716246991  1.0000
  H   H3        1.0  0.0763434237107177  0.04248852892921211  0.7838388173010247  1.0000
  H   H4        1.0  0.9236619848753447  0.9575164471161488  0.21615920385308846  1.0000
  H   H5        1.0  0.0319284124004682  0.018405351501058896  0.9243679922263583  1.0000
  H   H6        1.0  0.9680700868075576  0.9816112572934089  0.07562883159379649  1.0000
  H   H7        1.0  0.2767040215741616  0.907799169797663  0.02138980504280846  1.0000
  H   H8        1.0  0.7232855028832573  0.09220800231682351  0.9786097064776418  1.0000
  H   H9        1.0  0.49174325863560137  0.7915297277873847  0.09405716665047242  1.0000
  H   H10       1.0  0.5082577622134323  0.2084659182693827  0.9059479486499457  1.0000
  H   H11       1.0  0.5383945761643502  0.8410126925008398  0.19565077290746305  1.0000
  H   H12       1.0  0.4616160677165482  0.15899659159692453  0.8043504303859808  1.0000
  H   H13       1.0  0.5502986792266213  0.78946303539648  0.33927921718593984  1.0000
  H   H14       1.0  0.4497177126387514  0.21053463392776453  0.6607237508852679  1.0000
  H   H15       1.0  0.9861080364427866  0.45342716911581954  0.36201189985809634  1.0000
  H   H16       1.0  0.013904416267607194  0.5465628913887173  0.6379833632359821  1.0000
  H   H17       1.0  0.9927331470306128  0.4913133084134457  0.21905574312093995  1.0000
  H   H18       1.0  0.007268418528987365  0.5086925985722883  0.7809371427006513  1.0000
  H   H19       1.0  0.022427592193274466  0.6185569754703549  0.10107323685775074  1.0000
  H   H20       1.0  0.9775737087537802  0.38145548221601905  0.898927003400047  1.0000
  H   H21       1.0  0.22625507187726873  0.5786903980879003  0.03245197203103342  1.0000
  H   H22       1.0  0.7737480090416184  0.4213146287914284  0.9675477403624558  1.0000
  H   H23       1.0  0.4486358480671555  0.5506060828734362  0.9393765336692614  1.0000
  H   H24       1.0  0.5513649446476522  0.4494105792667184  0.06062249337390572  1.0000
  H   H25       1.0  0.3717693745711089  0.6315905778088223  0.797724078697378  1.0000
  H   H26       1.0  0.6282238507242967  0.36843354548503987  0.20227608802203892  1.0000
  H   H27       1.0  0.07235647005559546  0.743880601525234  0.751929200253777  1.0000
  H   H28       1.0  0.9276387018003971  0.256118134427794  0.24807213697604175  1.0000
  H   H29       1.0  0.7600289213561242  0.19482405099964947  0.6343408370596324  1.0000
  H   H30       1.0  0.23997154923542038  0.8051787995292656  0.365656449736534  1.0000
  H   H31       1.0  0.6973353333120825  0.6235356670851429  0.6309652199229704  1.0000
  H   H32       1.0  0.3026311663411859  0.37646837338987643  0.36903389615481075  1.0000
  H   H33       1.0  0.7255499695561908  0.3176046993706265  0.8481847864805023  1.0000
  H   H34       1.0  0.2744364877043353  0.6823897675739161  0.15181451458962414  1.0000
  H   H35       1.0  0.7626916046407003  0.5852264608652292  0.44704383357679944  1.0000
  H   H36       1.0  0.23734466334357762  0.4147530505200407  0.5529550807868377  1.0000
  C   C1        1.0  0.3393404685229555  0.9462101222715162  0.8052676329862792  1.0000
  C   C2        1.0  0.6606610136530334  0.053784334232638294  0.19473263659093484  1.0000
  C   C3        1.0  0.17947389156692137  0.9944114107690466  0.8275137861307089  1.0000
  C   C4        1.0  0.8205276300721706  0.005594630161965601  0.17248410685679266  1.0000
  C   C5        1.0  0.15631505306615892  0.9808972479370013  0.9060652808405509  1.0000
  C   C6        1.0  0.8436816311643299  0.019103488865503896  0.09393181685740613  1.0000
  C   C7        1.0  0.29253846651096893  0.9180186371217541  0.959773714775395  1.0000
  C   C8        1.0  0.707454935133306  0.08198749987269591  0.0402270376152032  1.0000
  C   C9        1.0  0.44925545597124034  0.8708498543879344  0.9330061994728143  1.0000
  C   C10       1.0  0.5507388611289626  0.12913934882167413  0.06699496605421731  1.0000
  C   C11       1.0  0.6023233121940876  0.8000470285901855  0.984619582240555  1.0000
  C   C12       1.0  0.3976743592205594  0.19994538860159847  0.015383279997287511  1.0000
  C   C13       1.0  0.6061257064883634  0.7664833669890783  0.0653469368066055  1.0000
  C   C14       1.0  0.39387250774157684  0.23351644505859778  0.9346553184079411  1.0000
  C   C15       1.0  0.7582515395847055  0.7007007698136148  0.10902817516672776  1.0000
  C   C16       1.0  0.24175321095997765  0.29930003463634597  0.8909721829975938  1.0000
  C   C17       1.0  0.7642701679772796  0.6701542267604523  0.19438767521702258  1.0000
  C   C18       1.0  0.23573167536241607  0.3298539222924788  0.8056098837930323  1.0000
  C   C19       1.0  0.6390517981654967  0.753022174941748  0.2302248198434925  1.0000
  C   C20       1.0  0.3609551453000749  0.24698186146596862  0.7697778024754387  1.0000
  C   C21       1.0  0.6463412854886599  0.7253964262015344  0.3104420046156094  1.0000
  C   C22       1.0  0.3536709172493673  0.27460014035521146  0.6895589438593676  1.0000
  C   C23       1.0  0.8895086909281814  0.5389130412397166  0.32276190134361127  1.0000
  C   C24       1.0  0.11050511501013456  0.4610823773200679  0.6772358593714289  1.0000
  C   C25       1.0  0.8925040256587734  0.560846676062134  0.24278457500740572  1.0000
  C   C26       1.0  0.10750779871325017  0.4391508270394838  0.7572117612107123  1.0000
  C   C27       1.0  0.9019927173420751  0.669002748253746  0.06936197218406195  1.0000
  C   C28       1.0  0.09801002723603602  0.3310002151521018  0.9306397432421821  1.0000
  C   C29       1.0  0.8891730263860964  0.7045533297245896  0.9883092377300075  1.0000
  C   C30       1.0  0.11082804814354572  0.2954421526212911  0.011689757700956701  1.0000
  C   C31       1.0  0.03157083603396418  0.6784562825538032  0.9398860976441555  1.0000
  C   C32       1.0  0.9684297869288442  0.3215403595790746  0.06011663080648334  1.0000
  C   C33       1.0  0.19534424224687547  0.6155687538069542  0.970042255612555  1.0000
  C   C34       1.0  0.8046569332913336  0.3844352534161929  0.029958753111252196  1.0000
  C   C35       1.0  0.3193624693514819  0.5980344868009908  0.9186778697126604  1.0000
  C   C36       1.0  0.6806373533814636  0.40197586585624384  0.08132271561462552  1.0000
  C   C37       1.0  0.2777691772311358  0.6436278799223486  0.8391608786101518  1.0000
  C   C38       1.0  0.7222313894889183  0.3563835103666406  0.16083897783062184  1.0000
  C   C39       1.0  0.11197470760897937  0.7054320941353964  0.8135740839312722  1.0000
  C   C40       1.0  0.8880203734212133  0.2945697906640703  0.18642620152662204  1.0000
  C   C41       1.0  0.7522682432767381  0.09504114381292791  0.7920463756308325  1.0000
  C   C42       1.0  0.2477146536174785  0.9049564812563775  0.207951906943471  1.0000
  C   C43       1.0  0.7444543756655264  0.23989523258904194  0.7464559028652861  1.0000
  C   C44       1.0  0.2555308391357586  0.7601023714119111  0.2535418011731778  1.0000
  C   C45       1.0  0.7463802320382698  0.2745161619126223  0.6656064688433574  1.0000
  C   C46       1.0  0.2536059576249273  0.7254877366884499  0.33438912055920883  1.0000
  C   C47       1.0  0.7299846346555156  0.4121664568827796  0.6239141748670962  1.0000
  C   C48       1.0  0.2700062767675533  0.5878342656179569  0.3760818655874942  1.0000
  C   C49       1.0  0.7096806941678581  0.5162892599117583  0.6630743467594515  1.0000
  C   C50       1.0  0.2902947407729143  0.48371263281637766  0.3369244582077258  1.0000
  C   C51       1.0  0.7083441872446485  0.48252177343472624  0.7439359283847156  1.0000
  C   C52       1.0  0.2916390313501722  0.5174779597564907  0.2560620202121343  1.0000
  C   C53       1.0  0.726093525676859  0.3443061413695503  0.7852402592934811  1.0000
  C   C54       1.0  0.2738849711580898  0.6556967679219949  0.21475723825135165  1.0000
  C   C55       1.0  0.7377789076870157  0.44391306191963065  0.5375577495822484  1.0000
  C   C56       1.0  0.2622416308578083  0.5560770067011376  0.46243854857111455  1.0000
  C   C57       1.0  0.700519393616048  0.5897729742801943  0.7872890986350713  1.0000
  C   C58       1.0  0.2994708109650972  0.41022372545322844  0.21271484234741692  1.0000
  N   N1        1.0  0.47094207961441015  0.8872036432243321  0.856327737854251  1.0000
  N   N2        1.0  0.5290577944812257  0.11279197615959191  0.1436762758346646  1.0000
  N   N3        1.0  0.7418861913072237  0.76874412371442  0.9478688562513542  1.0000
  N   N4        1.0  0.258112314920325  0.2312461822626801  0.05213432887190813  1.0000
  N   N5        1.0  0.992003791796442  0.7217100754725719  0.8624105382047844  1.0000
  N   N6        1.0  0.0079922959381307  0.2782834301849348  0.13759328638592194  1.0000
  N   N7        1.0  0.7692231855835202  0.6200602394417843  0.35615270756043327  1.0000
  N   N8        1.0  0.23079419536127682  0.37993197634482107  0.6438444025951287  1.0000
  O   O1        1.0  0.7439682127440577  0.008664215508218803  0.7527775718362195  1.0000
  O   O2        1.0  0.25602706457789287  0.9913313269499326  0.24722314811022275  1.0000
  O   O3        1.0  0.7595451597992308  0.064791820747466  0.8650677840298402  1.0000
  O   O4        1.0  0.24043046697589418  0.9352154480114979  0.13493408600211151  1.0000
  O   O5        1.0  0.7302850662927298  0.3613307594754502  0.5006401479690368  1.0000
  O   O6        1.0  0.269753706552926  0.6386541217550956  0.4993618092752998  1.0000
  O   O7        1.0  0.7568057183081435  0.5680612539426662  0.5070758612066089  1.0000
  O   O8        1.0  0.24323202301018645  0.431920377354551  0.4929232644393125  1.0000
  O   O9        1.0  0.7070758871902644  0.7103761176050014  0.7475651639072826  1.0000
  O   O10       1.0  0.29290140921067126  0.2896269287245942  0.25243735189550165  1.0000
  O   O11       1.0  0.6948669946231406  0.5580081321384823  0.8599648936277121  1.0000
  O   O12       1.0  0.30513757640942885  0.4419726820698174  0.1400402786476249  1.0000
