data_image0
_chemical_formula_structural       Ba2H28C28N4O22
_chemical_formula_sum              "Ba2 H28 C28 N4 O22"
_cell_length_a       8.32541146843464
_cell_length_b       8.29447626113116
_cell_length_c       14.021388060963956
_cell_angle_alpha    79.83913507284143
_cell_angle_beta     84.64147522247536
_cell_angle_gamma    69.93731964600329

_space_group_name_H-M_alt    "P 1"
_space_group_IT_number       1

loop_
  _space_group_symop_operation_xyz
  'x, y, z'

loop_
  _atom_site_type_symbol
  _atom_site_label
  _atom_site_symmetry_multiplicity
  _atom_site_fract_x
  _atom_site_fract_y
  _atom_site_fract_z
  _atom_site_occupancy
  Ba  Ba1       1.0  0.3948798343331958  0.7726166600882465  0.5354386171248604  1.0000
  Ba  Ba2       1.0  0.6051194572472981  0.22738070889201364  0.4645635471171586  1.0000
  H   H1        1.0  0.51152129131453  0.8667810063241318  0.9733219227318202  1.0000
  H   H2        1.0  0.48848395227577157  0.13322411709890503  0.026675553388678004  1.0000
  H   H3        1.0  0.7775321438081806  0.8972801538941864  0.02526956397035466  1.0000
  H   H4        1.0  0.22247149044149941  0.1027262567589489  0.974726431714906  1.0000
  H   H5        1.0  0.021185063310980495  0.8867177919149609  0.9042262050195262  1.0000
  H   H6        1.0  0.9788218123387935  0.11328603135316939  0.09577132529242502  1.0000
  H   H7        1.0  0.9971890949173601  0.8443627310315661  0.7364185850457902  1.0000
  H   H8        1.0  0.002816240625762102  0.1556384833633757  0.2635778727478453  1.0000
  H   H9        1.0  0.6207235099768484  0.3986386264166839  0.9762129982674281  1.0000
  H   H10       1.0  0.3792706322856035  0.6013743571877653  0.023790632137043115  1.0000
  H   H11       1.0  0.9024412136005467  0.43083136361548197  0.9904541349564083  1.0000
  H   H12       1.0  0.0975596748837546  0.5691685819259574  0.009545536194458724  1.0000
  H   H13       1.0  0.1079814100937853  0.4110119261013808  0.8458102570416841  1.0000
  H   H14       1.0  0.8920175243199325  0.5889867031690129  0.1541875129418813  1.0000
  H   H15       1.0  0.02605212244885994  0.3624741457980959  0.6917829553079713  1.0000
  H   H16       1.0  0.9739400774649386  0.6375192883841975  0.30821499301156746  1.0000
  H   H17       1.0  0.7493931713078225  0.8052458926421618  0.40204690464469195  1.0000
  H   H18       1.0  0.25060126953197687  0.19475535095320134  0.5979522445353993  1.0000
  H   H19       1.0  0.033705744924411404  0.0887114338720778  0.6356935496428378  1.0000
  H   H20       1.0  0.9662956153983516  0.9112833294263325  0.3643080711958362  1.0000
  H   H21       1.0  0.22282312698720125  0.4815867183191144  0.6041628040158571  1.0000
  H   H22       1.0  0.7771765899166638  0.5184093515965955  0.39583947575326306  1.0000
  H   H23       1.0  0.7886204669657529  0.7004119583368152  0.5054164765546574  1.0000
  H   H24       1.0  0.21137758272296034  0.29958928844988003  0.4945832017404044  1.0000
  H   H25       1.0  0.17747538156209702  0.9957333451721836  0.7137890256490492  1.0000
  H   H26       1.0  0.8225286790883289  0.004267909087531098  0.28621177221158683  1.0000
  H   H27       1.0  0.06744223161013006  0.6440107460714726  0.6268531342570469  1.0000
  H   H28       1.0  0.9325602434959279  0.35598792516466915  0.3731494435728492  1.0000
  C   C1        1.0  0.7403319593825941  0.8410524476453104  0.7572171836889865  1.0000
  C   C2        1.0  0.25967121546543137  0.1589552814595763  0.2427808358348642  1.0000
  C   C3        1.0  0.6060270782864664  0.8484541817272271  0.8265814027835743  1.0000
  C   C4        1.0  0.3939785338300367  0.1515496749432756  0.1734197544734783  1.0000
  C   C5        1.0  0.6177072505228408  0.8680062559060886  0.9221822598021348  1.0000
  C   C6        1.0  0.3823020964736941  0.1319936755404498  0.0778162688773421  1.0000
  C   C7        1.0  0.7670067242297092  0.8828955280137477  0.950590539816055  1.0000
  C   C8        1.0  0.23299688730111257  0.11711089556419549  0.04940688211299001  1.0000
  C   C9        1.0  0.9031030435968791  0.8756428163213383  0.8831285150935456  1.0000
  C   C10       1.0  0.09690341808896362  0.1243622995489346  0.11686818656941257  1.0000
  C   C11       1.0  0.8902855226546366  0.8522018686584828  0.7883878154912978  1.0000
  C   C12       1.0  0.10972099690573597  0.1477993575709107  0.2116100072104814  1.0000
  C   C13       1.0  0.7265437035243211  0.8374030454390392  0.6509699245077201  1.0000
  C   C14       1.0  0.2734599545216057  0.16259949496042472  0.3490293315820309  1.0000
  C   C15       1.0  0.7795136253351912  0.3495306878613107  0.7447339705590891  1.0000
  C   C16       1.0  0.22048573547927222  0.6504627850156693  0.2552686015998589  1.0000
  C   C17       1.0  0.6674781732314016  0.3621979910872851  0.8264836103389612  1.0000
  C   C18       1.0  0.33251705009853083  0.6378006931534015  0.1735200486266777  1.0000
  C   C19       1.0  0.7106979903652758  0.3909802204107038  0.9143755379700877  1.0000
  C   C20       1.0  0.2892967384073301  0.6090236589978205  0.08562759755153589  1.0000
  C   C21       1.0  0.8694442324476842  0.4079350997768216  0.9218596768250436  1.0000
  C   C22       1.0  0.13055254127094434  0.5920700442035168  0.07813965488873718  1.0000
  C   C23       1.0  0.9836252593633219  0.39626765428841537  0.8416746876619283  1.0000
  C   C24       1.0  0.016373215648748468  0.6037322934337367  0.15832510616022694  1.0000
  C   C25       1.0  0.9382199237004656  0.36704743025160985  0.7545458360866846  1.0000
  C   C26       1.0  0.06177862054557433  0.6329486213672554  0.2454543656523924  1.0000
  C   C27       1.0  0.7368838038845951  0.32779666302339894  0.6463942000024614  1.0000
  C   C28       1.0  0.2631070756987768  0.672196836873283  0.3536109408716612  1.0000
  N   N1        1.0  0.5007794440663886  0.33997731366461187  0.8235116759990788  1.0000
  N   N2        1.0  0.4992097569424061  0.660021369565456  0.17649157652287784  1.0000
  N   N3        1.0  0.4485558854504533  0.831140824272644  0.8006739556545384  1.0000
  N   N4        1.0  0.5514501974271296  0.16886170748369983  0.1993244646420393  1.0000
  O   O1        1.0  0.5949059546166637  0.9445258751331734  0.608221733899093  1.0000
  O   O2        1.0  0.4050945777782432  0.05547147336952211  0.39177822964160197  1.0000
  O   O3        1.0  0.8498641149108367  0.7294271243130053  0.6110146925526223  1.0000
  O   O4        1.0  0.15013716374114955  0.27057539887995563  0.38898254684273326  1.0000
  O   O5        1.0  0.4578598553655909  0.7317484184925361  0.7422309582527689  1.0000
  O   O6        1.0  0.5421430439864423  0.26825281100792614  0.257767048455932  1.0000
  O   O7        1.0  0.31037940824772653  0.9165214077511548  0.8384561815277818  1.0000
  O   O8        1.0  0.689625548487136  0.0834772225298508  0.16154199489946564  1.0000
  O   O9        1.0  0.6120302006495636  0.44301659668585813  0.6025303299702855  1.0000
  O   O10       1.0  0.38796235643101085  0.5569755772063087  0.3974720126077075  1.0000
  O   O11       1.0  0.8342129225672323  0.19464778375976977  0.6107689354266483  1.0000
  O   O12       1.0  0.1657827839606014  0.8053457117754803  0.38923596010490513  1.0000
  O   O13       1.0  0.48405917131582754  0.25063126506210404  0.7655790460988854  1.0000
  O   O14       1.0  0.5159385120014406  0.7493635338193837  0.23442632435618546  1.0000
  O   O15       1.0  0.3855970444188302  0.4093550145167414  0.8817069430550859  1.0000
  O   O16       1.0  0.6143915917212865  0.5906566173133142  0.11829069145764488  1.0000
  O   O17       1.0  0.7290622103467616  0.7054858600476237  0.44539858512594316  1.0000
  O   O18       1.0  0.27093548325255773  0.2945127897003347  0.5546013855589464  1.0000
  O   O19       1.0  0.1604934902317439  0.02546343660782919  0.6438787900405598  1.0000
  O   O20       1.0  0.8395070308037306  0.9745339183572667  0.3561218866220345  1.0000
  O   O21       1.0  0.19373139280293117  0.5942663910590084  0.628559562558344  1.0000
  O   O22       1.0  0.8062699913160786  0.40572450198572324  0.3714453186848274  1.0000
