data_image0
_chemical_formula_structural       Nd2Co2H28C28N20O8
_chemical_formula_sum              "Nd2 Co2 H28 C28 N20 O8"
_cell_length_a       8.862177462401752
_cell_length_b       8.858843770789099
_cell_length_c       14.860241474916432
_cell_angle_alpha    78.8377540571983
_cell_angle_beta     87.62517468126762
_cell_angle_gamma    66.08018849997848

_space_group_name_H-M_alt    "P 1"
_space_group_IT_number       1

loop_
  _space_group_symop_operation_xyz
  'x, y, z'

loop_
  _atom_site_type_symbol
  _atom_site_label
  _atom_site_symmetry_multiplicity
  _atom_site_fract_x
  _atom_site_fract_y
  _atom_site_fract_z
  _atom_site_occupancy
  Nd  Nd1       1.0  0.5496385692744211  0.875857711555625  0.7200981679057179  1.0000
  Nd  Nd2       1.0  0.45026871276400027  0.1241424049981674  0.27992164612452103  1.0000
  Co  Co1       1.0  5.685752795153526e-05  0.9996916403723687  0.5000066734026377  1.0000
  Co  Co2       1.0  0.9999884835889783  0.5000010352776769  1.018520270431774e-05  1.0000
  H   H1        1.0  0.9132151087969475  0.8611849793451897  0.8108875338774555  1.0000
  H   H2        1.0  0.08683221689841496  0.13879459716364548  0.1890369001576531  1.0000
  H   H3        1.0  0.04432194540529369  0.03761338492520851  0.8608277702657576  1.0000
  H   H4        1.0  0.955709178088007  0.9623347053644551  0.1391225238255701  1.0000
  H   H5        1.0  0.8774794208667342  0.3561173282843201  0.8239147295252353  1.0000
  H   H6        1.0  0.12253508823613386  0.6438140450688224  0.17612215366284545  1.0000
  H   H7        1.0  0.11968953300094391  0.6758654899889294  0.708535753371372  1.0000
  H   H8        1.0  0.8802990856618392  0.32411678146178957  0.2915509322299386  1.0000
  H   H9        1.0  0.9698389687380808  0.5059307920781606  0.6684942578499928  1.0000
  H   H10       1.0  0.030186787376621293  0.4941152078374741  0.3314631017625374  1.0000
  H   H11       1.0  0.13788914943964398  0.19352689490280287  0.680700935038459  1.0000
  H   H12       1.0  0.8621062215987789  0.8065319986873476  0.3191691135541391  1.0000
  H   H13       1.0  0.6994926786918892  0.549592421236781  0.6052498126011585  1.0000
  H   H14       1.0  0.30020365679722966  0.4505662903898866  0.3947054920849099  1.0000
  H   H15       1.0  0.6246901113721818  0.5266604400305751  0.7001140982107829  1.0000
  H   H16       1.0  0.3753839500356334  0.47318312944266694  0.2999384041113374  1.0000
  H   H17       1.0  0.34780481416131437  0.71613979056783  0.8523997591805285  1.0000
  H   H18       1.0  0.652203931094661  0.28382662288969124  0.1476751478155265  1.0000
  H   H19       1.0  0.40490523706748854  0.6073991442676173  0.7738057507751963  1.0000
  H   H20       1.0  0.5950899439249965  0.39259062223526797  0.2262562962536379  1.0000
  H   H21       1.0  0.3852920776660084  0.0320803072593137  0.8966070492730936  1.0000
  H   H22       1.0  0.614669602229881  0.9680336880767301  0.1033884779391485  1.0000
  H   H23       1.0  0.5234923763167101  0.844367211770873  0.9309971818810682  1.0000
  H   H24       1.0  0.4765943220168011  0.1557898595471485  0.06899942699104142  1.0000
  H   H25       1.0  0.4051519055533531  0.1567394814312095  0.533083615521484  1.0000
  H   H26       1.0  0.5948391607335777  0.845052785760039  0.4669393086009991  1.0000
  H   H27       1.0  0.5927106764725351  0.10297431253616197  0.5176132407335814  1.0000
  H   H28       1.0  0.4074073825712644  0.8979956002161844  0.4824253991960462  1.0000
  C   C1        1.0  0.8463123797330423  0.9965233710588564  0.8042362874948312  1.0000
  C   C2        1.0  0.15372684171536113  0.003454401728305401  0.1956784178122533  1.0000
  C   C3        1.0  0.9197468195280083  0.09454473036517902  0.8299176214122286  1.0000
  C   C4        1.0  0.08025156969792835  0.9054155402233378  0.1700693776598783  1.0000
  C   C5        1.0  0.8272897601176226  0.26768983315679407  0.8118121999486335  1.0000
  C   C6        1.0  0.17273727712714027  0.732254609879746  0.18818643508024022  1.0000
  C   C7        1.0  0.6054519826958611  0.230111072993374  0.7624452189085745  1.0000
  C   C8        1.0  0.39457607259819827  0.7698601427638678  0.2375338075724188  1.0000
  C   C9        1.0  0.42583501658466355  0.3051241173063985  0.7358895560226275  1.0000
  C   C10       1.0  0.5741765709658891  0.6948605437878682  0.2640806236897504  1.0000
  C   C11       1.0  0.18309680592036404  0.5412500522636563  0.709755333836334  1.0000
  C   C12       1.0  0.8168964135041745  0.4587418149027299  0.2902532882033029  1.0000
  C   C13       1.0  0.10060848076607691  0.4476175756880991  0.6885800235578119  1.0000
  C   C14       1.0  0.8993862532063156  0.5523944421221643  0.3114037707947332  1.0000
  C   C15       1.0  0.19354286464547948  0.2760292135674263  0.6952412390903647  1.0000
  C   C16       1.0  0.8064580376026809  0.7240085597096807  0.3046590266719491  1.0000
  C   C17       1.0  0.8687398060454394  0.5958806982569059  0.8935645343985784  1.0000
  C   C18       1.0  0.13124170835871488  0.4041117035461498  0.10645364624661374  1.0000
  C   C19       1.0  0.8753973019133593  0.37350550584005754  0.04094137763028272  1.0000
  C   C20       1.0  0.12456151721350041  0.6265064555017118  0.9590868046657237  1.0000
  C   C21       1.0  0.8512715781070314  0.6796851384489387  0.04943448359792772  1.0000
  C   C22       1.0  0.14872352958740004  0.32036190725600733  0.950564339000245  1.0000
  C   C23       1.0  0.8934883373352844  0.90079109232461  0.5861590940270391  1.0000
  C   C24       1.0  0.10649671076512848  0.09875336264731518  0.4138201728353011  1.0000
  C   C25       1.0  0.10939698929442436  0.7888910047715995  0.4633391179753447  1.0000
  C   C26       1.0  0.8907447689767449  0.2104433223033624  0.5366657403119888  1.0000
  C   C27       1.0  0.1762836091839474  0.9533878136784965  0.5788825568102497  1.0000
  C   C28       1.0  0.8238411854483798  0.0461870535208107  0.4211207071360904  1.0000
  N   N1        1.0  0.6890710518640972  0.06301372157468418  0.771014968379923  1.0000
  N   N2        1.0  0.31094974150094135  0.9369500699496315  0.2289671545455719  1.0000
  N   N3        1.0  0.3558989794489093  0.20340386275605477  0.7189381304151325  1.0000
  N   N4        1.0  0.6440813619821023  0.7966117190772977  0.28101852305754  1.0000
  N   N5        1.0  0.6714411287888706  0.33529058702518455  0.7774899587830293  1.0000
  N   N6        1.0  0.32857157688754757  0.6646536232987046  0.22255002269416488  1.0000
  N   N7        1.0  0.34440245906407796  0.4704547111748808  0.7331037099738182  1.0000
  N   N8        1.0  0.6555673512890506  0.5295109730868146  0.26695782073112184  1.0000
  N   N9        1.0  0.7805503486667643  0.6640566039802351  0.8281354655598605  1.0000
  N   N10       1.0  0.21936853459956027  0.3359699462697351  0.1719043252189465  1.0000
  N   N11       1.0  0.7988700020077742  0.29343786349743783  0.06716452921273944  1.0000
  N   N12       1.0  0.20111921828259943  0.7065502449690723  0.9328904267039918  1.0000
  N   N13       1.0  0.7545658221956654  0.7964374089283482  0.07606819458846562  1.0000
  N   N14       1.0  0.24540567385984247  0.20363677091781082  0.9238945643541429  1.0000
  N   N15       1.0  0.8147852068644424  0.8436816912484415  0.635141978504933  1.0000
  N   N16       1.0  0.18506736029919313  0.1560497147016093  0.36485060907756417  1.0000
  N   N17       1.0  0.1724177857024428  0.6572431672865093  0.4417032859034436  1.0000
  N   N18       1.0  0.8275408401396688  0.34199428519638525  0.5583804278245452  1.0000
  N   N19       1.0  0.29237597484375727  0.9346062847330359  0.6223016969864048  1.0000
  N   N20       1.0  0.707699577717122  0.06532125743136422  0.377643734916255  1.0000
  O   O1        1.0  0.4710230739379784  0.9287528550533822  0.8765908924019359  1.0000
  O   O2        1.0  0.5289314339937332  0.07134761405774981  0.12341187839771812  1.0000
  O   O3        1.0  0.4180604763046176  0.6999855631312785  0.7977240661648042  1.0000
  O   O4        1.0  0.5819221602000223  0.3000043679742888  0.20234086850042138  1.0000
  O   O5        1.0  0.6314707818947551  0.6167794225956698  0.6495905155885424  1.0000
  O   O6        1.0  0.36843653338012666  0.3831760595932607  0.3504693574277412  1.0000
  O   O7        1.0  0.5128580225665968  0.10414597416002641  0.5651917200582874  1.0000
  O   O8        1.0  0.4872592527928956  0.8959325240111865  0.43473566213484827  1.0000
