data_image0
_chemical_formula_structural       Na4H28C32S4O32
_chemical_formula_sum              "Na4 H28 C32 S4 O32"
_cell_length_a       7.106686330028202
_cell_length_b       11.141380956340923
_cell_length_c       13.109712131711856
_cell_angle_alpha    95.46351931171066
_cell_angle_beta     90.00029187422561
_cell_angle_gamma    90.00010038223759

_space_group_name_H-M_alt    "P 1"
_space_group_IT_number       1

loop_
  _space_group_symop_operation_xyz
  'x, y, z'

loop_
  _atom_site_type_symbol
  _atom_site_label
  _atom_site_symmetry_multiplicity
  _atom_site_fract_x
  _atom_site_fract_y
  _atom_site_fract_z
  _atom_site_occupancy
  Na  Na1       1.0  0.5300487569381076  0.07847780170428108  0.9008135448882227  1.0000
  Na  Na2       1.0  0.0300440883996487  0.4215209115076489  0.599186633513696  1.0000
  Na  Na3       1.0  0.4699606172031069  0.9215237385523452  0.09918845707080237  1.0000
  Na  Na4       1.0  0.9699540287302643  0.5784788298810637  0.40081445260823034  1.0000
  H   H1        1.0  0.1396194078320718  0.36934733579903417  0.8426579580611315  1.0000
  H   H2        1.0  0.6396262082210811  0.1306524666352544  0.65733651887038  1.0000
  H   H3        1.0  0.8603744879191028  0.6306551193476012  0.15734183329301737  1.0000
  H   H4        1.0  0.3603817587807612  0.8693472836007101  0.3426630424131431  1.0000
  H   H5        1.0  0.3822976442896008  0.6969685745566706  0.9878125099883375  1.0000
  H   H6        1.0  0.8822993853335107  0.80303044972176  0.5121841612274664  1.0000
  H   H7        1.0  0.6176962514704344  0.30303296568920507  0.012189491947992799  1.0000
  H   H8        1.0  0.11770858165617432  0.19696841213465885  0.48781303607970716  1.0000
  H   H9        1.0  0.2198999319257027  0.4145011719614259  0.17095587067111495  1.0000
  H   H10       1.0  0.7198983318717893  0.0854967898930212  0.32903826348658766  1.0000
  H   H11       1.0  0.7801009994536799  0.5854976677890916  0.8290451387578484  1.0000
  H   H12       1.0  0.2800983781135926  0.9145002642550822  0.6709595428363355  1.0000
  H   H13       1.0  0.41331929792411876  0.689186971443334  0.7199149958759107  1.0000
  H   H14       1.0  0.9133207120141266  0.8108120826687112  0.780084053564522  1.0000
  H   H15       1.0  0.5866788192074424  0.31081367158552814  0.2800861669431  1.0000
  H   H16       1.0  0.0866872549928672  0.1891885647871945  0.2199163468425097  1.0000
  H   H17       1.0  0.4225664448083464  0.6333407393142707  0.32671500156396144  1.0000
  H   H18       1.0  0.9225642232009508  0.8666608970049334  0.17328159306804022  1.0000
  H   H19       1.0  0.577435893687749  0.36665901533798007  0.6732837972848882  1.0000
  H   H20       1.0  0.07742967253329881  0.13333615714121547  0.8267162132507618  1.0000
  H   H21       1.0  0.7838257787726093  0.11538414665021426  0.08453568402914868  1.0000
  H   H22       1.0  0.2838225065622524  0.38462107292630787  0.41546687537771726  1.0000
  H   H23       1.0  0.21617796687462493  0.8846219018032497  0.9154667014070552  1.0000
  H   H24       1.0  0.7161770176948752  0.6153795701035347  0.584534287443361  1.0000
  H   H25       1.0  0.5908485834975464  0.16787492390797348  0.11714179311007196  1.0000
  H   H26       1.0  0.09084767402119101  0.3321246221707526  0.38285897794219165  1.0000
  H   H27       1.0  0.40914953362886314  0.8321248219009475  0.8828585305854301  1.0000
  H   H28       1.0  0.9091518502361284  0.6678742131585906  0.6171427939111351  1.0000
  C   C1        1.0  0.17477261231079666  0.37908364144056605  0.007551637554350088  1.0000
  C   C2        1.0  0.6747768392907432  0.1209160521681554  0.4924440425596399  1.0000
  C   C3        1.0  0.8252240976933579  0.620917907647673  0.9924488395332599  1.0000
  C   C4        1.0  0.3252283134494719  0.8790837113264659  0.5075532314404894  1.0000
  C   C5        1.0  0.18594378485737914  0.42338783486968623  0.9118688642730743  1.0000
  C   C6        1.0  0.6859469782385901  0.07661202749446967  0.5881265108882443  1.0000
  C   C7        1.0  0.8140529251486158  0.5766128081581954  0.08813229854387569  1.0000
  C   C8        1.0  0.3140581745104783  0.9233868210993847  0.41187297369407344  1.0000
  C   C9        1.0  0.2614122825025476  0.5384850281231194  0.904531628379743  1.0000
  C   C10       1.0  0.7614124329692231  0.9615147210232495  0.5954662899853672  1.0000
  C   C11       1.0  0.7385858346255104  0.46151561932594387  0.09546877201285038  1.0000
  C   C12       1.0  0.238591312650783  0.0384841319898399  0.4045324321684588  1.0000
  C   C13       1.0  0.3217531468529772  0.6082394669649744  0.9926366676691171  1.0000
  C   C14       1.0  0.8217550996037771  0.8917603836873697  0.5073583778936026  1.0000
  C   C15       1.0  0.6782407489035478  0.39176207770110943  0.007364571840795997  1.0000
  C   C16       1.0  0.17824442463418683  0.10823937980333653  0.4926388960982847  1.0000
  C   C17       1.0  0.30372505349704687  0.5646032381757704  0.08855703519860465  1.0000
  C   C18       1.0  0.8037280357323198  0.9353982418961806  0.4114376861821681  1.0000
  C   C19       1.0  0.6962688422627893  0.4354001097706046  0.9114443577054769  1.0000
  C   C20       1.0  0.19627570988583193  0.0646015171772589  0.5885603502423178  1.0000
  C   C21       1.0  0.2307865687097106  0.4489750776319497  0.09629916189751946  1.0000
  C   C22       1.0  0.7307869631769394  0.0510255998475486  0.4036959966970243  1.0000
  C   C23       1.0  0.7692087341653817  0.5510264758755099  0.9037005527616128  1.0000
  C   C24       1.0  0.2692125610698781  0.9489732487423979  0.596303487877037  1.0000
  C   C25       1.0  0.275872895399239  0.5810369846917709  0.8006434390666894  1.0000
  C   C26       1.0  0.7758724717614032  0.9189654938831423  0.6993539893564387  1.0000
  C   C27       1.0  0.7241252217150133  0.4189618727376043  0.19935452065247006  1.0000
  C   C28       1.0  0.22413549522313053  0.0810324707533354  0.3006423688272263  1.0000
  C   C29       1.0  0.3711705244589539  0.6404909101856617  0.18118241190574474  1.0000
  C   C30       1.0  0.8711639926921892  0.8595106679933266  0.3188117447638205  1.0000
  C   C31       1.0  0.6288275926792295  0.35951333940380437  0.8188190577016171  1.0000
  C   C32       1.0  0.1288313101674348  0.14048819385429567  0.6811854525247937  1.0000
  S   S1        1.0  0.1088077819280073  0.2256567362681707  0.014134215531193194  1.0000
  S   S2        1.0  0.6088081698125265  0.274341044740197  0.48586416750031686  1.0000
  S   S3        1.0  0.8911903351897408  0.7743421167410032  0.9858645066143833  1.0000
  S   S4        1.0  0.391192761563353  0.725657799430522  0.5141360795022292  1.0000
  O   O1        1.0  0.28558203444903546  0.15904698146917437  0.009455440746798193  1.0000
  O   O2        1.0  0.7855826576410936  0.34095194674956286  0.4905435372292855  1.0000
  O   O3        1.0  0.714420304053867  0.840954572043181  0.9905442739226442  1.0000
  O   O4        1.0  0.21441827372778025  0.6590469062615654  0.5094551849204192  1.0000
  O   O5        1.0  0.982332968332564  0.19318786110351735  0.9266883631038777  1.0000
  O   O6        1.0  0.48233898763849226  0.3068069810565958  0.5733112329320986  1.0000
  O   O7        1.0  0.017666555914253503  0.8068109874864291  0.07331112147018358  1.0000
  O   O8        1.0  0.5176633508561396  0.6931900642550062  0.4266880982519152  1.0000
  O   O9        1.0  0.0067451869951682  0.22023286380420604  0.11224126204177047  1.0000
  O   O10       1.0  0.5067404665231763  0.2797683731381895  0.3877586534076513  1.0000
  O   O11       1.0  0.9932557443790632  0.7797650787263705  0.8877589082636914  1.0000
  O   O12       1.0  0.49326046485104774  0.7202295693923803  0.6122415168978106  1.0000
  O   O13       1.0  0.18905987328967203  0.5334687472553412  0.726326852169009  1.0000
  O   O14       1.0  0.6890630849519823  0.9665327135038313  0.7736694826271486  1.0000
  O   O15       1.0  0.8109438723457955  0.4665327974175781  0.273674387355335  1.0000
  O   O16       1.0  0.31094769632471764  0.033474236594671004  0.22633297951644946  1.0000
  O   O17       1.0  0.39485109551657877  0.6733672888617193  0.7945688159014208  1.0000
  O   O18       1.0  0.8948490541635082  0.8266335340322826  0.7054318576379328  1.0000
  O   O19       1.0  0.6051498358745705  0.3266360546693435  0.20543333943939496  1.0000
  O   O20       1.0  0.10515047008680511  0.17336531013746276  0.2945683893625527  1.0000
  O   O21       1.0  0.43398052627073724  0.7435639864072459  0.17886220872239275  1.0000
  O   O22       1.0  0.9339723112140773  0.7564304659033496  0.321131518507407  1.0000
  O   O23       1.0  0.566014776597548  0.2564357682401237  0.8211365901161399  1.0000
  O   O24       1.0  0.06602721302758141  0.24356748546664875  0.6788671269431459  1.0000
  O   O25       1.0  0.361071892614973  0.5839168396298717  0.2659512110310871  1.0000
  O   O26       1.0  0.8610731869696339  0.9160856217457507  0.23404375516739856  1.0000
  O   O27       1.0  0.6389262245095895  0.4160838122393997  0.7340484269350821  1.0000
  O   O28       1.0  0.13891789451164982  0.083912338458795  0.7659533654179354  1.0000
  O   O29       1.0  0.6486642733773494  0.0991667365394449  0.07669275177379119  1.0000
  O   O30       1.0  0.14865971300807956  0.4008328721719323  0.42331123847643676  1.0000
  O   O31       1.0  0.3513422865094356  0.9008330004349288  0.923309096786937  1.0000
  O   O32       1.0  0.8513412183853007  0.599165949897767  0.5766928206582234  1.0000
