data_image0
_chemical_formula_structural       Ca8H8C28O40
_chemical_formula_sum              "Ca8 H8 C28 O40"
_cell_length_a       7.271872333001042
_cell_length_b       9.362877391000248
_cell_length_c       15.049203984001847
_cell_angle_alpha    89.99999066076
_cell_angle_beta     90.00005602891298
_cell_angle_gamma    89.9999751880348

_space_group_name_H-M_alt    "P 1"
_space_group_IT_number       1

loop_
  _space_group_symop_operation_xyz
  'x, y, z'

loop_
  _atom_site_type_symbol
  _atom_site_label
  _atom_site_symmetry_multiplicity
  _atom_site_fract_x
  _atom_site_fract_y
  _atom_site_fract_z
  _atom_site_occupancy
  Ca  Ca1       1.0  0.750004095126769  0.49468638346089483  0.6847479982601001  1.0000
  Ca  Ca2       1.0  0.25000218524762363  0.9946833851094538  0.815255090301882  1.0000
  Ca  Ca3       1.0  0.7499996008095025  0.005314454550550399  0.18474150985105095  1.0000
  Ca  Ca4       1.0  0.2500018164249552  0.5053178644833097  0.3152598981720303  1.0000
  Ca  Ca5       1.0  0.7499985716436938  0.8741722773788109  0.76687258904213  1.0000
  Ca  Ca6       1.0  0.2500009001382182  0.374172226655233  0.7331285179250457  1.0000
  Ca  Ca7       1.0  0.7500008859239029  0.6258245449564086  0.26687273363675257  1.0000
  Ca  Ca8       1.0  0.24999908893115466  0.12582556228152703  0.23312666905771803  1.0000
  H   H1        1.0  0.7499997818618526  0.47497024803300275  0.4934980166354492  1.0000
  H   H2        1.0  0.2499999982535641  0.9749694690083572  0.0065026806501933  1.0000
  H   H3        1.0  0.750000412644674  0.025030506746901396  0.9934972419371704  1.0000
  H   H4        1.0  0.2499992538744209  0.5250307957702204  0.5065019059515379  1.0000
  H   H5        1.0  0.7499998476378736  0.3063543453048254  0.5120531591693336  1.0000
  H   H6        1.0  0.24999966196914872  0.8063545045424901  0.9879466255024029  1.0000
  H   H7        1.0  0.7499993737664566  0.1936465392608255  0.0120526325976158  1.0000
  H   H8        1.0  0.24999918809840685  0.693646698498398  0.4879467634176535  1.0000
  C   C1        1.0  0.7499997109735543  0.9612395570332738  0.5575425761150683  1.0000
  C   C2        1.0  0.24999971224359285  0.4612405179278126  0.94245719330398  1.0000
  C   C3        1.0  0.7499993234926875  0.5387605258754106  0.057542729283007084  1.0000
  C   C4        1.0  0.2499993247624275  0.0387625548176871  0.4424573464718691  1.0000
  C   C5        1.0  0.7499997513292129  0.8045793836076952  0.5542434060082968  1.0000
  C   C6        1.0  0.2499997592682703  0.3045803436127699  0.9457570433251661  1.0000
  C   C7        1.0  0.7500006516302592  0.6954185640947517  0.05424287926225449  1.0000
  C   C8        1.0  0.2500006595680447  0.19542166019538595  0.44575585209204144  1.0000
  C   C9        1.0  0.7499996699057689  0.7608481815430607  0.4616066147814877  1.0000
  C   C10       1.0  0.24999885447674333  0.26084925136336073  0.0383934391028902  1.0000
  C   C11       1.0  0.7500001812608802  0.739151792439685  0.9616078124580483  1.0000
  C   C12       1.0  0.2500007409905223  0.23915393030785032  0.5383919788318252  1.0000
  C   C13       1.0  0.7499995786060509  0.8906480302493663  0.4070841232892874  1.0000
  C   C14       1.0  0.2499988733778906  0.39064908537182663  0.0929152533257991  1.0000
  C   C15       1.0  0.7500001623590576  0.6093519584313043  0.9070853337481566  1.0000
  C   C16       1.0  0.2500008322906098  0.1093551496491898  0.5929151348109443  1.0000
  C   C17       1.0  0.7499998808766363  0.018318965947052797  0.4654580178375269  1.0000
  C   C18       1.0  0.2499987787802667  0.5183203154592988  0.0345420599304092  1.0000
  C   C19       1.0  0.7500002569557154  0.481681796391662  0.9654578626565282  1.0000
  C   C20       1.0  0.25000053002099776  0.9816831459036737  0.5345419047497373  1.0000
  C   C21       1.0  0.14308748454152453  0.6950565075020095  0.7252157659606482  1.0000
  C   C22       1.0  0.8569120871437333  0.19505624149243056  0.7747840296713946  1.0000
  C   C23       1.0  0.356913584814741  0.8049436983164995  0.2252159434979077  1.0000
  C   C24       1.0  0.6430876652970667  0.30494136810409606  0.27478410604488357  1.0000
  C   C25       1.0  0.8569115511949759  0.3049413321580944  0.27478349213952674  1.0000
  C   C26       1.0  0.14308969891451537  0.8049448023105085  0.2252145639422949  1.0000
  C   C27       1.0  0.6430895764084426  0.1950552093903752  0.7747853080641036  1.0000
  C   C28       1.0  0.35691137044040033  0.6950554035081851  0.7252158165423168  1.0000
  O   O1        1.0  0.7500000429547953  0.029687244009416188  0.6289723136230663  1.0000
  O   O2        1.0  0.250000996128982  0.5296885028131298  0.8710274982943174  1.0000
  O   O3        1.0  0.7499994147693201  0.470313609037504  0.1289730887799152  1.0000
  O   O4        1.0  0.24999899278177654  0.9703127317460698  0.3710276089639777  1.0000
  O   O5        1.0  0.7499998425866039  0.7288259524820832  0.6236384422669516  1.0000
  O   O6        1.0  0.24999971026286258  0.2288269311944475  0.8763613500395093  1.0000
  O   O7        1.0  0.7500007006350699  0.7711741126085415  0.1236385725478044  1.0000
  O   O8        1.0  0.24999919314862504  0.27117402327358775  0.376360151346141  1.0000
  O   O9        1.0  0.7499996713323824  0.6365562667931499  0.42871916715130703  1.0000
  O   O10       1.0  0.2499989223752195  0.13655732774788729  0.0712802344860037  1.0000
  O   O11       1.0  0.750000113361729  0.8634437160552508  0.9287203525879588  1.0000
  O   O12       1.0  0.25000073956390884  0.3634458450577611  0.5712794264620058  1.0000
  O   O13       1.0  0.7500008708332115  0.8848784476550476  0.3234278716324823  1.0000
  O   O14       1.0  0.2500003346918263  0.38488054827356416  0.17657150555137946  1.0000
  O   O15       1.0  0.7500014513670905  0.6151204955292897  0.8234277525492857  1.0000
  O   O16       1.0  0.2500009152254066  0.1151236641955364  0.6765713864681331  1.0000
  O   O17       1.0  0.7499998222561004  0.14649964998726972  0.4428249207418773  1.0000
  O   O18       1.0  0.2500001410679715  0.6464999253502199  0.05717514440357259  1.0000
  O   O19       1.0  0.7500002698295843  0.353500050405131  0.9428241136968154  1.0000
  O   O20       1.0  0.24999921348092613  0.8535035299112436  0.5571763308189546  1.0000
  O   O21       1.0  0.06493980232207969  0.5824778845820973  0.6984734747927632  1.0000
  O   O22       1.0  0.9350612073177017  0.0824786531359365  0.8015269964129459  1.0000
  O   O23       1.0  0.4350584626599315  0.9175191243027355  0.1984736782159402  1.0000
  O   O24       1.0  0.5649399743371788  0.417516813155828  0.3015256957531278  1.0000
  O   O25       1.0  0.9350592334153162  0.41751675093480156  0.301525783307568  1.0000
  O   O26       1.0  0.0649447042273721  0.9175181184752784  0.19847226168890586  1.0000
  O   O27       1.0  0.564944698562286  0.0824808514519688  0.8015269088590529  1.0000
  O   O28       1.0  0.4350576862382596  0.5824788904090424  0.6984735623468268  1.0000
  O   O29       1.0  0.06471977014615501  0.8067486768218687  0.7541176028092593  1.0000
  O   O30       1.0  0.9352838647266848  0.3067483922538372  0.7458828463116163  1.0000
  O   O31       1.0  0.43528135762691267  0.6932515212054043  0.2541178284225651  1.0000
  O   O32       1.0  0.5647199547819  0.1932481570855913  0.2458809031454621  1.0000
  O   O33       1.0  0.9352806407502853  0.19324809479053326  0.24587966183037216  1.0000
  O   O34       1.0  0.06472204682040682  0.693248379357108  0.2541184052511554  1.0000
  O   O35       1.0  0.5647245539173441  0.3067505906443985  0.7458820941659994  1.0000
  O   O36       1.0  0.43527770579257213  0.8067486145271018  0.7541176904674671  1.0000
  O   O37       1.0  0.7499998502688425  0.4014469035448585  0.5408978694940743  1.0000
  O   O38       1.0  0.24999960630007928  0.9014449344627946  0.9591025703003025  1.0000
  O   O39       1.0  0.7499994294355261  0.0985561093405209  0.04089668779971589  1.0000
  O   O40       1.0  0.25000056062782505  0.5985562763536978  0.4591013886061645  1.0000
