data_image0
_chemical_formula_structural       Zn2H22C40N4O8
_chemical_formula_sum              "Zn2 H22 C40 N4 O8"
_cell_length_a       15.261257810385928
_cell_length_b       14.833921469868695
_cell_length_c       16.21917860158151
_cell_angle_alpha    89.99203395355904
_cell_angle_beta     89.58444104961796
_cell_angle_gamma    90.1240392674268

_space_group_name_H-M_alt    "P 1"
_space_group_IT_number       1

loop_
  _space_group_symop_operation_xyz
  'x, y, z'

loop_
  _atom_site_type_symbol
  _atom_site_label
  _atom_site_symmetry_multiplicity
  _atom_site_fract_x
  _atom_site_fract_y
  _atom_site_fract_z
  _atom_site_occupancy
  Zn  Zn1       1.0  0.5004679920913375  0.40654106490421793  0.4992628123251137  1.0000
  Zn  Zn2       1.0  0.4995357241669467  0.5934552410918811  0.5007346133087935  1.0000
  H   H1        1.0  0.7763621495370855  0.3613934962322319  0.4707797930337635  1.0000
  H   H2        1.0  0.22364085607810583  0.6386014599653081  0.5292318160069343  1.0000
  H   H3        1.0  0.7786575037295479  0.6449080838346218  0.520591905663352  1.0000
  H   H4        1.0  0.22134485944684454  0.3550882198156131  0.47941662265740353  1.0000
  H   H5        1.0  0.08471283470003502  0.7244885374320091  0.5342383805011153  1.0000
  H   H6        1.0  0.9152900728302742  0.275501698808938  0.46579789166594315  1.0000
  H   H7        1.0  0.5154365274650986  0.3561839512508769  0.0776972995571441  1.0000
  H   H8        1.0  0.4845698063152781  0.6438170773473358  0.9223019663030811  1.0000
  H   H9        1.0  0.5152063995768899  0.35501816159148086  0.9239469349395222  1.0000
  H   H10       1.0  0.4847953501947019  0.644983534585414  0.0760517300220656  1.0000
  H   H11       1.0  0.35789228165729275  0.916660038046473  0.5073781021700441  1.0000
  H   H12       1.0  0.6421127441262229  0.08333492156624799  0.4926193191050032  1.0000
  H   H13       1.0  0.6407429235796228  0.914673045286932  0.49291028102529577  1.0000
  H   H14       1.0  0.3592614440662842  0.0853212392285627  0.50708775913251  1.0000
  H   H15       1.0  0.9536732119799042  0.7971131109020037  0.5510515566542011  1.0000
  H   H16       1.0  0.9212879015412059  0.8018354784269662  0.4030408990221234  1.0000
  H   H17       1.0  0.8346647998812814  0.8458146208863438  0.4662953760816677  1.0000
  H   H18       1.0  0.8274526086436182  0.7347528257199373  0.4257085877286642  1.0000
  H   H19       1.0  0.04632697825027781  0.20287172751745425  0.44900877113370546  1.0000
  H   H20       1.0  0.07873526710778121  0.198179729037065  0.597013797903543  1.0000
  H   H21       1.0  0.1725634341105859  0.2652583275494891  0.574323937955029  1.0000
  H   H22       1.0  0.16534919975011766  0.1541911357086434  0.5337562704456076  1.0000
  C   C1        1.0  0.49995049462263813  0.5003676654254648  0.3386086183470383  1.0000
  C   C2        1.0  0.5000518991161301  0.4996252679298577  0.661391278390447  1.0000
  C   C3        1.0  0.046969505791587096  0.6624780594641778  0.52563676552478  1.0000
  C   C4        1.0  0.9530321107816138  0.33751621986747443  0.47439519476370157  1.0000
  C   C5        1.0  0.5085763655228348  0.4181997659293586  0.9577020869742441  1.0000
  C   C6        1.0  0.4914253866123772  0.5818019302734356  0.0422959614211891  1.0000
  C   C7        1.0  0.508718472096902  0.41883738023214084  0.0432047627381351  1.0000
  C   C8        1.0  0.4912852458432085  0.5811643187901082  0.9567932789132528  1.0000
  C   C9        1.0  0.4998676941533234  0.49934481794833374  0.9129648843773381  1.0000
  C   C10       1.0  0.5001320958928872  0.5006555272237918  0.08703193776699442  1.0000
  C   C11       1.0  0.4998015106911069  0.4988396148349068  0.8256926032731614  1.0000
  C   C12       1.0  0.5001969688185071  0.5011607284575845  0.17430422336720142  1.0000
  C   C13       1.0  0.5001703016086695  0.5011451377641478  0.2494584262556714  1.0000
  C   C14       1.0  0.49982816692939025  0.49885318303021364  0.7505408668550687  1.0000
  C   C15       1.0  0.42020009661022334  0.0473466460146525  0.504046922130982  1.0000
  C   C16       1.0  0.5798055825836528  0.9526489886434957  0.4959511133936232  1.0000
  C   C17       1.0  0.5805595804882059  0.0461963025503991  0.4958090548719342  1.0000
  C   C18       1.0  0.41944479053270095  0.9537993302540073  0.5041883685825469  1.0000
  C   C19       1.0  0.5007885058934961  0.0933996659513028  0.4998729463395577  1.0000
  C   C20       1.0  0.4992158651274039  0.9065959668531107  0.5001244771149163  1.0000
  C   C21       1.0  0.5016922399378246  0.18923067807553204  0.49977834081771283  1.0000
  C   C22       1.0  0.49831343858559063  0.8107609118194717  0.5002190785522415  1.0000
  C   C23       1.0  0.3291088901387483  0.49660917293427803  0.5024429928363929  1.0000
  C   C24       1.0  0.6708935079863708  0.5033864569729688  0.4975562870606042  1.0000
  C   C25       1.0  0.8140446778673223  0.4228254195974515  0.48111235239479566  1.0000
  C   C26       1.0  0.1859602817346229  0.5771695392900398  0.5189023327326441  1.0000
  C   C27       1.0  0.7691192616224569  0.5033743829941598  0.4952099585551863  1.0000
  C   C28       1.0  0.2308844107382697  0.4966232707728295  0.5047991816985304  1.0000
  C   C29       1.0  0.8154132183470396  0.5836207472601131  0.5080217347391525  1.0000
  C   C30       1.0  0.1845897806829484  0.41637488299122793  0.4919917239314273  1.0000
  C   C31       1.0  0.9072970605861742  0.5847900255375719  0.5075269895238107  1.0000
  C   C32       1.0  0.09270787014656182  0.4152042589075933  0.4924950944660864  1.0000
  C   C33       1.0  0.9535788113805667  0.5017135301490329  0.4972217454942083  1.0000
  C   C34       1.0  0.04642547117475001  0.4982807534340168  0.5027984910452332  1.0000
  C   C35       1.0  0.9058695785432391  0.42023963841062795  0.4824388776570744  1.0000
  C   C36       1.0  0.09413405971533712  0.5797566667307235  0.5175788946600051  1.0000
  C   C37       1.0  0.9573682579059409  0.666876818245598  0.5195876052607532  1.0000
  C   C38       1.0  0.04263337284901781  0.33311746124146424  0.4804406556307868  1.0000
  C   C39       1.0  0.8724564972938609  0.78488412195982  0.4513971919630181  1.0000
  C   C40       1.0  0.12755687509186941  0.2151243305062849  0.5486476743102102  1.0000
  N   N1        1.0  0.4974813984405558  0.7325618945244514  0.5002728465053679  1.0000
  N   N2        1.0  0.502524288514664  0.26743778497453974  0.4997239554754175  1.0000
  N   N3        1.0  0.9126011116948121  0.7498868338639467  0.5268955037808996  1.0000
  N   N4        1.0  0.08740111659002989  0.25010609767829106  0.4731475525875554  1.0000
  O   O1        1.0  0.5000537393733637  0.42302286731175814  0.37278434777437763  1.0000
  O   O2        1.0  0.4999539100117617  0.5769754667177692  0.6272130641656801  1.0000
  O   O3        1.0  0.5002993007353211  0.4230146557063961  0.6258004313788348  1.0000
  O   O4        1.0  0.4997024436385474  0.5769829956555554  0.37419885056041846  1.0000
  O   O5        1.0  0.36722616688475535  0.4202370428532873  0.5001014276633811  1.0000
  O   O6        1.0  0.6327788713873659  0.5797619616520749  0.4998935269355301  1.0000
  O   O7        1.0  0.6328950979194019  0.42672443241274033  0.4970770695202589  1.0000
  O   O8        1.0  0.3671072934444056  0.5732779386800715  0.5029252925216738  1.0000
