data_image0
_chemical_formula_structural       Zn2H36C56N8O8
_chemical_formula_sum              "Zn2 H36 C56 N8 O8"
_cell_length_a       8.679749211051348
_cell_length_b       10.388164767842069
_cell_length_c       14.330095748683776
_cell_angle_alpha    82.1689977763119
_cell_angle_beta     91.3891967154567
_cell_angle_gamma    70.22038348945121

_space_group_name_H-M_alt    "P 1"
_space_group_IT_number       1

loop_
  _space_group_symop_operation_xyz
  'x, y, z'

loop_
  _atom_site_type_symbol
  _atom_site_label
  _atom_site_symmetry_multiplicity
  _atom_site_fract_x
  _atom_site_fract_y
  _atom_site_fract_z
  _atom_site_occupancy
  Zn  Zn1       1.0  0.2825112700199029  0.7032671085838799  0.7128988556591338  1.0000
  Zn  Zn2       1.0  0.71747418890903  0.29675367270922953  0.28710371472338647  1.0000
  H   H1        1.0  0.40255355157876954  0.6809993166098565  0.0721013579525902  1.0000
  H   H2        1.0  0.5974617427724097  0.318977807197264  0.9278990270839744  1.0000
  H   H3        1.0  0.4399533703952728  0.6331574511676122  0.24663172281557175  1.0000
  H   H4        1.0  0.5600552829180786  0.3668249107603359  0.7533701603953277  1.0000
  H   H5        1.0  0.9860810109966993  0.9709687411946959  0.25157039962367383  1.0000
  H   H6        1.0  0.013929545317139998  0.029029050783535106  0.748427778485116  1.0000
  H   H7        1.0  0.9680115425304693  0.0082914095399715  0.0768340440153779  1.0000
  H   H8        1.0  0.03201246226247188  0.9917072654466137  0.9231627348584653  1.0000
  H   H9        1.0  0.49791266696976777  0.687390325517036  0.3818833414467449  1.0000
  H   H10       1.0  0.5020968789729991  0.3125931137321274  0.6181261112269925  1.0000
  H   H11       1.0  0.9689409749754175  0.8570167788644338  0.38506780902141463  1.0000
  H   H12       1.0  0.031069567290444425  0.1429954267942435  0.614926060301322  1.0000
  H   H13       1.0  0.7738168943745908  0.9175879886279644  0.4729106857623577  1.0000
  H   H14       1.0  0.22619159969254107  0.0823943143945485  0.5270828277739028  1.0000
  H   H15       1.0  0.5587101214414718  0.9640854753472184  0.5902642809541732  1.0000
  H   H16       1.0  0.44128947224287884  0.03591028634940589  0.40972287146645686  1.0000
  H   H17       1.0  0.6457210249635922  0.9009792246785365  0.7622600089786502  1.0000
  H   H18       1.0  0.35426515134106745  0.09903320557000228  0.23773018503016632  1.0000
  H   H19       1.0  0.9471714762098742  0.7891165524267764  0.8124727833261858  1.0000
  H   H20       1.0  0.052812571633595005  0.21089597027179252  0.18752715740308193  1.0000
  H   H21       1.0  0.7201828823892101  0.5994046824955033  0.46772809400810905  1.0000
  H   H22       1.0  0.27981214473057753  0.40058921540610726  0.5322801612269998  1.0000
  H   H23       1.0  0.9695891021543799  0.5072266041184149  0.582918938204408  1.0000
  H   H24       1.0  0.030397481755407883  0.4927540179705756  0.41709624136958473  1.0000
  H   H25       1.0  0.9330894327787718  0.4956492320652758  0.7552649143242649  1.0000
  H   H26       1.0  0.06688823487885295  0.5043510851871531  0.2447502266295913  1.0000
  H   H27       1.0  0.6465355347760351  0.5807344571247199  0.808281137276218  1.0000
  H   H28       1.0  0.3534382051135907  0.41927821161575457  0.19172430268636023  1.0000
  H   H29       1.0  0.27380349211227895  0.3673352354852284  0.9431505731985868  1.0000
  H   H30       1.0  0.7262260046670618  0.6326707009490563  0.05685943596061089  1.0000
  H   H31       1.0  0.31414157260336134  0.13026792153501532  0.030384236608078697  1.0000
  H   H32       1.0  0.6858927834693918  0.869725568098346  0.9696236254533092  1.0000
  H   H33       1.0  0.33558661764615044  0.9368299285815098  0.9405944346819697  1.0000
  H   H34       1.0  0.6644372863184742  0.06317183028823341  0.059400623129413105  1.0000
  H   H35       1.0  0.2814000237239327  0.21216777508889353  0.6796564833779115  1.0000
  H   H36       1.0  0.7185689674566973  0.7878593155157958  0.3203390322156139  1.0000
  C   C1        1.0  0.3117505390151082  0.7443163291044783  0.11395586210358032  1.0000
  C   C2        1.0  0.6882664229816555  0.25567108235711805  0.8860427533211279  1.0000
  C   C3        1.0  0.3335833131784227  0.7177709196839784  0.21222079465967172  1.0000
  C   C4        1.0  0.6664269414279218  0.2822217053545089  0.7877758315749404  1.0000
  C   C5        1.0  0.21527718129905082  0.7981743003493803  0.26527790558708386  1.0000
  C   C6        1.0  0.7847413475149736  0.20182648264984948  0.7347172191633079  1.0000
  C   C7        1.0  0.08074010660570956  0.9031312002429888  0.2148503599573885  1.0000
  C   C8        1.0  0.9192801437134224  0.09686547145662418  0.7851493963858618  1.0000
  C   C9        1.0  0.07083730651194034  0.924217687455986  0.11649054961218751  1.0000
  C   C10       1.0  0.9291762629578105  0.07578420763810098  0.8835086124867361  1.0000
  C   C11       1.0  0.39661269455830717  0.698611581564343  0.5181880766365765  1.0000
  C   C12       1.0  0.6033866665081009  0.3013884022880405  0.4818118899633177  1.0000
  C   C13       1.0  0.3865842415010404  0.7171399178249019  0.4194504273301193  1.0000
  C   C14       1.0  0.6134279885716653  0.28285686637202184  0.580553451200629  1.0000
  C   C15       1.0  0.23140867106509685  0.775051847600409  0.3696204409166128  1.0000
  C   C16       1.0  0.7686022957192408  0.2249449091897445  0.630377848881068  1.0000
  C   C17       1.0  0.09146689789166369  0.8121459779440627  0.4212421887368123  1.0000
  C   C18       1.0  0.9085415662581157  0.1878569752482235  0.5787533385088964  1.0000
  C   C19       1.0  0.11105501697296209  0.7911557104324558  0.5198908276052308  1.0000
  C   C20       1.0  0.8889421253374935  0.20883809011034055  0.48010698343653513  1.0000
  C   C21       1.0  0.9735108464507647  0.8262095643281527  0.5824466586590304  1.0000
  C   C22       1.0  0.026482003546036005  0.1737863421813515  0.4175509021550354  1.0000
  C   C23       1.0  0.8086586504055902  0.8886677550624286  0.5485358541192014  1.0000
  C   C24       1.0  0.1913341411733143  0.11132500865847558  0.45145505808267933  1.0000
  C   C25       1.0  0.6887521532976493  0.916372672062437  0.613425466604305  1.0000
  C   C26       1.0  0.3112393670581995  0.0836231824963605  0.3865630181122627  1.0000
  C   C27       1.0  0.7360400104052687  0.8804123294765202  0.7097290575343538  1.0000
  C   C28       1.0  0.2639472495137767  0.1195887640200013  0.2902644306209297  1.0000
  C   C29       1.0  0.9028930826927495  0.8186376533669416  0.7380008186005045  1.0000
  C   C30       1.0  0.09709597224123458  0.18137065371846717  0.2619940159511458  1.0000
  C   C31       1.0  0.552596502791687  0.6395578143038775  0.5790560081247237  1.0000
  C   C32       1.0  0.44739465041963195  0.36043403613169284  0.42094894732381505  1.0000
  C   C33       1.0  0.7074414020934302  0.5953206803187426  0.5435232491043892  1.0000
  C   C34       1.0  0.29255434591649276  0.4046598125006327  0.4564871197592098  1.0000
  C   C35       1.0  0.8462949195508713  0.5426131425803007  0.6072006070707658  1.0000
  C   C36       1.0  0.15369950689089512  0.4573797859933889  0.3928154231049917  1.0000
  C   C37       1.0  0.8273661665036371  0.5364908508460147  0.7037683718695078  1.0000
  C   C38       1.0  0.17262170034481972  0.46351552249233674  0.2962427100363456  1.0000
  C   C39       1.0  0.6688560494873101  0.5829859035810115  0.7335654440635225  1.0000
  C   C40       1.0  0.3311334459726255  0.4170163240962167  0.26644538712498195  1.0000
  C   C41       1.0  0.28437017985293517  0.2808762992088063  0.9052733743886137  1.0000
  C   C42       1.0  0.7156529748591113  0.7191306777344834  0.09472880613007818  1.0000
  C   C43       1.0  0.307320698639991  0.1488237853310963  0.9533749906674773  1.0000
  C   C44       1.0  0.6927002293814156  0.8511801265472765  0.0466281955408192  1.0000
  C   C45       1.0  0.3221839202057666  0.03924541927763411  0.9035558008069486  1.0000
  C   C46       1.0  0.6778116723388692  0.9607669749682302  0.09644283447630639  1.0000
  C   C47       1.0  0.31232500652050993  0.061761002068088496  0.8045594283465223  1.0000
  C   C48       1.0  0.6876750189776505  0.9382462170542564  0.19544327064553366  1.0000
  C   C49       1.0  0.28948738543597585  0.1942839482000593  0.7566114402667523  1.0000
  C   C50       1.0  0.710498446750769  0.8057295417804866  0.24338212941761134  1.0000
  C   C51       1.0  0.27620185568888894  0.30420430613138894  0.8061776189590191  1.0000
  C   C52       1.0  0.7237942693597644  0.6958008557073468  0.19382038530070392  1.0000
  C   C53       1.0  0.2625888905016751  0.44270693647703746  0.7520616850141338  1.0000
  C   C54       1.0  0.7373970318417308  0.5572972233134478  0.24792588829140533  1.0000
  C   C55       1.0  0.3127470668995472  0.9486542708735116  0.7490651521539463  1.0000
  C   C56       1.0  0.6872452214533312  0.0513550996236631  0.2509386647062684  1.0000
  N   N1        1.0  0.18351113808496694  0.8459984109549479  0.065656877897581  1.0000
  N   N2        1.0  0.8165040865373  0.15399934829559211  0.93434342842977  1.0000
  N   N3        1.0  0.26080508794693463  0.7356547735646828  0.5652365529354171  1.0000
  N   N4        1.0  0.7391969845679045  0.2643441464637988  0.4347628457804262  1.0000
  N   N5        1.0  0.018384544256534248  0.7933231161016109  0.6761783895746873  1.0000
  N   N6        1.0  0.9816072964131519  0.20668103345916927  0.3238162032095887  1.0000
  N   N7        1.0  0.5353932141839266  0.6318359909041434  0.6730496946012465  1.0000
  N   N8        1.0  0.4645951002096212  0.36815999742091055  0.32695271272312004  1.0000
  O   O1        1.0  0.27985719792092567  0.534005896007706  0.800652718461798  1.0000
  O   O2        1.0  0.7201102157707877  0.46600157675244713  0.19933857036476613  1.0000
  O   O3        1.0  0.24161859289003468  0.46220113245237837  0.6632795880930047  1.0000
  O   O4        1.0  0.7583796261440839  0.5378070453634222  0.3367104357482448  1.0000
  O   O5        1.0  0.31371590536161886  0.8335412102727628  0.7973549669210841  1.0000
  O   O6        1.0  0.6862616553544071  0.1664734862986137  0.2026509829365111  1.0000
  O   O7        1.0  0.3052145231428298  0.9721157095951439  0.6601922118828725  1.0000
  O   O8        1.0  0.6947901130233233  0.027873915421679402  0.3398095780287421  1.0000
