data_image0
_chemical_formula_structural       Zn8H32C49O44
_chemical_formula_sum              "Zn8 H32 C49 O44"
_cell_length_a       18.518233018620542
_cell_length_b       18.688375427498894
_cell_length_c       18.289806754320267
_cell_angle_alpha    90.92128781572669
_cell_angle_beta     121.06611343759796
_cell_angle_gamma    117.83345315180756

_space_group_name_H-M_alt    "P 1"
_space_group_IT_number       1

loop_
  _space_group_symop_operation_xyz
  'x, y, z'

loop_
  _atom_site_type_symbol
  _atom_site_label
  _atom_site_symmetry_multiplicity
  _atom_site_fract_x
  _atom_site_fract_y
  _atom_site_fract_z
  _atom_site_occupancy
  Zn  Zn1       1.0  0.918706397338106  0.4595032469594215  0.05124664361318299  1.0000
  Zn  Zn2       1.0  0.917756257328172  0.471057697162891  0.8749307960390382  1.0000
  Zn  Zn3       1.0  0.08617367700292533  0.45879240340620003  0.04499375888718055  1.0000
  Zn  Zn4       1.0  0.08693272564787682  0.6333303543980692  0.056989121966630356  1.0000
  Zn  Zn5       1.0  0.08240435092722011  0.03312573123837841  0.4531206764926524  1.0000
  Zn  Zn6       1.0  0.9102059504725944  0.04179294831136811  0.44505642795592587  1.0000
  Zn  Zn7       1.0  0.09147345674659851  0.046125247744534206  0.6305960437005425  1.0000
  Zn  Zn8       1.0  0.9108008146026735  0.8741077050936568  0.4607800569954037  1.0000
  H   H1        1.0  0.14042912246934947  0.8038722303631118  0.26344024123457643  1.0000
  H   H2        1.0  0.9354452651324437  0.302015381638185  0.7198858957932972  1.0000
  H   H3        1.0  0.6003222838509858  0.28294829424984175  0.897570570406579  1.0000
  H   H4        1.0  0.04404013544257189  0.8697654195384816  0.24036264100534063  1.0000
  H   H5        1.0  0.8549438739696812  0.5806292702753026  0.18265188023764986  1.0000
  H   H6        1.0  0.9707930815820238  0.614612668846576  0.2890331526864218  1.0000
  H   H7        1.0  0.8054343990779318  0.7146165183289028  0.236941213529967  1.0000
  H   H8        1.0  0.9301060042376509  0.8928142138915833  0.21411636310919868  1.0000
  H   H9        1.0  0.867585345998812  0.1522561718649484  0.1372144512021053  1.0000
  H   H10       1.0  0.1600617695672782  0.2564550897989336  0.22641538030417518  1.0000
  H   H11       1.0  0.5498389263832806  0.6198851794509039  0.25351856205266904  1.0000
  H   H12       1.0  0.8566811468609077  0.692629691970339  0.11053193275554939  1.0000
  H   H13       1.0  0.6305228859449701  0.9232779210379152  0.22308125198865292  1.0000
  H   H14       1.0  0.3268181214884295  0.5504935919200449  0.07198892153056145  1.0000
  H   H15       1.0  0.36831089893102126  0.7731921411819158  0.227313970214766  1.0000
  H   H16       1.0  0.021417509361100474  0.5831728867798064  0.7555961867339249  1.0000
  H   H17       1.0  0.9574275647878496  0.7965204112682971  0.7970932794855302  1.0000
  H   H18       1.0  0.8554593466242867  0.1507511320943422  0.7063513667763535  1.0000
  H   H19       1.0  0.46979967285762575  0.284051316123275  0.8787653360341778  1.0000
  H   H20       1.0  0.19064151815270244  0.8169913227719692  0.48312073226900765  1.0000
  H   H21       1.0  0.5021885680796178  0.17853712601338864  0.688812248454177  1.0000
  H   H22       1.0  0.6407215796428574  0.3774498262165125  0.7210496966822006  1.0000
  H   H23       1.0  0.13465664405470082  0.22980584431097387  0.33471419076821723  1.0000
  H   H24       1.0  0.18941998358771173  0.9376333065601088  0.3559180391910531  1.0000
  H   H25       1.0  0.033210048002786485  0.8330299042059297  0.11231163873805643  1.0000
  H   H26       1.0  0.9087678450475852  0.7037108740871291  0.38597953468015356  1.0000
  H   H27       1.0  0.9701679985205448  0.30393147976556617  0.22733484395386244  1.0000
  H   H28       1.0  0.14017690397955823  0.7269139980184748  0.3185708745551852  1.0000
  H   H29       1.0  0.9281104730161761  0.6994534830628752  0.6077390848156486  1.0000
  H   H30       1.0  0.09520750419999055  0.861829181900781  0.7799645006941847  1.0000
  H   H31       1.0  0.12131173849683564  0.24173487683786737  0.7878710588772152  1.0000
  H   H32       1.0  0.10544912116216666  0.30610171294954114  0.894501035555706  1.0000
  C   C1        1.0  0.011221566981568405  0.6504851948976695  0.8779359221976508  1.0000
  C   C2        1.0  0.015919582448923098  0.3152331069533077  0.20314295698455712  1.0000
  C   C3        1.0  0.5600547037951603  0.7255909527541679  0.251009547844909  1.0000
  C   C4        1.0  0.014728374559126739  0.37087720724576206  0.14782451056164095  1.0000
  C   C5        1.0  0.61698331392914  0.8133288740396196  0.2663287177885395  1.0000
  C   C6        1.0  0.447717784300558  0.6700146656970606  0.19120875279357122  1.0000
  C   C7        1.0  0.38838657688226164  0.6941710887193011  0.19198982834669928  1.0000
  C   C8        1.0  0.9806738826306615  0.7358707153566257  0.6804816933888064  1.0000
  C   C9        1.0  0.035318904465050704  0.822551314572138  0.7085667837319464  1.0000
  C   C10       1.0  0.9890148958291364  0.6853916078919298  0.7402084661776558  1.0000
  C   C11       1.0  0.007054488873571147  0.7082314061298975  0.8222486428543692  1.0000
  C   C12       1.0  0.9289380404530692  0.6368145251114684  0.2383239355314404  1.0000
  C   C13       1.0  0.04761277047316531  0.22981545290692657  0.7637572374295658  1.0000
  C   C14       1.0  0.9653774962296567  0.16468277090826433  0.6836639517623342  1.0000
  C   C15       1.0  0.048385733159960885  0.28451987330403483  0.8212702809486885  1.0000
  C   C16       1.0  0.7309529463881291  0.3793098369096413  0.8653559676998627  1.0000
  C   C17       1.0  0.9886735886202943  0.31509854671868714  0.7917899632169424  1.0000
  C   C18       1.0  0.4489125977078886  0.2304628877030695  0.7738485086052266  1.0000
  C   C19       1.0  0.38270465638002105  0.17891289937585955  0.6840044776790182  1.0000
  C   C20       1.0  0.5590980988935713  0.2805684907103655  0.8272288789595663  1.0000
  C   C21       1.0  0.6173474033709996  0.3305049128380517  0.8018734717585119  1.0000
  C   C22       1.0  0.7265799197496111  0.8684665761639467  0.34056694258440273  1.0000
  C   C23       1.0  0.9893744003401324  0.6900517644952302  0.20375969990426074  1.0000
  C   C24       1.0  0.27134569842250766  0.1344346343506402  0.6326914231856976  1.0000
  C   C25       1.0  0.9890321435228346  0.11426890419731003  0.34116736833715333  1.0000
  C   C26       1.0  0.019429176873579677  0.8713094215472951  0.6451010557954932  1.0000
  C   C27       1.0  0.9836959032144038  0.12359214043474512  0.6293490901438972  1.0000
  C   C28       1.0  0.2747042745970205  0.6356282069690593  0.14129109433675785  1.0000
  C   C29       1.0  0.9962006594957775  0.8506930356486823  0.3677140113733659  1.0000
  C   C30       1.0  0.9941401316829401  0.37085678964582064  0.8552140345041936  1.0000
  C   C31       1.0  0.9914672396367977  0.6346064050934289  0.14376603093337093  1.0000
  C   C32       1.0  0.09962332040514361  0.7577605803250054  0.28601884696286123  1.0000
  C   C33       1.0  0.1011155308007901  0.8033104669400404  0.35956293303859616  1.0000
  C   C34       1.0  0.9945009713486856  0.7893833421113998  0.31043656244322204  1.0000
  C   C35       1.0  0.9392217224279238  0.7378199088886819  0.15048803612125294  1.0000
  C   C36       1.0  0.8730007878605337  0.1284000158490386  0.19409274001138502  1.0000
  C   C37       1.0  0.5744846448132325  0.8538767957805505  0.20324721221460632  1.0000
  C   C38       1.0  0.4016358384515968  0.5819160297792436  0.13802575464524838  1.0000
  C   C39       1.0  0.9733543913753383  0.6022258719648903  0.7046268075549451  1.0000
  C   C40       1.0  0.009174267171864769  0.7838765581725441  0.8537955856082107  1.0000
  C   C41       1.0  0.8599573846212325  0.1276536313833248  0.653165381319326  1.0000
  C   C42       1.0  0.4237290448292797  0.16240606549435202  0.6394951100251591  1.0000
  C   C43       1.0  0.19015282782300622  0.8980710335514888  0.4005490556261862  1.0000
  C   C44       1.0  0.9632508413713556  0.7675108809223306  0.08458140802180499  1.0000
  C   C45       1.0  0.9723497326610443  0.8127112467162976  0.22200002249152828  1.0000
  C   C46       1.0  0.9117439102942556  0.6916136384674587  0.28267556779323405  1.0000
  C   C47       1.0  0.06239329199479472  0.22087627247430672  0.2817981050696758  1.0000
  C   C48       1.0  0.977830732592523  0.1593886614103965  0.2724028555160419  1.0000
  C   C49       1.0  0.0684821128635846  0.27712644691092697  0.2275953896922616  1.0000
  O   O1        1.0  0.003425608822055863  0.5069823111681728  0.00756961619723033  1.0000
  O   O2        1.0  0.07320016733805092  0.9527710557271691  0.6827992948226865  1.0000
  O   O3        1.0  0.9281164871159079  0.10754496591791005  0.5444174022719042  1.0000
  O   O4        1.0  0.07911119122017851  0.685104785028841  0.9629298196701442  1.0000
  O   O5        1.0  0.9266170586644195  0.8196974705614937  0.3791105049668744  1.0000
  O   O6        1.0  0.05421305134685642  0.11083048924437831  0.6740713952635105  1.0000
  O   O7        1.0  0.06624439660078  0.9300321818452135  0.39716268709727853  1.0000
  O   O8        1.0  0.031585935251840204  0.07434700072123232  0.3494931630028121  1.0000
  O   O9        1.0  0.9535606108297473  0.828755534861344  0.5601233428700073  1.0000
  O   O10       1.0  0.7720744457246059  0.9485744312500305  0.3488917956438159  1.0000
  O   O11       1.0  0.23307088453824323  0.10708299730860922  0.6757746394851624  1.0000
  O   O12       1.0  0.7734706442806641  0.3809383253348884  0.9467214750834645  1.0000
  O   O13       1.0  0.9527754372853753  0.3934052309635236  0.12833749897119873  1.0000
  O   O14       1.0  0.7738594091628034  0.41517066901564464  0.8275491529352481  1.0000
  O   O15       1.0  0.2307450855133126  0.5554166560430361  0.10772480895955283  1.0000
  O   O16       1.0  0.9323503818659092  0.3944647900599351  0.8179492023494391  1.0000
  O   O17       1.0  0.05903002622451928  0.6756595580605165  0.1305058592271351  1.0000
  O   O18       1.0  0.05815796935540625  0.39060145416934233  0.9402682940440102  1.0000
  O   O19       1.0  0.9287031213746033  0.553674055845889  0.11344659220485215  1.0000
  O   O20       1.0  0.8133176838036038  0.6729412733547734  0.21453573770395465  1.0000
  O   O21       1.0  0.8970787174086824  0.8322215017917359  0.18340451296361243  1.0000
  O   O22       1.0  0.7972393228533434  0.07676614026450322  0.18852864928380336  1.0000
  O   O23       1.0  0.23398122519266473  0.6756617048064445  0.13970948023153812  1.0000
  O   O24       1.0  0.13330323978266995  0.2920859461890616  0.20628023356609057  1.0000
  O   O25       1.0  0.6039249360164122  0.6838143278332751  0.2885115084603387  1.0000
  O   O26       1.0  0.4880071993771441  0.8172679796991108  0.13232675914353834  1.0000
  O   O27       1.0  0.44563397842320285  0.5438775894768497  0.16307899778903595  1.0000
  O   O28       1.0  0.42696701570246637  0.7719370382477565  0.24166101187679362  1.0000
  O   O29       1.0  0.9132790226620744  0.5592496622279912  0.6241879522267483  1.0000
  O   O30       1.0  0.05844010406104887  0.8271023157985272  0.9328711468813183  1.0000
  O   O31       1.0  0.7831746621389968  0.07254826628418702  0.5801146680399613  1.0000
  O   O32       1.0  0.4129441393269462  0.23875534906787274  0.8198654624900784  1.0000
  O   O33       1.0  0.12175558311940925  0.7697848878105309  0.43129321717473373  1.0000
  O   O34       1.0  0.9428553293114776  0.5703238714681407  0.8331092248456786  1.0000
  O   O35       1.0  0.3791596133604785  0.13084831016875145  0.5580066280666643  1.0000
  O   O36       1.0  0.5807862498392211  0.3402110428435919  0.7200207908196959  1.0000
  O   O37       1.0  0.2639488516357461  0.925815439043781  0.4791837313982229  1.0000
  O   O38       1.0  0.9099806894478208  0.7236438873137774  0.005075884109629959  1.0000
  O   O39       1.0  0.9158349932090604  0.6662899262439482  0.3559642184169863  1.0000
  O   O40       1.0  0.07289059699910887  0.392537351923707  0.12273719246299211  1.0000
  O   O41       1.0  0.9992159151753628  0.9990401383954507  0.4974356443808999  1.0000
  O   O42       1.0  0.7698980294934544  0.8352259547082214  0.39321755576896333  1.0000
  O   O43       1.0  0.22172931064558554  0.12481379818711962  0.5482503515301219  1.0000
  O   O44       1.0  0.9558954070313707  0.12135303343595893  0.3845902630723117  1.0000
