data_image0
_chemical_formula_structural       H48Pb4C56O20
_chemical_formula_sum              "H48 Pb4 C56 O20"
_cell_length_a       7.451503328
_cell_length_b       11.380573506962271
_cell_length_c       15.411
_cell_angle_alpha    91.28677160059009
_cell_angle_beta     90.0
_cell_angle_gamma    90.0

_space_group_name_H-M_alt    "P 1"
_space_group_IT_number       1

loop_
  _space_group_symop_operation_xyz
  'x, y, z'

loop_
  _atom_site_type_symbol
  _atom_site_label
  _atom_site_symmetry_multiplicity
  _atom_site_fract_x
  _atom_site_fract_y
  _atom_site_fract_z
  _atom_site_occupancy
  H   H1        1.0  0.41578992367323747  0.572330784021176  0.5465005148147881  1.0000
  H   H2        1.0  0.9157977524290499  0.9276951137356377  0.4534890133558633  1.0000
  H   H3        1.0  0.5842324438937678  0.4276882389739995  0.453495128665118  1.0000
  H   H4        1.0  0.0842541393816276  0.0723159990516891  0.5465097433810657  1.0000
  H   H5        1.0  0.3785893766428997  0.54609174567981  0.4449661654182009  1.0000
  H   H6        1.0  0.8785824432768761  0.9539288786051046  0.5550239241870969  1.0000
  H   H7        1.0  0.6214061507025903  0.4539307929632983  0.5550282385890597  1.0000
  H   H8        1.0  0.12144260831228587  0.046095417861970106  0.4449737534067993  1.0000
  H   H9        1.0  0.6910189492436343  0.7164327981987881  0.24113797270586454  1.0000
  H   H10       1.0  0.1910231985875086  0.7835649743745706  0.7588575779229743  1.0000
  H   H11       1.0  0.3089685260353931  0.2835660098207811  0.7588670688467902  1.0000
  H   H12       1.0  0.8089817228355114  0.2164276812611163  0.2411408727301634  1.0000
  H   H13       1.0  0.6576726580239407  0.6724889568712769  0.08308913488610162  1.0000
  H   H14       1.0  0.15766751329027776  0.8275026633181995  0.916908909263441  1.0000
  H   H15       1.0  0.3423094492107808  0.3275089722363091  0.9169178387526105  1.0000
  H   H16       1.0  0.8423266720441303  0.1724917501414538  0.08309086831484788  1.0000
  H   H17       1.0  0.8084569965047448  0.49769182059834094  0.016251645137025202  1.0000
  H   H18       1.0  0.3084558778043131  0.0023027493955396  0.9837465777079687  1.0000
  H   H19       1.0  0.19152913676320787  0.5023087452451946  0.9837521277921513  1.0000
  H   H20       1.0  0.6915289134525651  0.997697816447996  0.016252004123934703  1.0000
  H   H21       1.0  0.982973458855845  0.36167403884063287  0.1101331718096432  1.0000
  H   H22       1.0  0.48297502417756266  0.1383196522412646  0.8898682808957261  1.0000
  H   H23       1.0  0.017018042456413692  0.6383282848268692  0.889870630270366  1.0000
  H   H24       1.0  0.5170191611568455  0.861676519042355  0.11013282360772082  1.0000
  H   H25       1.0  0.0103965598067859  0.4055748134809747  0.267836087465561  1.0000
  H   H26       1.0  0.5104124406290538  0.09442151433686521  0.7321673556275385  1.0000
  H   H27       1.0  0.9895949415054729  0.5944248734505777  0.7321657242267252  1.0000
  H   H28       1.0  0.489599190849347  0.9055693834748553  0.2678356080848658  1.0000
  H   H29       1.0  0.9854561793466842  0.9584552753177107  0.2062410289924372  1.0000
  H   H30       1.0  0.4854577446684089  0.5415354659597895  0.7937537561458969  1.0000
  H   H31       1.0  0.0145406900098735  0.0415488061737577  0.7937602066897825  1.0000
  H   H32       1.0  0.5145337566438499  0.45846070532383015  0.20624410392175466  1.0000
  H   H33       1.0  0.0159551696841191  0.8868538317082226  0.052535945757057306  1.0000
  H   H34       1.0  0.5159428682737894  0.6131369095692705  0.9474555949454811  1.0000
  H   H35       1.0  0.9840443836945949  0.11315024978324571  0.9474620454893669  1.0000
  H   H36       1.0  0.4840405809720138  0.3868575038903828  0.0525415870841783  1.0000
  H   H37       1.0  0.192212220400954  0.7045112360609737  0.019440044616033002  1.0000
  H   H38       1.0  0.6922039450238557  0.795481263040486  0.9805547696731409  1.0000
  H   H39       1.0  0.8077578087340809  0.2954875719585885  0.9805611036136741  1.0000
  H   H40       1.0  0.30778621427732117  0.2045122715071841  0.019444344442575805  1.0000
  H   H41       1.0  0.33056282626141337  0.5938421548058272  0.1393710370397372  1.0000
  H   H42       1.0  0.8305666289839948  0.9061459497357234  0.8606250021466553  1.0000
  H   H43       1.0  0.6694058608625537  0.40614786409391  0.8606254232256704  1.0000
  H   H44       1.0  0.1694342664057942  0.0938431902520307  0.1393753368662871  1.0000
  H   H45       1.0  0.30158612310560057  0.6672515203644025  0.2917058034232981  1.0000
  H   H46       1.0  0.8015899258281889  0.8327418576490402  0.7082916209899183  1.0000
  H   H47       1.0  0.6983973261402026  0.3327464087431835  0.7082959791181411  1.0000
  H   H48       1.0  0.19840962755052516  0.1672516768986299  0.2917081420129506  1.0000
  Pb  Pb1       1.0  0.03307520498231749  0.687676555938026  0.5264290521087532  1.0000
  Pb  Pb2       1.0  0.5330749816716747  0.8123396737869796  0.47357199570114983  1.0000
  Pb  Pb3       1.0  0.9669954749834344  0.3123196153455936  0.473561670200155  1.0000
  Pb  Pb4       1.0  0.4669916722608462  0.18770044309579248  0.5264376242191346  1.0000
  C   C1        1.0  0.8503331101243246  0.5627972257412566  0.2641822698973614  1.0000
  C   C2        1.0  0.3503373594681988  0.9372031835680517  0.7358172177806852  1.0000
  C   C3        1.0  0.14966107521008346  0.4371998244543462  0.735820146955824  1.0000
  C   C4        1.0  0.6496648779326717  0.0627947455395272  0.2641852136479201  1.0000
  C   C5        1.0  0.7508001746409503  0.6377859961333385  0.21186864521833834  1.0000
  C   C6        1.0  0.2508044239848175  0.8622117764400201  0.7881320965077663  1.0000
  C   C7        1.0  0.24918595862700235  0.3622110540622643  0.7881383138449538  1.0000
  C   C8        1.0  0.7492004974382027  0.1377861526675659  0.21186968603367262  1.0000
  C   C9        1.0  0.7340975047874279  0.6130903272341754  0.1233551533807429  1.0000
  C   C10       1.0  0.23410175413129505  0.8869074453391904  0.8766384505866258  1.0000
  C   C11       1.0  0.2658899704915995  0.3869040862254778  0.8766433264232347  1.0000
  C   C12       1.0  0.7658991412584937  0.11308608920847972  0.1233561213189844  1.0000
  C   C13       1.0  0.8175719357338238  0.514229428471026  0.08612488395142753  1.0000
  C   C14       1.0  0.3175721590444667  0.9857683441023397  0.913875208887518  1.0000
  C   C15       1.0  0.18241956557843506  0.4857693795485432  0.913878859826909  1.0000
  C   C16       1.0  0.6824220262899414  0.0142304639172295  0.08612593934218182  1.0000
  C   C17       1.0  0.9151361409685207  0.43831164811287954  0.13835886258419092  1.0000
  C   C18       1.0  0.41514307433454417  0.06168907426487641  0.8616420578373722  1.0000
  C   C19       1.0  0.0848526763215887  0.5616880388186729  0.861642949108095  1.0000
  C   C20       1.0  0.5848591630663265  0.938310612666669  0.13835650941911845  1.0000
  C   C21       1.0  0.9306403949310533  0.4623929575359043  0.22708603227380314  1.0000
  C   C22       1.0  0.4306513543303082  0.0376068859298684  0.7729174691209764  1.0000
  C   C23       1.0  0.06934842235904877  0.5376058504836649  0.7729183603916925  1.0000
  C   C24       1.0  0.5693562511148613  0.9623910431777176  0.22708755785625814  1.0000
  C   C25       1.0  0.8825668741619097  0.5956694128185447  0.3571205009730179  1.0000
  C   C26       1.0  0.3825764915500827  0.9043380277866291  0.6428810499698514  1.0000
  C   C27       1.0  0.11743536323896107  0.4043329108489573  0.642880705558355  1.0000
  C   C28       1.0  0.6174311138950868  0.09566517479285612  0.3571214689112595  1.0000
  C   C29       1.0  0.1455853875718773  0.8195397207519548  0.25758472048232767  1.0000
  C   C30       1.0  0.6455905323055402  0.680453657261495  0.742413352818055  1.0000
  C   C31       1.0  0.8543953776517694  0.18046084509158083  0.7424158080110531  1.0000
  C   C32       1.0  0.3544143891174798  0.3195425140221246  0.2575851561367628  1.0000
  C   C33       1.0  0.063631455174729  0.8801820108450472  0.1901055321619367  1.0000
  C   C34       1.0  0.5636258638197871  0.6198052147845203  0.8098885457875583  1.0000
  C   C35       1.0  0.9363613881485973  0.1198167971745221  0.8098917227448155  1.0000
  C   C36       1.0  0.4363656374924716  0.3801848041152169  0.1901072655906901  1.0000
  C   C37       1.0  0.08081322298243518  0.8393706118250535  0.10465162990869462  1.0000
  C   C38       1.0  0.5808089736385609  0.6606227661883963  0.8953431989558923  1.0000
  C   C39       1.0  0.9191769363187487  0.1606369853143477  0.8953535573981457  1.0000
  C   C40       1.0  0.4191798436515413  0.3393725261832401  0.10465334876202802  1.0000
  C   C41       1.0  0.1784847891032157  0.7369984596897012  0.0861730726329242  1.0000
  C   C42       1.0  0.6784751717150426  0.7629878870278831  0.913820341853999  1.0000
  C   C43       1.0  0.8214986601425804  0.2629985905059016  0.9138235042358362  1.0000
  C   C44       1.0  0.3215123035639849  0.2370038896958206  0.0861767964494078  1.0000
  C   C45       1.0  0.2579264767658458  0.6751133880526012  0.15333186544402366  1.0000
  C   C46       1.0  0.7579262534552028  0.8248799899608414  0.8466655589691997  1.0000
  C   C47       1.0  0.742054288457801  0.3248862988789512  0.8466705951354145  1.0000
  C   C48       1.0  0.24206793187920533  0.175115302410795  0.1533342331845091  1.0000
  C   C49       1.0  0.2419780171371073  0.7161401205084416  0.2388951072816852  1.0000
  C   C50       1.0  0.7419777938264642  0.783847984033109  0.7610989852432298  1.0000
  C   C51       1.0  0.7580081161308456  0.2838560507751779  0.7611001572373298  1.0000
  C   C52       1.0  0.2580177335190186  0.21614291377861153  0.2389000851462342  1.0000
  C   C53       1.0  0.12746018597765385  0.8643132549914441  0.34914741483042633  1.0000
  C   C54       1.0  0.6274733827777723  0.635677486286049  0.6508473703079077  1.0000
  C   C55       1.0  0.8725286313124483  0.1356741271723436  0.6508509483701987  1.0000
  C   C56       1.0  0.3725436167449274  0.36431780608558745  0.3491498262971717  1.0000
  O   O1        1.0  0.3548116243960137  0.6033220994547861  0.4939607956857728  1.0000
  O   O2        1.0  0.8548301892404382  0.8966906146222868  0.5060291627407594  1.0000
  O   O3        1.0  0.6451946390380809  0.3966951657164302  0.5060367653047706  1.0000
  O   O4        1.0  0.1452042564262541  0.1033266505489223  0.4939696960241023  1.0000
  O   O5        1.0  0.8160447271291886  0.6910014799698274  0.3879746847208453  1.0000
  O   O6        1.0  0.3160288463069207  0.8090121130192287  0.612020479378373  1.0000
  O   O7        1.0  0.18398166647104824  0.3090113906414658  0.6120228033926055  1.0000
  O   O8        1.0  0.6839599709831887  0.191002515416038  0.3879750912244404  1.0000
  O   O9        1.0  0.9865297882075905  0.5310843235695799  0.40237480750152343  1.0000
  O   O10       1.0  0.4865447736400695  0.9689160857397283  0.5976344134838955  1.0000
  O   O11       1.0  0.0134778172375789  0.46891536336197254  0.5976244086421192  1.0000
  O   O12       1.0  0.5134883300155478  0.0310827222798409  0.4023803613761316  1.0000
  O   O13       1.0  0.039735605953147485  0.9586996128489886  0.3638558784411502  1.0000
  O   O14       1.0  0.5397595388418779  0.5412928862524709  0.636138935848017  1.0000
  O   O15       1.0  0.9602303971486633  0.0412789801949671  0.6361488278768734  1.0000
  O   O16       1.0  0.4602668547583589  0.4587050428551152  0.3638537622732089  1.0000
  O   O17       1.0  0.20161971804463255  0.8039952834200932  0.40885701554688586  1.0000
  O   O18       1.0  0.7016288888115199  0.6960033680652487  0.5911404963188431  1.0000
  O   O19       1.0  0.7983959394669922  0.1960044035114592  0.5911357117251727  1.0000
  O   O20       1.0  0.2983907947333363  0.3039980766902701  0.4088619934114348  1.0000
