data_image0
_chemical_formula_structural       Er4H32C24O28
_chemical_formula_sum              "Er4 H32 C24 O28"
_cell_length_a       7.600282358517399
_cell_length_b       10.642469178822536
_cell_length_c       12.63730070894565
_cell_angle_alpha    95.36706160388161
_cell_angle_beta     107.48937812745051
_cell_angle_gamma    110.92591693625043

_space_group_name_H-M_alt    "P 1"
_space_group_IT_number       1

loop_
  _space_group_symop_operation_xyz
  'x, y, z'

loop_
  _atom_site_type_symbol
  _atom_site_label
  _atom_site_symmetry_multiplicity
  _atom_site_fract_x
  _atom_site_fract_y
  _atom_site_fract_z
  _atom_site_occupancy
  Er  Er1       1.0  0.7568078547350585  0.3105278901849644  0.7703855910036455  1.0000
  Er  Er2       1.0  0.1758954465255231  0.1894216747461073  0.7296571246779991  1.0000
  Er  Er3       1.0  0.24319181989353228  0.6894733683319032  0.22961455495940447  1.0000
  Er  Er4       1.0  0.8241045902209622  0.8105775198313339  0.2703442202357991  1.0000
  H   H1        1.0  0.1488360373089037  0.13556298468746766  0.04042990138588459  1.0000
  H   H2        1.0  0.4729574818927915  0.3644547549814233  0.4596314877022891  1.0000
  H   H3        1.0  0.8511679981129421  0.8644372419781162  0.9595708828610868  1.0000
  H   H4        1.0  0.5270411232498519  0.6355454695899068  0.5403666340367012  1.0000
  H   H5        1.0  0.12549158707943775  0.25734296083029307  0.1369608580847554  1.0000
  H   H6        1.0  0.23131507732077958  0.24271864292374795  0.36308536067964076  1.0000
  H   H7        1.0  0.874508785395946  0.7426562329805009  0.8630394451109709  1.0000
  H   H8        1.0  0.768683373151909  0.7572805504445127  0.636914402252785  1.0000
  H   H9        1.0  0.4898818207660938  0.2982218717910284  0.1504540333258717  1.0000
  H   H10       1.0  0.5412238834412266  0.2018376632180789  0.34958467811483024  1.0000
  H   H11       1.0  0.5101196900963532  0.7017824844487563  0.8495466871831213  1.0000
  H   H12       1.0  0.4587718518918607  0.7981615291030548  0.650413753563605  1.0000
  H   H13       1.0  0.4331271652923476  0.336007885215551  0.015192195383768573  1.0000
  H   H14       1.0  0.5819095429307026  0.16399863826960365  0.4848281082150833  1.0000
  H   H15       1.0  0.5668748623579561  0.6639954382878697  0.9848080828825304  1.0000
  H   H16       1.0  0.4180885454240911  0.8360026190380836  0.5151704557666009  1.0000
  H   H17       1.0  0.01930613610188915  0.36267180954001077  0.46861053971819905  1.0000
  H   H18       1.0  0.6880080221254019  0.13732078370750136  0.031266545779857255  1.0000
  H   H19       1.0  0.980693166887555  0.6373263503252531  0.531387739253475  1.0000
  H   H20       1.0  0.3119922550598848  0.8626763447926391  0.9687331236578701  1.0000
  H   H21       1.0  0.19699332967687866  0.49907940453788047  0.5819910465677581  1.0000
  H   H22       1.0  0.6158154161296212  0.0008158784805801  0.917929594486246  1.0000
  H   H23       1.0  0.803006766449464  0.5009187559319769  0.4180080233945915  1.0000
  H   H24       1.0  0.38418449893777046  0.9991833139589869  0.08206887600073999  1.0000
  H   H25       1.0  0.1888944543003037  0.4951527446622704  0.8527383810797745  1.0000
  H   H26       1.0  0.34096058829068454  0.004812859356412999  0.6471660049548406  1.0000
  H   H27       1.0  0.8111046082503323  0.5048474812802937  0.14726157336796314  1.0000
  H   H28       1.0  0.6590378621819967  0.995186334011848  0.3528337579775851  1.0000
  H   H29       1.0  0.08435510021539731  0.5772058754164389  0.9121621663551239  1.0000
  H   H30       1.0  0.09496637791922782  0.922780061154178  0.5878007517255384  1.0000
  H   H31       1.0  0.9156476252817  0.42279538338091527  0.08783826914385878  1.0000
  H   H32       1.0  0.9050334777683063  0.0772201653929798  0.41219999371288907  1.0000
  C   C1        1.0  0.027935053528885773  0.26811741025993285  0.9627120975031077  1.0000
  C   C2        1.0  0.2970577902406293  0.23196781802221977  0.5373616399998512  1.0000
  C   C3        1.0  0.9720627848658483  0.7318807505340316  0.03728747391400583  1.0000
  C   C4        1.0  0.7029409365811078  0.7680324086869845  0.46263935616595125  1.0000
  C   C5        1.0  0.16969150975874214  0.2434299247269394  0.0632014617876138  1.0000
  C   C6        1.0  0.3631245808151392  0.25660449293886234  0.4368625427751097  1.0000
  C   C7        1.0  0.8303113967972994  0.7565703021006981  0.9367995731867326  1.0000
  C   C8        1.0  0.6368744817354967  0.7433957330037015  0.5631374116726278  1.0000
  C   C9        1.0  0.39266354439984497  0.3370766575388302  0.09170407104598868  1.0000
  C   C10       1.0  0.46387587165866523  0.16294506306353898  0.40833160704661253  1.0000
  C   C11       1.0  0.6073378711725044  0.6629256333902943  0.9082960157049983  1.0000
  C   C12       1.0  0.5361222166961285  0.8370561942441485  0.5916669569350717  1.0000
  C   C13       1.0  0.45143212953989587  0.486908990092047  0.14623675838173258  1.0000
  C   C14       1.0  0.3182544019022729  0.013100492884802898  0.3537295980106451  1.0000
  C   C15       1.0  0.5485717248230061  0.5130922685432537  0.8537634263898681  1.0000
  C   C16       1.0  0.6817465826510727  0.9868997335002943  0.6462708967004006  1.0000
  C   C17       1.0  0.923409709007288  0.39339338248782235  0.6063593765873777  1.0000
  C   C18       1.0  0.423554804366404  0.10648034132449166  0.8935976617913823  1.0000
  C   C19       1.0  0.07658987033120473  0.6066058107183847  0.3936401356176731  1.0000
  C   C20       1.0  0.5764488953265428  0.8935198861077394  0.10640416417365368  1.0000
  C   C21       1.0  0.034823802744476565  0.44984341295864283  0.5297784112115664  1.0000
  C   C22       1.0  0.5551716123109929  0.05009254200393799  0.9701720540162598  1.0000
  C   C23       1.0  0.9651751645160618  0.5501547476732611  0.47022090947816514  1.0000
  C   C24       1.0  0.444829458011192  0.9499045871007893  0.02982840641215033  1.0000
  O   O1        1.0  0.02397654029068981  0.23421998705309474  0.8613528333956851  1.0000
  O   O2        1.0  0.4283255333304226  0.2659608895989507  0.6387228277381425  1.0000
  O   O3        1.0  0.976023039047803  0.7657792061531125  0.13864667880935846  1.0000
  O   O4        1.0  0.5716741412981677  0.734040368917917  0.36127731822490733  1.0000
  O   O5        1.0  0.9052686103026633  0.3192588497662214  0.9742935682279565  1.0000
  O   O6        1.0  0.11166272148872032  0.18072763572088485  0.5257661676414003  1.0000
  O   O7        1.0  0.09473002122897607  0.6807393116323225  0.025706794179839666  1.0000
  O   O8        1.0  0.8883365221208666  0.8192715582519694  0.47423438628171505  1.0000
  O   O9        1.0  0.31452657845774473  0.5186207473792307  0.16127642967423841  1.0000
  O   O10       1.0  0.13454852218929855  0.9814817397705151  0.33842649610343045  1.0000
  O   O11       1.0  0.6854691568753427  0.4813784449419032  0.8387220020042038  1.0000
  O   O12       1.0  0.8654495925544837  0.018517454364385295  0.66157430854706  1.0000
  O   O13       1.0  0.6358817853453261  0.5711720763563406  0.17308353985492891  1.0000
  O   O14       1.0  0.39167916189935437  0.9288088996423339  0.3270256646683904  1.0000
  O   O15       1.0  0.3641202686939593  0.4288291839743008  0.8269189790801761  1.0000
  O   O16       1.0  0.6083206937881869  0.07119132690481679  0.6729750807700299  1.0000
  O   O17       1.0  0.9647701026444581  0.3040135761032444  0.660483926399131  1.0000
  O   O18       1.0  0.5001234342416511  0.19587918025596449  0.8394538581387323  1.0000
  O   O19       1.0  0.03522975304307629  0.6959866504439135  0.33951681903929665  1.0000
  O   O20       1.0  0.49987632615578564  0.8041189809805332  0.16054625354168192  1.0000
  O   O21       1.0  0.7898542076731232  0.43076955593357286  0.6192846715498065  1.0000
  O   O22       1.0  0.23972839013720923  0.06904371542543689  0.8807226087696096  1.0000
  O   O23       1.0  0.2101459837433168  0.5692306698469379  0.3807150321705564  1.0000
  O   O24       1.0  0.7602733875530278  0.9309565115642541  0.11927867693211874  1.0000
  O   O25       1.0  0.06509430408336671  0.5108253490273071  0.8444560587698291  1.0000
  O   O26       1.0  0.2098059990640669  0.9891285640028686  0.6555031942588487  1.0000
  O   O27       1.0  0.9349059826231781  0.48917694206386386  0.15554427870853962  1.0000
  O   O28       1.0  0.7901949854892723  0.010871662382236002  0.344497300452197  1.0000
