data_image0
_chemical_formula_structural       Zn2H24C16S4N8O12F12
_chemical_formula_sum              "Zn2 H24 C16 S4 N8 O12 F12"
_cell_length_a       9.192801421863482
_cell_length_b       9.607992066352374
_cell_length_c       11.027977973114707
_cell_angle_alpha    98.11006088800619
_cell_angle_beta     112.12392471635607
_cell_angle_gamma    92.85036057362004

_space_group_name_H-M_alt    "P 1"
_space_group_IT_number       1

loop_
  _space_group_symop_operation_xyz
  'x, y, z'

loop_
  _atom_site_type_symbol
  _atom_site_label
  _atom_site_symmetry_multiplicity
  _atom_site_fract_x
  _atom_site_fract_y
  _atom_site_fract_z
  _atom_site_occupancy
  Zn  Zn1       1.0  0.500000868545655  0.49999921881249076  0.5000004181446017  1.0000
  Zn  Zn2       1.0  0.49999387451521937  0.9999988104171965  0.49999675825772266  1.0000
  H   H1        1.0  0.13178021132385004  0.8810503070933039  0.4361429250062088  1.0000
  H   H2        1.0  0.8682215984230979  0.11894916533854882  0.5638616930618029  1.0000
  H   H3        1.0  0.9349662234789449  0.8446837022149084  0.4294100894257725  1.0000
  H   H4        1.0  0.06503584678569042  0.15531788616081602  0.5705948803863449  1.0000
  H   H5        1.0  0.9712996978955601  0.8274175895494198  0.27917820920708186  1.0000
  H   H6        1.0  0.02870459097780301  0.17258294481929684  0.7208273437605968  1.0000
  H   H7        1.0  0.8158252478833744  0.13451834848019936  0.154412770789932  1.0000
  H   H8        1.0  0.18417544503299155  0.8654811451342541  0.84558786185751  1.0000
  H   H9        1.0  0.6360740391769397  0.06482454248941139  0.01648463409912897  1.0000
  H   H10       1.0  0.36392779937160913  0.935174941524977  0.9835181810155048  1.0000
  H   H11       1.0  0.7109317191186123  0.9708338799165691  0.15261825980092428  1.0000
  H   H12       1.0  0.289068959396957  0.02916560790662  0.8473832743232065  1.0000
  H   H13       1.0  0.8545226989140173  0.5633473868562291  0.21770142868478354  1.0000
  H   H14       1.0  0.14547716714268688  0.4366552613177603  0.7823020564950767  1.0000
  H   H15       1.0  0.8130711648871767  0.5867454592876414  0.365171606604136  1.0000
  H   H16       1.0  0.1869275267357438  0.41325718690388413  0.6348314990619102  1.0000
  H   H17       1.0  0.9370791679577977  0.45525356234205827  0.3412638191894858  1.0000
  H   H18       1.0  0.06291704453870751  0.5447480219126035  0.6587383515768934  1.0000
  H   H19       1.0  0.4826362905257043  0.3290848619932234  0.202139560091915  1.0000
  H   H20       1.0  0.5173671564355686  0.6709178152932298  0.7978614577226042  1.0000
  H   H21       1.0  0.4783659893106886  0.2639778152096284  0.03957698163986836  1.0000
  H   H22       1.0  0.5216386176835641  0.7360248582680243  0.9604253171651537  1.0000
  H   H23       1.0  0.6525379907276515  0.3630712344755906  0.1648956542252478  1.0000
  H   H24       1.0  0.34746426739903313  0.6369314350371342  0.8351058855521529  1.0000
  C   C1        1.0  0.18150761810267113  0.6246866781701074  0.4433680292609523  1.0000
  C   C2        1.0  0.8184917269186655  0.3753117381161459  0.5566347524306962  1.0000
  C   C3        1.0  0.6008667575425407  0.11851536317207942  0.2964092399082787  1.0000
  C   C4        1.0  0.399134326150353  0.8814873043581742  0.7035919203553149  1.0000
  C   C5        1.0  0.0191167870229023  0.8145446276986874  0.3839888290614227  1.0000
  C   C6        1.0  0.9808887050858528  0.1854559202350288  0.6160153004666852  1.0000
  C   C7        1.0  0.6990295037424731  0.0757540339774749  0.1243099920870208  1.0000
  C   C8        1.0  0.3009714352907835  0.9242475697895787  0.8756918937812158  1.0000
  C   C9        1.0  0.9027147891393028  0.5606540736359805  0.3249335715369882  1.0000
  C   C10       1.0  0.0972859908335053  0.43934646057660853  0.6750699414125806  1.0000
  C   C11       1.0  0.5512411199867343  0.28586768824785486  0.14648186153657858  1.0000
  C   C12       1.0  0.4487633423478812  0.7141339214665978  0.8535211628730792  1.0000
  C   C13       1.0  0.27194051183098367  0.6182157484403277  0.1192851296490645  1.0000
  C   C14       1.0  0.728056382865546  0.3817816174915976  0.8807149141895394  1.0000
  C   C15       1.0  0.1536514987686743  0.12004274298675449  0.1725282861729127  1.0000
  C   C16       1.0  0.8463501800678019  0.8799546656226414  0.8274678668607792  1.0000
  S   S1        1.0  0.4518611130539369  0.7131539077178105  0.2608316589398214  1.0000
  S   S2        1.0  0.5481381449109648  0.28684346797031424  0.7391682424497077  1.0000
  S   S3        1.0  0.2237268021047356  0.21429894606560404  0.3477809578365054  1.0000
  S   S4        1.0  0.7762693809385439  0.7857016207559937  0.6522147267209917  1.0000
  N   N1        1.0  0.3054568833382518  0.5851908670729455  0.494898557132487  1.0000
  N   N2        1.0  0.6945436505176729  0.4148075569870429  0.5051037025962799  1.0000
  N   N3        1.0  0.5977503785820772  0.08721169158626911  0.3944956222313465  1.0000
  N   N4        1.0  0.40224706595142834  0.9127899178159283  0.6055033221420842  1.0000
  N   N5        1.0  0.0422038404561462  0.665610629193047  0.3916057388183418  1.0000
  N   N6        1.0  0.9577992883842299  0.3343899089844698  0.6083985331588408  1.0000
  N   N7        1.0  0.6069968503344754  0.15342404077959057  0.18904564338096463  1.0000
  N   N8        1.0  0.39300553805104954  0.8465796867050628  0.8109560722684889  1.0000
  O   O1        1.0  0.5197225437215778  0.5998526369163388  0.3340260139132525  1.0000
  O   O2        1.0  0.48027465469503744  0.40014686233325153  0.6659716772393837  1.0000
  O   O3        1.0  0.3490454637226961  0.3183378898230274  0.35258256867086163  1.0000
  O   O4        1.0  0.6509545923002662  0.6816563197230253  0.6474162831396343  1.0000
  O   O5        1.0  0.38405876042497783  0.8154038191423966  0.33047926714046133  1.0000
  O   O6        1.0  0.6159382206763623  0.1845935815371291  0.6695153678380025  1.0000
  O   O7        1.0  0.28121024096972036  0.10330030156001872  0.4273183725143426  1.0000
  O   O8        1.0  0.718778982527283  0.896701293964917  0.5726779152624246  1.0000
  O   O9        1.0  0.5471238266342767  0.771478025480029  0.1970660283836595  1.0000
  O   O10       1.0  0.4528753442741902  0.2285183096099601  0.8029309927037431  1.0000
  O   O11       1.0  0.08453719680579043  0.26907164144306256  0.3589448158880658  1.0000
  O   O12       1.0  0.9154605363953721  0.7309310896350072  0.6410443881138193  1.0000
  F   F1        1.0  0.1663099177760046  0.5605206380115959  0.1619496985724851  1.0000
  F   F2        1.0  0.8336886579888726  0.4394809559992652  0.8380523297448192  1.0000
  F   F3        1.0  0.27124530128992325  0.0595512972587429  0.14685573438003274  1.0000
  F   F4        1.0  0.7287535514976541  0.9404428987223175  0.8531445408700267  1.0000
  F   F5        1.0  0.1993839648825002  0.70837424421768  0.037441566017591334  1.0000
  F   F6        1.0  0.8006134796509983  0.29162736518451743  0.9625573783558324  1.0000
  F   F7        1.0  0.035908642086170096  0.015942267451379194  0.1485857364567451  1.0000
  F   F8        1.0  0.9640926582703814  0.9840614927984178  0.8514101908187612  1.0000
  F   F9        1.0  0.3130314382085118  0.5122418445133549  0.04686769533743982  1.0000
  F   F10       1.0  0.686961976389064  0.48775553284497875  0.9531285055296691  1.0000
  F   F11       1.0  0.0983279548124401  0.21168557004046565  0.08765733890886912  1.0000
  F   F12       1.0  0.901678233245505  0.7883097595112505  0.9123354730525081  1.0000
