data_image0
_chemical_formula_structural       Ag4H32C28S4O30
_chemical_formula_sum              "Ag4 H32 C28 S4 O30"
_cell_length_a       8.509276265272135
_cell_length_b       10.655966609269857
_cell_length_c       12.565620537555983
_cell_angle_alpha    115.30721435767057
_cell_angle_beta     99.96934023189829
_cell_angle_gamma    95.51316064922193

_space_group_name_H-M_alt    "P 1"
_space_group_IT_number       1

loop_
  _space_group_symop_operation_xyz
  'x, y, z'

loop_
  _atom_site_type_symbol
  _atom_site_label
  _atom_site_symmetry_multiplicity
  _atom_site_fract_x
  _atom_site_fract_y
  _atom_site_fract_z
  _atom_site_occupancy
  Ag  Ag1       1.0  0.4810380891945201  0.6235069177258906  0.41011381493771626  1.0000
  Ag  Ag2       1.0  0.5189636046931627  0.3764702035205971  0.5898642867829692  1.0000
  Ag  Ag3       1.0  0.9176015448722908  0.968272340497016  0.6207723824831601  1.0000
  Ag  Ag4       1.0  0.08243223805661867  0.0317261898238641  0.3792205525691584  1.0000
  H   H1        1.0  0.7855977336587188  0.033636647320463495  0.12927766509013588  1.0000
  H   H2        1.0  0.21438068632419774  0.966366315711497  0.8707390608072811  1.0000
  H   H3        1.0  0.12198240004093462  0.8068726370515763  0.1506118381143294  1.0000
  H   H4        1.0  0.8780296780052551  0.1931344108898827  0.8493922505030154  1.0000
  H   H5        1.0  0.7222533592090629  0.4503269783080981  0.8685760114796962  1.0000
  H   H6        1.0  0.27772344977388025  0.5496751277342752  0.1313988480404332  1.0000
  H   H7        1.0  0.37915886145384553  0.6599029039435749  0.8106143032424739  1.0000
  H   H8        1.0  0.6208178021213585  0.34011853344753723  0.189383309920828  1.0000
  H   H9        1.0  0.21532577696064686  0.7939097820918944  0.4890733431350253  1.0000
  H   H10       1.0  0.7846941283699423  0.20607637733925088  0.510932903422862  1.0000
  H   H11       1.0  0.14687904682342892  0.6271054800017452  0.40692096639701686  1.0000
  H   H12       1.0  0.8531388904042957  0.3728837041622909  0.5930797816787459  1.0000
  H   H13       1.0  0.839731406094593  0.3830179848681112  0.3155727662982101  1.0000
  H   H14       1.0  0.1602576739307437  0.6170047195903337  0.6844329302743473  1.0000
  H   H15       1.0  0.6946455403567598  0.4124922327203677  0.3771383252785227  1.0000
  H   H16       1.0  0.30535494743867986  0.5875318299047265  0.6228801609145831  1.0000
  H   H17       1.0  0.6651535902359882  0.11636300082489728  0.7008165217217623  1.0000
  H   H18       1.0  0.3348787808019368  0.8836272682078244  0.299182897340664  1.0000
  H   H19       1.0  0.7922759786480355  0.2218271140975503  0.6816936828662747  1.0000
  H   H20       1.0  0.20775834876942406  0.7781663843065871  0.3183094676367018  1.0000
  H   H21       1.0  0.6028353141330173  0.81975931640725  0.6540251627340437  1.0000
  H   H22       1.0  0.3971476789664409  0.1802373082927815  0.34598819244462925  1.0000
  H   H23       1.0  0.5484141978755304  0.984706336846955  0.8468481595885107  1.0000
  H   H24       1.0  0.45155794366571206  0.015277643665370997  0.15316438846183897  1.0000
  H   H25       1.0  0.9803724609543141  0.7023350721680544  0.8518880959430104  1.0000
  H   H26       1.0  0.019619118497146797  0.2976742470737719  0.14812903780546083  1.0000
  H   H27       1.0  0.8784065407766095  0.7064485466190503  0.3463069995975444  1.0000
  H   H28       1.0  0.12162407850377831  0.29354955611942307  0.6536655583396892  1.0000
  H   H29       1.0  0.9373205533346226  0.5183709017877974  0.16231726453721512  1.0000
  H   H30       1.0  0.0626918493917259  0.4816206652793297  0.8376471413470196  1.0000
  H   H31       1.0  0.5215248108329151  0.8022936530159085  0.11715768329684541  1.0000
  H   H32       1.0  0.478463776247402  0.1976984262886532  0.8828371176002248  1.0000
  C   C1        1.0  0.7964096671934515  0.7498325903626577  0.7408374332119789  1.0000
  C   C2        1.0  0.20357692885737316  0.250170328274514  0.2591753336214068  1.0000
  C   C3        1.0  0.6746914354228224  0.830451523345232  0.7393163441401708  1.0000
  C   C4        1.0  0.32529090196935323  0.16954725777615917  0.26070009624727664  1.0000
  C   C5        1.0  0.6444239046337117  0.9245034190054683  0.8469519772368983  1.0000
  C   C6        1.0  0.35555240969702595  0.0754890361300298  0.1530639973241179  1.0000
  C   C7        1.0  0.7363694933361628  0.9423535105622065  0.9586588547456854  1.0000
  C   C8        1.0  0.2636106337381818  0.05764096732532661  0.04135265189587051  1.0000
  C   C9        1.0  0.8586074316807812  0.8605115475118624  0.9595179734042246  1.0000
  C   C10       1.0  0.14137546382617933  0.13949566839986005  0.04050071479761638  1.0000
  C   C11       1.0  0.8866557652069175  0.7642788301614232  0.8497159018355658  1.0000
  C   C12       1.0  0.1133351824448781  0.23572827543323874  0.15029560681167445  1.0000
  C   C13       1.0  0.9543622068703783  0.8770674200243034  0.07529228240272781  1.0000
  C   C14       1.0  0.04563620383068209  0.12293112398240419  0.9247089937528867  1.0000
  C   C15       1.0  0.699520963848613  0.7686731616266512  0.24205925407530043  1.0000
  C   C16       1.0  0.300488740460807  0.23131353145771535  0.7579238500350056  1.0000
  C   C17       1.0  0.815665095733877  0.6875354581200882  0.25584751846215426  1.0000
  C   C18       1.0  0.1843610860763931  0.31246279476828687  0.744133397725946  1.0000
  C   C19       1.0  0.8474599361483615  0.5820307288945941  0.15445201266912525  1.0000
  C   C20       1.0  0.1525485562418822  0.4179694066321886  0.8455221941577304  1.0000
  C   C21       1.0  0.7631969728326451  0.554464951415717  0.03748028263650829  1.0000
  C   C22       1.0  0.2367916695970109  0.4455309124409723  0.9624943686800619  1.0000
  C   C23       1.0  0.6429918739424066  0.6339863784690039  0.024068655809678242  1.0000
  C   C24       1.0  0.35700381902519496  0.3660138527190497  0.9759130375962356  1.0000
  C   C25       1.0  0.6130846054170435  0.7413626386126639  0.127855872670203  1.0000
  C   C26       1.0  0.3869193575417711  0.2586410421535206  0.8721390311480304  1.0000
  C   C27       1.0  0.5525233215950749  0.6040821397456425  0.9017837731127114  1.0000
  C   C28       1.0  0.4474635278739997  0.39592654636285823  0.09820319752444814  1.0000
  S   S1        1.0  0.8407297103177173  0.6331708409040289  0.6045761498262079  1.0000
  S   S2        1.0  0.15926803393373487  0.36683955815955466  0.3954411986050416  1.0000
  S   S3        1.0  0.664414464143839  0.9072179890814951  0.3718342742380967  1.0000
  S   S4        1.0  0.33561489768846553  0.09276379663158  0.6281610377155714  1.0000
  O   O1        1.0  0.6806462281650099  0.5432886904945206  0.5231447230548978  1.0000
  O   O2        1.0  0.319353174381618  0.4567185190304812  0.47687007263206727  1.0000
  O   O3        1.0  0.9184966786656403  0.715864469391519  0.5535180744685845  1.0000
  O   O4        1.0  0.0814963671042364  0.2841406194104223  0.44649691447555284  1.0000
  O   O5        1.0  0.9473747077386107  0.546109375827747  0.6361934937920493  1.0000
  O   O6        1.0  0.05262149506759067  0.4538998921475964  0.3638201124413952  1.0000
  O   O7        1.0  0.7058864751785165  0.03634519604419491  0.06117423961984507  1.0000
  O   O8        1.0  0.2940870853268507  0.9636514323053831  0.9388413398530416  1.0000
  O   O9        1.0  0.9327459705836247  0.9666505952065877  0.17414973896038785  1.0000
  O   O10       1.0  0.0672466231790594  0.0333514368137173  0.8258696942941413  1.0000
  O   O11       1.0  0.059855531389182204  0.7931572246721998  0.06693992782879823  1.0000
  O   O12       1.0  0.9401458087404964  0.20685508177943746  0.9330673168245125  1.0000
  O   O13       1.0  0.8130439087250425  0.020364634010924493  0.428578502438178  1.0000
  O   O14       1.0  0.18699296128359313  0.9796173796929464  0.5714264130117923  1.0000
  O   O15       1.0  0.6393197821541465  0.8468204220506054  0.45552631026101403  1.0000
  O   O16       1.0  0.3607002568608451  0.153152660136108  0.5444554156121412  1.0000
  O   O17       1.0  0.5244077664544591  0.9589082894789485  0.33060096088257723  1.0000
  O   O18       1.0  0.4756167768381162  0.04109472992399079  0.6694085446324322  1.0000
  O   O19       1.0  0.7973404094291824  0.4522381504355976  0.9412300049886824  1.0000
  O   O20       1.0  0.2026429041611948  0.547761772183584  0.058739171454838784  1.0000
  O   O21       1.0  0.5833186764531887  0.5090067194101023  0.8088377388259784  1.0000
  O   O22       1.0  0.4166547361623856  0.4910070448347028  0.19114408757166498  1.0000
  O   O23       1.0  0.4437352686698119  0.6812593991615826  0.8983389439111489  1.0000
  O   O24       1.0  0.5562503562348553  0.3187527072134699  0.10166185118725207  1.0000
  O   O25       1.0  0.2237982570685801  0.7095522211331299  0.41659604109680237  1.0000
  O   O26       1.0  0.7762173529913952  0.2904369804238627  0.5834060681751579  1.0000
  O   O27       1.0  0.721454929781089  0.350455346678018  0.3006601080267544  1.0000
  O   O28       1.0  0.2785319352762415  0.6495736951999618  0.6993484031909957  1.0000
  O   O29       1.0  0.7833567590910067  0.1590339580976661  0.7219541125219138  1.0000
  O   O30       1.0  0.21668164673168636  0.8409563828166428  0.27804753940851146  1.0000
