data_image0
_chemical_formula_structural       Cd2H18C24N6O8
_chemical_formula_sum              "Cd2 H18 C24 N6 O8"
_cell_length_a       7.808914823653424
_cell_length_b       8.71235616756937
_cell_length_c       8.77668873741762
_cell_angle_alpha    84.74134935144843
_cell_angle_beta     88.84993569738802
_cell_angle_gamma    88.02741320897468

_space_group_name_H-M_alt    "P 1"
_space_group_IT_number       1

loop_
  _space_group_symop_operation_xyz
  'x, y, z'

loop_
  _atom_site_type_symbol
  _atom_site_label
  _atom_site_symmetry_multiplicity
  _atom_site_fract_x
  _atom_site_fract_y
  _atom_site_fract_z
  _atom_site_occupancy
  Cd  Cd1       1.0  0.25372151347905  0.38085235444071247  0.5722582023524652  1.0000
  Cd  Cd2       1.0  0.7462778142852996  0.6191474865130927  0.4277424462812078  1.0000
  H   H1        1.0  0.1530000552915425  0.16131739025712485  0.8786383547810318  1.0000
  H   H2        1.0  0.8469941919258019  0.8386813026497678  0.1213613406770051  1.0000
  H   H3        1.0  0.11123295472976481  0.8821327140551392  0.9681031438627556  1.0000
  H   H4        1.0  0.8887626163111408  0.11786482663549694  0.031895493324618884  1.0000
  H   H5        1.0  0.14916472934646663  0.6853766622126544  0.7739541746584493  1.0000
  H   H6        1.0  0.8508346452330146  0.3146220311188017  0.2260431575545141  1.0000
  H   H7        1.0  0.2266833259546601  0.7745027047726865  0.505439680884713  1.0000
  H   H8        1.0  0.773318526406982  0.2254982915358213  0.4945585442090349  1.0000
  H   H9        1.0  0.37229730996537563  0.8830263977496174  0.2573739067040037  1.0000
  H   H10       1.0  0.6277083772872416  0.11697458853721092  0.7426288136708123  1.0000
  H   H11       1.0  0.44041491330781213  0.13117963881970957  0.04611204378689139  1.0000
  H   H12       1.0  0.5595870172213679  0.8688190472039495  0.9538886651416262  1.0000
  H   H13       1.0  0.42671404339264285  0.4001872303745273  0.04355171340074549  1.0000
  H   H14       1.0  0.5732852863045464  0.5998126124592958  0.9564477956484011  1.0000
  H   H15       1.0  0.1183659455438004  0.43598827171092586  0.04618160244433508  1.0000
  H   H16       1.0  0.8816333431367765  0.5640127243853073  0.9538178042719565  1.0000
  H   H17       1.0  0.22271439865873077  0.6100511086224147  0.05390846242841008  1.0000
  H   H18       1.0  0.7772862099797206  0.38994873149751913  0.9460921651862577  1.0000
  C   C1        1.0  0.1676621722097025  0.07086161953991883  0.8007216680432804  1.0000
  C   C2        1.0  0.8323321160242473  0.9291359201045711  0.19927812974761844  1.0000
  C   C3        1.0  0.14397295881988736  0.9160692451029039  0.8487918169161546  1.0000
  C   C4        1.0  0.8560238110619167  0.08393060127868071  0.1512065945864833  1.0000
  C   C5        1.0  0.16561208213618528  0.8077809649621913  0.7416796382148547  1.0000
  C   C6        1.0  0.8343860096363401  0.1922177273231114  0.2583188546016403  1.0000
  C   C7        1.0  0.21046901809925336  0.8569733213373284  0.5910841418792856  1.0000
  C   C8        1.0  0.7895315533882793  0.14302767580505105  0.4089141042334745  1.0000
  C   C9        1.0  0.23421508851819078  0.014029074953754201  0.5521242248886864  1.0000
  C   C10       1.0  0.7657855611368732  0.9859696119037693  0.44787650505883647  1.0000
  C   C11       1.0  0.28680428269562  0.07667288408289613  0.39848059056362223  1.0000
  C   C12       1.0  0.713200168565173  0.9233269535354295  0.6015199739940159  1.0000
  C   C13       1.0  0.35060710009094725  0.0051805366813582  0.2695834535324551  1.0000
  C   C14       1.0  0.6493987941775501  0.9948146851734455  0.7304186389221315  1.0000
  C   C15       1.0  0.38796295006426373  0.12686859907068987  0.1617824592903503  1.0000
  C   C16       1.0  0.6120427429868797  0.873132392856185  0.8382168423309011  1.0000
  C   C17       1.0  0.4861398027997055  0.5139175050270524  0.24058154259397213  1.0000
  C   C18       1.0  0.5138595268974769  0.48608233780677085  0.7594179664551745  1.0000
  C   C19       1.0  0.3648105720290075  0.41702968959596387  0.1551127486905486  1.0000
  C   C20       1.0  0.635188757668182  0.5829701532378594  0.8448867603585982  1.0000
  C   C21       1.0  0.19308626728761877  0.5009480807234256  0.1212290950427573  1.0000
  C   C22       1.0  0.8069130604767237  0.4990517602303798  0.8787715535909157  1.0000
  C   C23       1.0  0.08316839910443723  0.5446551101415268  0.2571308032652979  1.0000
  C   C24       1.0  0.9168322524834663  0.4553435785960219  0.7428687870977059  1.0000
  N   N1        1.0  0.21213457726255308  0.1184522879083616  0.6566185204817785  1.0000
  N   N2        1.0  0.787863430543908  0.8815487090217361  0.3433809072535183  1.0000
  N   N3        1.0  0.28442564012878085  0.231150774551601  0.3684036723468509  1.0000
  N   N4        1.0  0.7155762513166267  0.7688490666144788  0.6315957946642782  1.0000
  N   N5        1.0  0.3464663510591279  0.2601871099437219  0.22567985874734828  1.0000
  N   N6        1.0  0.6535342146298789  0.7398138815586038  0.7743218061189765  1.0000
  O   O1        1.0  0.5622264475090404  0.4476414320392196  0.35750044924999  1.0000
  O   O2        1.0  0.4377728802553022  0.5523584089145785  0.6425001993836761  1.0000
  O   O3        1.0  0.5073704408167218  0.6503386569668592  0.1845793764538968  1.0000
  O   O4        1.0  0.49262756698973936  0.3496623399632384  0.8154200512814  1.0000
  O   O5        1.0  0.15035533369862011  0.5678541874021191  0.3828599603439002  1.0000
  O   O6        1.0  0.8496465167301819  0.43214680702637054  0.6171394043343739  1.0000
  O   O7        1.0  0.9232645259853596  0.5618347618162645  0.22977754530630531  1.0000
  O   O8        1.0  0.07673484086274839  0.4381639239951127  0.770224345244749  1.0000
