data_image0
_chemical_formula_structural       Cd2H24C32N8Cl4O4
_chemical_formula_sum              "Cd2 H24 C32 N8 Cl4 O4"
_cell_length_a       3.7437683927974605
_cell_length_b       14.49852604519134
_cell_length_c       15.74347010672103
_cell_angle_alpha    71.86806838046229
_cell_angle_beta     83.1473631979372
_cell_angle_gamma    82.5657217339335

_space_group_name_H-M_alt    "P 1"
_space_group_IT_number       1

loop_
  _space_group_symop_operation_xyz
  'x, y, z'

loop_
  _atom_site_type_symbol
  _atom_site_label
  _atom_site_symmetry_multiplicity
  _atom_site_fract_x
  _atom_site_fract_y
  _atom_site_fract_z
  _atom_site_occupancy
  Cd  Cd1       1.0  0.5913638714326763  0.24997089111754886  0.7500320380191141  1.0000
  Cd  Cd2       1.0  0.40863731080419563  0.7500286806441067  0.24996836012600446  1.0000
  H   H1        1.0  0.7310802068459593  0.18402249977156518  0.5800436774418286  1.0000
  H   H2        1.0  0.4948512839530394  0.31592706316398983  0.920010481057659  1.0000
  H   H3        1.0  0.2689177265525588  0.8159770710565865  0.41995728051585257  1.0000
  H   H4        1.0  0.5051491044946346  0.684074696372839  0.0799893155886765  1.0000
  H   H5        1.0  0.3113942517812659  0.7910079752309614  0.7605403905971144  1.0000
  H   H6        1.0  0.8628513116256329  0.7089905046128987  0.7396147841119287  1.0000
  H   H7        1.0  0.6886038409925276  0.2089894066926234  0.23946180442988657  1.0000
  H   H8        1.0  0.13715061024629438  0.29101052792431387  0.2603839418929113  1.0000
  H   H9        1.0  0.3188211112970908  0.7536818393132662  0.9254676647800152  1.0000
  H   H10       1.0  0.9975210858793061  0.7462741018751514  0.5746556452845083  1.0000
  H   H11       1.0  0.6811851945675118  0.24631627241046058  0.07453392145077942  1.0000
  H   H12       1.0  0.00247758715427443  0.25372692972855043  0.4253436405329011  1.0000
  H   H13       1.0  0.5077857650831985  0.8765951818983807  0.988485363903102  1.0000
  H   H14       1.0  0.37207620120040014  0.623283336929731  0.5115796103074572  1.0000
  H   H15       1.0  0.49222091059892376  0.1234036602131283  0.011515386257556794  1.0000
  H   H16       1.0  0.6279224718331807  0.3767176946739709  0.4884196755099524  1.0000
  H   H17       1.0  0.6694098959256036  0.0375417437844803  0.8873030808925151  1.0000
  H   H18       1.0  0.5940340225524066  0.4624098639872755  0.6127602389190088  1.0000
  H   H19       1.0  0.33059218532159906  0.962457099848173  0.11269688218165189  1.0000
  H   H20       1.0  0.4059676347231262  0.5375918978083332  0.3872382865862392  1.0000
  H   H21       1.0  0.595142651435978  0.06742355456963618  0.5155393883792528  1.0000
  H   H22       1.0  0.1779563067611393  0.4325369509526522  0.9845694011538626  1.0000
  H   H23       1.0  0.40485763179057  0.9325767453210219  0.4844614448368104  1.0000
  H   H24       1.0  0.822039751848017  0.5674640808469319  0.015429808905572912  1.0000
  C   C1        1.0  0.6640472132640621  0.11332050360233129  0.6251749001043407  1.0000
  C   C2        1.0  0.402193812684594  0.3866348728962875  0.8748846050333442  1.0000
  C   C3        1.0  0.33594639029593054  0.8866783394885615  0.3748254712664405  1.0000
  C   C4        1.0  0.5978048603489797  0.6133661587074145  0.12511468078406543  1.0000
  C   C5        1.0  0.48435128647488335  0.9563521712107601  0.6350877559804287  1.0000
  C   C6        1.0  0.07550720874986155  0.5436217602441501  0.8650163616073172  1.0000
  C   C7        1.0  0.5156475459339661  0.04364667148838209  0.3649127669063006  1.0000
  C   C8        1.0  0.9244947131220728  0.4563792722930629  0.1349823643975299  1.0000
  C   C9        1.0  0.4817393677801722  0.9346121713731887  0.7315576789780422  1.0000
  C   C10       1.0  0.14774101463553546  0.5653747464956139  0.7685497557122076  1.0000
  C   C11       1.0  0.5182597292250788  0.06538594206756439  0.2684430444082865  1.0000
  C   C12       1.0  0.8522637862572254  0.4346255565873349  0.23144924655019847  1.0000
  C   C13       1.0  0.388622077446513  0.8439271986409976  0.7893999693647444  1.0000
  C   C14       1.0  0.02181867927928505  0.6560654126245705  0.7107205338361524  1.0000
  C   C15       1.0  0.6113787349728312  0.15607164273287566  0.21060126485051  1.0000
  C   C16       1.0  0.9781840363818469  0.3439334321374688  0.2892787936674637  1.0000
  C   C17       1.0  0.3944636693449939  0.8237757989890114  0.8811158413206499  1.0000
  C   C18       1.0  0.09887594635710438  0.6761741173973447  0.6189986388420151  1.0000
  C   C19       1.0  0.6055380420846815  0.1762223142558597  0.11888495782365278  1.0000
  C   C20       1.0  0.9011236256868003  0.32382618607735486  0.3810002119044498  1.0000
  C   C21       1.0  0.4974174687487223  0.8934897803404382  0.9163303992992836  1.0000
  C   C22       1.0  0.3065673859196991  0.6064203288426951  0.5837468491722788  1.0000
  C   C23       1.0  0.5025833436706223  0.10650906103344228  0.0836708349159636  1.0000
  C   C24       1.0  0.6934342713558336  0.3935814329529066  0.416251676332969  1.0000
  C   C25       1.0  0.5865742584625767  0.9836500734499011  0.8604953171124733  1.0000
  C   C26       1.0  0.4304352311334866  0.5163135000009759  0.6395797113493061  1.0000
  C   C27       1.0  0.41342393953234347  0.0163487681198546  0.1395058413448069  1.0000
  C   C28       1.0  0.5695710205769727  0.4836882602734888  0.36041960124243383  1.0000
  C   C29       1.0  0.5759530170167931  0.006230293584621898  0.7672372432219134  1.0000
  C   C30       1.0  0.3494244002612417  0.4937544746866678  0.7328534356285202  1.0000
  C   C31       1.0  0.4240432009676312  0.9937685493103955  0.23276320390684896  1.0000
  C   C32       1.0  0.6505824858631469  0.5062472867171833  0.2671452413926758  1.0000
  N   N1        1.0  0.6593414243212051  0.09741097955392768  0.7115058655779193  1.0000
  N   N2        1.0  0.4681818295006576  0.4025546534138513  0.7885593411798197  1.0000
  N   N3        1.0  0.34065442384569183  0.9025871329533145  0.28849541762097897  1.0000
  N   N4        1.0  0.5318246868061963  0.5974463776022174  0.21144017191151224  1.0000
  N   N5        1.0  0.5879404742407888  0.04766318605678781  0.5861680642572225  1.0000
  N   N6        1.0  0.22147151047467878  0.45231257104207145  0.9139168922809303  1.0000
  N   N7        1.0  0.4120554791472345  0.9523363860966255  0.41383218237194797  1.0000
  N   N8        1.0  0.778529512386925  0.5476891896241439  0.08608226879486122  1.0000
  Cl  Cl1       1.0  0.11507629453708991  0.3091705152901482  0.6269817329136274  1.0000
  Cl  Cl2       1.0  0.05128410901835415  0.19072881644122222  0.8730796955462949  1.0000
  Cl  Cl3       1.0  0.8849246231033875  0.690829785729903  0.3730184647318922  1.0000
  Cl  Cl4       1.0  0.9487165440257213  0.809272213837218  0.1269203015996325  1.0000
  O   O1        1.0  0.4009991365807011  0.8999806460635893  0.5959263153833592  1.0000
  O   O2        1.0  0.8964252060066038  0.6000209519662577  0.9041776777384314  1.0000
  O   O3        1.0  0.5990029446665022  0.10001819756906367  0.40407364769080795  1.0000
  O   O4        1.0  0.10357148701647395  0.39998008096271315  0.09582089675046031  1.0000
