data_image0
_chemical_formula_structural       Al2H15C20N3O10
_chemical_formula_sum              "Al2 H15 C20 N3 O10"
_cell_length_a       6.627072121007266
_cell_length_b       11.142802196382828
_cell_length_c       11.13527223789547
_cell_angle_alpha    75.7696685923297
_cell_angle_beta     72.33777116083765
_cell_angle_gamma    71.74749411994671

_space_group_name_H-M_alt    "P 1"
_space_group_IT_number       1

loop_
  _space_group_symop_operation_xyz
  'x, y, z'

loop_
  _atom_site_type_symbol
  _atom_site_label
  _atom_site_symmetry_multiplicity
  _atom_site_fract_x
  _atom_site_fract_y
  _atom_site_fract_z
  _atom_site_occupancy
  Al  Al1       1.0  0.4937308906806804  0.4936451632487789  0.5106701090686201  1.0000
  Al  Al2       1.0  0.9929198321340921  0.49820993250163076  0.5041630929978426  1.0000
  H   H1        1.0  0.2914067436841136  0.3352662695664321  0.5706562379283754  1.0000
  H   H2        1.0  0.6860227225106499  0.656925112342151  0.44718355349228744  1.0000
  H   H3        1.0  0.10162944442389953  0.570373083436415  0.11308462183592381  1.0000
  H   H4        1.0  0.773270604030941  0.45021318558426776  0.13594689399342746  1.0000
  H   H5        1.0  0.22965738996492047  0.5628102628471155  0.876931390181099  1.0000
  H   H6        1.0  0.25983346926523865  0.24995869072982663  0.30914531559733394  1.0000
  H   H7        1.0  0.4652963935472202  0.7795373260685707  0.32210001314560094  1.0000
  H   H8        1.0  0.7429849899835618  0.8719632462595117  0.6035022423347911  1.0000
  H   H9        1.0  0.6411948699842327  0.1081871764751128  0.5987453275217548  1.0000
  H   H10       1.0  0.006063091702607442  0.4318557438328128  0.7983691515412517  1.0000
  H   H11       1.0  0.055669204069552315  0.41238736629113504  0.9488224004675275  1.0000
  H   H12       1.0  0.5940475211358276  0.25391370993624923  0.14696901886090072  1.0000
  H   H13       1.0  0.7345373621250388  0.12430347289369338  0.07550865267618428  1.0000
  H   H14       1.0  0.8114034417740829  0.7991185488224418  0.1880510940047201  1.0000
  H   H15       1.0  0.8899491264394185  0.9345809904494685  0.1636480758730769  1.0000
  C   C1        1.0  0.876648762565651  0.27110166868520486  0.4898354831974034  1.0000
  C   C2        1.0  0.6283273418587498  0.4864736224011424  0.7376800953321095  1.0000
  C   C3        1.0  0.11954802918229046  0.7249007570100899  0.500423202030106  1.0000
  C   C4        1.0  0.36333758409819694  0.511114971915177  0.2772434371613883  1.0000
  C   C5        1.0  0.5696900934355752  0.49545452069975243  0.8748103849043221  1.0000
  C   C6        1.0  0.4330919102558115  0.5089827678419637  0.13671831991764796  1.0000
  C   C7        1.0  0.731152055797793  0.4645180627560492  0.9462881031684276  1.0000
  C   C8        1.0  0.27490497429200633  0.5414449381767313  0.06550968343542958  1.0000
  C   C9        1.0  0.6554093955514803  0.4731876935385203  0.07803271506566732  1.0000
  C   C10       1.0  0.3462153822262265  0.5355305810332  0.9361561521623473  1.0000
  C   C11       1.0  0.9480321935074657  0.13383206196637334  0.4751607518245323  1.0000
  C   C12       1.0  0.1569572032864031  0.07582532604949682  0.39851443496608857  1.0000
  C   C13       1.0  0.8000610043797919  0.06095409498497875  0.5434056315482039  1.0000
  C   C14       1.0  0.30464270757876477  0.14644946968424932  0.31546561994188244  1.0000
  C   C15       1.0  0.5027805751881189  0.08872761127250328  0.23943782055933843  1.0000
  C   C16       1.0  0.06282263213414303  0.8671259769657385  0.47970298785392623  1.0000
  C   C17       1.0  0.8564879889867569  0.9289296567546758  0.5459321141308635  1.0000
  C   C18       1.0  0.2150035892548345  0.9388714246268107  0.40056216361296043  1.0000
  C   C19       1.0  0.4191551621617151  0.8821282310581896  0.32224247515845417  1.0000
  C   C20       1.0  0.5646656966697067  0.9522280641038064  0.24611205819196152  1.0000
  N   N1        1.0  0.9500093493468001  0.4241257367226724  0.8950856783783295  1.0000
  N   N2        1.0  0.6496358856982525  0.15677915250243055  0.15909448247818148  1.0000
  N   N3        1.0  0.7655874023695687  0.8964875740002398  0.1694837801749359  1.0000
  O   O1        1.0  0.6702520405694513  0.3224782923096115  0.519487653113039  1.0000
  O   O2        1.0  0.8321759654846163  0.46531906316019456  0.6790877003627358  1.0000
  O   O3        1.0  0.9661799257127162  0.6696644288972281  0.5232680357639198  1.0000
  O   O4        1.0  0.5136548576619829  0.4916964022404075  0.3338860976644398  1.0000
  O   O5        1.0  0.3188550315514362  0.6649449886195313  0.4968002969675851  1.0000
  O   O6        1.0  0.15809536976409785  0.5320261884136174  0.3294194139401655  1.0000
  O   O7        1.0  0.021149990952871147  0.33001363334379635  0.4767483566946993  1.0000
  O   O8        1.0  0.4744684339265532  0.4984912812564134  0.6855336564046864  1.0000
  O   O9        1.0  0.2474010735485237  0.42789990392378036  0.5647528914160845  1.0000
  O   O10       1.0  0.7346747275051085  0.5645482932578219  0.45066331338627913  1.0000
