data_image0
_chemical_formula_structural       Na4H56C24I4O12
_chemical_formula_sum              "Na4 H56 C24 I4 O12"
_cell_length_a       7.766146186529424
_cell_length_b       12.07107900592706
_cell_length_c       12.295980811735525
_cell_angle_alpha    84.16380509070636
_cell_angle_beta     71.60566958528803
_cell_angle_gamma    71.2133380605794

_space_group_name_H-M_alt    "P 1"
_space_group_IT_number       1

loop_
  _space_group_symop_operation_xyz
  'x, y, z'

loop_
  _atom_site_type_symbol
  _atom_site_label
  _atom_site_symmetry_multiplicity
  _atom_site_fract_x
  _atom_site_fract_y
  _atom_site_fract_z
  _atom_site_occupancy
  Na  Na1       1.0  0.08634926653898815  0.3276704735511514  0.749964423248173  1.0000
  Na  Na2       1.0  0.3360323043573245  0.8274741380875952  0.2500760521776756  1.0000
  Na  Na3       1.0  0.9136525800665465  0.6723293054987066  0.2500350824161046  1.0000
  Na  Na4       1.0  0.6639682909395715  0.17252651603185132  0.7499242665063975  1.0000
  H   H1        1.0  0.1002420433498443  0.3690016540957258  0.010625775857938892  1.0000
  H   H2        1.0  0.020052918350813638  0.868831517518501  0.5105463468406698  1.0000
  H   H3        1.0  0.9692058510916367  0.6310194028092865  0.5104537999126394  1.0000
  H   H4        1.0  0.3895088257161774  0.13111166633530758  0.010608943780781  1.0000
  H   H5        1.0  0.8997614923171964  0.6309963748395192  0.9893729168161303  1.0000
  H   H6        1.0  0.9799495353741534  0.13116651117861272  0.4894561402808933  1.0000
  H   H7        1.0  0.030794909373426375  0.3689803764087856  0.4895454346266633  1.0000
  H   H8        1.0  0.6104885111593106  0.8688889882887805  0.9893905615283672  1.0000
  H   H9        1.0  0.3417482400068508  0.33281002744432436  0.015452805671273504  1.0000
  H   H10       1.0  0.809952408145527  0.832662250460025  0.5153353663608372  1.0000
  H   H11       1.0  0.17445752506542767  0.6672513447018744  0.5152271608710209  1.0000
  H   H12       1.0  0.14321362187025238  0.16716032622996832  0.0154605733207731  1.0000
  H   H13       1.0  0.6582555640465201  0.6671880017536297  0.9845429056046843  1.0000
  H   H14       1.0  0.19004933524184509  0.16733665342574258  0.4846660365567744  1.0000
  H   H15       1.0  0.8255441109053904  0.3327466844261621  0.48477207372745584  1.0000
  H   H16       1.0  0.8567852388985807  0.8328394531808953  0.9845392031429372  1.0000
  H   H17       1.0  0.43188460419661806  0.4290489739320549  0.8285416971170749  1.0000
  H   H18       1.0  0.8102085561804557  0.9290074324682037  0.32851101714629044  1.0000
  H   H19       1.0  0.361026252252728  0.57092529908693  0.3284466008387455  1.0000
  H   H20       1.0  0.23998611808636375  0.07108303089182039  0.8284433722540003  1.0000
  H   H21       1.0  0.5681147975432594  0.5709508055978673  0.17145618212288846  1.0000
  H   H22       1.0  0.18979089522436254  0.0709949714785765  0.6714922828767271  1.0000
  H   H23       1.0  0.6389768456614389  0.4290736048933325  0.6715520918057366  1.0000
  H   H24       1.0  0.7600132423853477  0.9289141234085606  0.17155721734786056  1.0000
  H   H25       1.0  0.25968923537716637  0.5278194434413663  0.9381791900540862  1.0000
  H   H26       1.0  0.7741116327462407  0.027703903767957193  0.43823262095389753  1.0000
  H   H27       1.0  0.28739118719744977  0.47228300258124273  0.4381978128289462  1.0000
  H   H28       1.0  0.3027115329684162  0.972240461647445  0.9380208576170262  1.0000
  H   H29       1.0  0.7403124005936518  0.4721785856866703  0.061820044544390405  1.0000
  H   H30       1.0  0.225891576782871  0.9722958745637057  0.5617723055821956  1.0000
  H   H31       1.0  0.7126091974647291  0.527715901616382  0.561802234789326  1.0000
  H   H32       1.0  0.697289289446644  0.0277575675051693  0.06197919003083287  1.0000
  H   H33       1.0  0.08922798223447592  0.6018360403631036  0.6907371965623029  1.0000
  H   H34       1.0  0.11812451833373667  0.10140649581624216  0.19061845780818495  1.0000
  H   H35       1.0  0.19129064788930325  0.39831196812286146  0.19051447556665835  1.0000
  H   H36       1.0  0.7203078719214769  0.8985202631911308  0.6905962347040885  1.0000
  H   H37       1.0  0.9107698378604351  0.39816636403916306  0.30926366398701083  1.0000
  H   H38       1.0  0.8818771631036312  0.8985941581349904  0.8093821320008702  1.0000
  H   H39       1.0  0.8087082748295341  0.6016860612225371  0.8094861140056154  1.0000
  H   H40       1.0  0.27968906846928115  0.10148389170752377  0.30940056021358237  1.0000
  H   H41       1.0  0.3387037468418225  0.5455356715492029  0.6740678909791173  1.0000
  H   H42       1.0  0.9415689261656651  0.04527041165307819  0.17390370117910686  1.0000
  H   H43       1.0  0.3844292729207838  0.4545712670920635  0.17385681113459844  1.0000
  H   H44       1.0  0.4874498172438066  0.954852420431713  0.6739690201087072  1.0000
  H   H45       1.0  0.6612929251626197  0.4544684830867424  0.3259318853366581  1.0000
  H   H46       1.0  0.05843047977260304  0.9547293674704986  0.8260982436333253  1.0000
  H   H47       1.0  0.6155709011066861  0.5454258871837395  0.8261429654178728  1.0000
  H   H48       1.0  0.51254380697393  0.0451534846306956  0.32603021389795134  1.0000
  H   H49       1.0  0.1876384915599797  0.6531312450149186  0.7827557839229942  1.0000
  H   H50       1.0  0.8763789635414126  0.15293008080468698  0.28252284045746023  1.0000
  H   H51       1.0  0.3410822153469084  0.3469267656879679  0.28251458172092475  1.0000
  H   H52       1.0  0.5299737404709077  0.8471705150823607  0.7825737562694145  1.0000
  H   H53       1.0  0.8123571562539876  0.34687115972378274  0.21724453437636984  1.0000
  H   H54       1.0  0.12362000464397477  0.8470705733639148  0.717479104325385  1.0000
  H   H55       1.0  0.6589148076756995  0.6530712638502222  0.7174865497757567  1.0000
  H   H56       1.0  0.47002424059377285  0.1528310148248835  0.2174219545626528  1.0000
  C   C1        1.0  0.25102673062623615  0.35080669063795966  0.9585258625049067  1.0000
  C   C2        1.0  0.9395152839470241  0.8507047229195092  0.45842755527292683  1.0000
  C   C3        1.0  0.10173511059590362  0.6492215925309636  0.45835011500452794  1.0000
  C   C4        1.0  0.2907865789992808  0.14926288498164544  0.9585131588931547  1.0000
  C   C5        1.0  0.7489737572541059  0.6491930887237486  0.04147228786003149  1.0000
  C   C6        1.0  0.06048835913657754  0.14929418077348086  0.5415733057202773  1.0000
  C   C7        1.0  0.8982671737625053  0.35077731147387675  0.5416493906893366  1.0000
  C   C8        1.0  0.7092120091848388  0.8507368945728542  0.04148553339619814  1.0000
  C   C9        1.0  0.2826438799878939  0.453303476035522  0.8842846298001634  1.0000
  C   C10       1.0  0.8795050355880958  0.953189783722223  0.3842624767929125  1.0000
  C   C11       1.0  0.23594969261505827  0.5467661936829983  0.38418140865722  1.0000
  C   C12       1.0  0.33348125845154875  0.04682464327781589  0.8842092057919972  1.0000
  C   C13       1.0  0.7173596556791537  0.5466945528997229  0.11571406287390573  1.0000
  C   C14       1.0  0.12049990427067993  0.0468108697243679  0.6157389263910746  1.0000
  C   C15       1.0  0.7640504194624144  0.4532327106582698  0.6158175547866948  1.0000
  C   C16       1.0  0.6665191262106375  0.953174260919816  0.1157908418262821  1.0000
  C   C17       1.0  0.19602654281143791  0.5768917955305923  0.7366109262016141  1.0000
  C   C18       1.0  0.990316203200841  0.0766244067131225  0.23646204044194263  1.0000
  C   C19       1.0  0.2731605820958265  0.4231927861317714  0.23639492249046873  1.0000
  C   C20       1.0  0.5676953426012471  0.9234193047131851  0.7364712161454464  1.0000
  C   C21       1.0  0.8039728424449777  0.42311235888799104  0.2633874951403713  1.0000
  C   C22       1.0  0.009682826934543526  0.9233744973900143  0.763540717449466  1.0000
  C   C23       1.0  0.7268391541787622  0.5768052431890495  0.7636048540324155  1.0000
  C   C24       1.0  0.4323025807118197  0.0765839748531718  0.26352774715053334  1.0000
  I   I1        1.0  0.47353263491889624  0.2502209125797775  0.5525381913176234  1.0000
  I   I2        1.0  0.2229506558970939  0.7501087878665872  0.053173584788602624  1.0000
  I   I3        1.0  0.5264721355733286  0.7497806161745328  0.44746023043866506  1.0000
  I   I4        1.0  0.7770492910122113  0.24989099137606274  0.9468264628000896  1.0000
  O   O1        1.0  0.30629335109835387  0.2500709587190783  0.8875607597623304  1.0000
  O   O2        1.0  0.056072120516581746  0.7499702444249294  0.38737005788645024  1.0000
  O   O3        1.0  0.6937054642039299  0.7499261958685819  0.11243766149080164  1.0000
  O   O4        1.0  0.9439310848141389  0.2500295343130716  0.6126308030771669  1.0000
  O   O5        1.0  0.15566988410733246  0.4862299150306625  0.815313092246335  1.0000
  O   O6        1.0  0.04256490427168553  0.9860063668215843  0.3152829648707752  1.0000
  O   O7        1.0  0.14203333214013014  0.5138236133574807  0.3151307952479244  1.0000
  O   O8        1.0  0.5293860210066511  0.014031636659332497  0.8152514208037263  1.0000
  O   O9        1.0  0.8443300008519684  0.513771614277445  0.18468614223379382  1.0000
  O   O10       1.0  0.9574347742512969  0.013993412158356498  0.6847200641160215  1.0000
  O   O11       1.0  0.8579655286287035  0.486176166053383  0.6848689812157931  1.0000
  O   O12       1.0  0.4706128397621824  0.985968142751524  0.18474835565998396  1.0000
