data_image0
_chemical_formula_structural       Lu4H24C24N36
_chemical_formula_sum              "Lu4 H24 C24 N36"
_cell_length_a       9.152531876576699
_cell_length_b       9.152554042938378
_cell_length_c       12.456532417567832
_cell_angle_alpha    91.33231103694395
_cell_angle_beta     91.33175719724119
_cell_angle_gamma    118.67674874421566

_space_group_name_H-M_alt    "P 1"
_space_group_IT_number       1

loop_
  _space_group_symop_operation_xyz
  'x, y, z'

loop_
  _atom_site_type_symbol
  _atom_site_label
  _atom_site_symmetry_multiplicity
  _atom_site_fract_x
  _atom_site_fract_y
  _atom_site_fract_z
  _atom_site_occupancy
  Lu  Lu1       1.0  0.5201107236913814  0.25860914725960543  0.4278276416015885  1.0000
  Lu  Lu2       1.0  0.7413855263560125  0.4798918521782839  0.0721694308188603  1.0000
  Lu  Lu3       1.0  0.4798945329536862  0.7413904402296794  0.5721708374210621  1.0000
  Lu  Lu4       1.0  0.25861059103172573  0.5201114661045096  0.9278265511971924  1.0000
  H   H1        1.0  0.21894907189661686  0.2926282932507291  0.2381279334909863  1.0000
  H   H2        1.0  0.7073694251968093  0.781056179985967  0.2618712310186098  1.0000
  H   H3        1.0  0.7810576671329915  0.7073675559886043  0.7618705085462806  1.0000
  H   H4        1.0  0.2926344498546953  0.21894963418478142  0.738125721847851  1.0000
  H   H5        1.0  0.12900190367541597  0.5410322118875969  0.2743347429703888  1.0000
  H   H6        1.0  0.4589661444354789  0.8710016444049415  0.22566400531114542  1.0000
  H   H7        1.0  0.8710003546975715  0.45896114014143324  0.7256619791096527  1.0000
  H   H8        1.0  0.5410320581480549  0.1289991858825275  0.7743335756804228  1.0000
  H   H9        1.0  0.9001318275880265  0.2581651080626415  0.3362612294879881  1.0000
  H   H10       1.0  0.741829492420024  0.09987147447435522  0.1637377077636231  1.0000
  H   H11       1.0  0.09987054933315422  0.741830750187397  0.6637411551700723  1.0000
  H   H12       1.0  0.2581728093210813  0.9001355993978991  0.8362648595184581  1.0000
  H   H13       1.0  0.9766788657523621  0.010521102798961101  0.3990379524382135  1.0000
  H   H14       1.0  0.9894780653611903  0.023324875689773702  0.10095830496350539  1.0000
  H   H15       1.0  0.023322028784271316  0.9894784937010288  0.6009644692052305  1.0000
  H   H16       1.0  0.010523629622610964  0.9766809439746286  0.8990410206422155  1.0000
  H   H17       1.0  0.1524150049084483  0.8954577117221307  0.1602323944398805  1.0000
  H   H18       1.0  0.10453933005219088  0.8475795148400425  0.3397705761269804  1.0000
  H   H19       1.0  0.8475826126210465  0.10454188610020763  0.8397707763103952  1.0000
  H   H20       1.0  0.8954545084498876  0.15242132248152274  0.6602301446276471  1.0000
  H   H21       1.0  0.3577808067561535  0.09523635986708  0.0029863301803488007  1.0000
  H   H22       1.0  0.9047642554111592  0.6422130890940495  0.49701791874662854  1.0000
  H   H23       1.0  0.6422121521726398  0.9047694659590637  0.9970160635205546  1.0000
  H   H24       1.0  0.09523325540828861  0.35778401436695634  0.5029844065720184  1.0000
  C   C1        1.0  0.2629312389016292  0.3920117874388113  0.2993772667942451  1.0000
  C   C2        1.0  0.6079889326466131  0.7370755992173986  0.2006205649330255  1.0000
  C   C3        1.0  0.7370761997841698  0.6079877965334292  0.7006196423468793  1.0000
  C   C4        1.0  0.3920144502497322  0.2629314630132741  0.7993772031196257  1.0000
  C   C5        1.0  0.21763175887357983  0.515339372879346  0.3176685188258972  1.0000
  C   C6        1.0  0.4846602844164138  0.7823713789716394  0.18232903349250051  1.0000
  C   C7        1.0  0.7823728910141837  0.48465896040209344  0.6823267185204003  1.0000
  C   C8        1.0  0.5153390091874854  0.2176294495573076  0.8176677625583083  1.0000
  C   C9        1.0  0.8301722553985443  0.14843757856515086  0.38203017449023247  1.0000
  C   C10       1.0  0.8515604860359147  0.1698288070620748  0.1179662325986541  1.0000
  C   C11       1.0  0.16982693938739865  0.8515607635089071  0.6179689875598839  1.0000
  C   C12       1.0  0.14844558486748832  0.8301770174279071  0.8820347703904048  1.0000
  C   C13       1.0  0.8679745548539091  0.025051210811561506  0.4132413398514245  1.0000
  C   C14       1.0  0.9749479418572308  0.13202878724038675  0.08675615309660858  1.0000
  C   C15       1.0  0.1320262309996566  0.974945889350487  0.5867594335026638  1.0000
  C   C16       1.0  0.025053152288336374  0.8679757841460045  0.9132423394059472  1.0000
  C   C17       1.0  0.2717389760490647  0.008308901246820702  0.16809145547203033  1.0000
  C   C18       1.0  0.9916903986908067  0.7282584234163706  0.3319112205868748  1.0000
  C   C19       1.0  0.7282587422714073  0.9916931850070229  0.8319101521366649  1.0000
  C   C20       1.0  0.008304633595642465  0.27174490255478645  0.6680879549431468  1.0000
  C   C21       1.0  0.37505919352260264  0.1065413517421234  0.089482129249248  1.0000
  C   C22       1.0  0.8934601149384278  0.624938831728727  0.4105221800183614  1.0000
  C   C23       1.0  0.6249364455211508  0.893463228436879  0.9105202879571266  1.0000
  C   C24       1.0  0.1065392952406441  0.37506450104461214  0.5894794757527322  1.0000
  N   N1        1.0  0.38280107957852044  0.4152200564668648  0.37426909652988627  1.0000
  N   N2        1.0  0.584774774275118  0.6171991039851362  0.1257297904005554  1.0000
  N   N3        1.0  0.617197911652447  0.5847733067675663  0.6257323889456431  1.0000
  N   N4        1.0  0.4152240291466428  0.3828029745803507  0.8742686236941779  1.0000
  N   N5        1.0  0.41024733749264897  0.5491088254732188  0.4345181530816191  1.0000
  N   N6        1.0  0.45088708327702426  0.5897516654641849  0.06548191461622821  1.0000
  N   N7        1.0  0.5897483767311726  0.45088453908356046  0.5654840815007418  1.0000
  N   N8        1.0  0.5491098227581476  0.41024418576557764  0.9345179718837925  1.0000
  N   N9        1.0  0.3122710317181399  0.6115286634148588  0.402829007264657  1.0000
  N   N10       1.0  0.3884701208289059  0.6877307890298923  0.09717092306163272  1.0000
  N   N11       1.0  0.6877280563577486  0.38846718429785915  0.5971693093538306  1.0000
  N   N12       1.0  0.6115261863410525  0.31226381589846147  0.9028289331929571  1.0000
  N   N13       1.0  0.6802073572166663  0.11248158810225563  0.42104527248461915  1.0000
  N   N14       1.0  0.88751281515561  0.31979393021644154  0.0789538933123808  1.0000
  N   N15       1.0  0.319791135940072  0.8875130172622792  0.5789546196039055  1.0000
  N   N16       1.0  0.11248828688206206  0.6802106490763936  0.9210478106211113  1.0000
  N   N17       1.0  0.6290981803768149  0.9719596552196634  0.473920389839769  1.0000
  N   N18       1.0  0.02803724146455975  0.3709037209316648  0.0260780608119688  1.0000
  N   N19       1.0  0.3708992158404812  0.028034945973558906  0.52607787861632  1.0000
  N   N20       1.0  0.9719627636336698  0.6291008541898577  0.9739220194890876  1.0000
  N   N21       1.0  0.7394744324482262  0.9165380240968519  0.4708622875191039  1.0000
  N   N22       1.0  0.08345839244070427  0.26052651445923675  0.029135548248575602  1.0000
  N   N23       1.0  0.2605229677151187  0.083456581049596  0.5291375866524533  1.0000
  N   N24       1.0  0.9165427036778909  0.7394780589037566  0.9708637471117213  1.0000
  N   N25       1.0  0.3502613959728578  0.07550365535308151  0.2646033618140322  1.0000
  N   N26       1.0  0.924491800860146  0.649735642824986  0.235399204932925  1.0000
  N   N27       1.0  0.6497382988603422  0.9244934465674819  0.7353981964808156  1.0000
  N   N28       1.0  0.07550312866229801  0.3502651927380499  0.7646007308809359  1.0000
  N   N29       1.0  0.495173593773231  0.20821346805679045  0.24481799796201642  1.0000
  N   N30       1.0  0.7917825889426312  0.5048231573785671  0.2551837275994941  1.0000
  N   N31       1.0  0.5048277909455409  0.7917848784066667  0.7551828056374958  1.0000
  N   N32       1.0  0.2082144218295668  0.49517518623592593  0.7448162014744213  1.0000
  N   N33       1.0  0.5136693772008627  0.23097030526240309  0.1393304266547446  1.0000
  N   N34       1.0  0.769026061951699  0.4863249197957701  0.3606712789586979  1.0000
  N   N35       1.0  0.48632714141617583  0.7690292864120211  0.8606703176053542  1.0000
  N   N36       1.0  0.2309737356454988  0.5136746725329147  0.6393295190523105  1.0000
