data_image0
_chemical_formula_structural       Cs2H26C34S2O18
_chemical_formula_sum              "Cs2 H26 C34 S2 O18"
_cell_length_a       6.288160017930712
_cell_length_b       11.452554598019068
_cell_length_c       12.861550134242176
_cell_angle_alpha    92.92890537229553
_cell_angle_beta     97.87455702883344
_cell_angle_gamma    94.26434251609442

_space_group_name_H-M_alt    "P 1"
_space_group_IT_number       1

loop_
  _space_group_symop_operation_xyz
  'x, y, z'

loop_
  _atom_site_type_symbol
  _atom_site_label
  _atom_site_symmetry_multiplicity
  _atom_site_fract_x
  _atom_site_fract_y
  _atom_site_fract_z
  _atom_site_occupancy
  Cs  Cs1       1.0  0.2169600165959267  0.8573222331499506  0.9578233714608685  1.0000
  Cs  Cs2       1.0  0.7830434569281907  0.1426784071889742  0.0421745181045594  1.0000
  H   H1        1.0  0.6437642762919041  0.5495530260051851  0.7335294912977021  1.0000
  H   H2        1.0  0.3562396138033321  0.450440587867213  0.266468148656827  1.0000
  H   H3        1.0  0.660803061024275  0.5642067399872914  0.4557718185801605  1.0000
  H   H4        1.0  0.33919675924226317  0.43579128603731476  0.5442257083277298  1.0000
  H   H5        1.0  0.1236681838972089  0.7272947162594222  0.2589668926869351  1.0000
  H   H6        1.0  0.876326383800894  0.2727103725442106  0.7410320977791615  1.0000
  H   H7        1.0  0.6486287409641778  0.944749339559216  0.4894921137725063  1.0000
  H   H8        1.0  0.3513636170208372  0.05525225416740648  0.510507358861787  1.0000
  H   H9        1.0  0.941199539960131  0.031900927046635295  0.40299708030213566  1.0000
  H   H10       1.0  0.05879454640709981  0.9681015455033871  0.5970041047841903  1.0000
  H   H11       1.0  0.43922115550558527  0.7117478115873227  0.2140717523302769  1.0000
  H   H12       1.0  0.5607702162328181  0.2882572894336235  0.7859262346623409  1.0000
  H   H13       1.0  0.042961091152719164  0.5669111180709832  0.9427701072981876  1.0000
  H   H14       1.0  0.9570306611072965  0.4330869719004653  0.05722996078997509  1.0000
  H   H15       1.0  0.24943608832706599  0.5845003664432936  0.8600081751812638  1.0000
  H   H16       1.0  0.750564794514176  0.41549506034458245  0.1399955441432539  1.0000
  H   H17       1.0  0.0447327028676341  0.4644804064191703  0.8327696745859967  1.0000
  H   H18       1.0  0.9552682040066216  0.535515010090691  0.16723249093422504  1.0000
  H   H19       1.0  0.2813009812783421  0.0757144874392708  0.2032245480113133  1.0000
  H   H20       1.0  0.7187095898031047  0.9242818004762441  0.7967853347043033  1.0000
  H   H21       1.0  0.2704420531755218  0.008635967246433996  0.3257536084674371  1.0000
  H   H22       1.0  0.7295484155354687  0.9913551460487181  0.6742523119413377  1.0000
  H   H23       1.0  0.10983006553598783  0.12781605464006418  0.2925526223033685  1.0000
  H   H24       1.0  0.8901741376590663  0.8721802474320625  0.7074536996610021  1.0000
  H   H25       1.0  0.4202994268725533  0.7790708629993403  0.6891337764983306  1.0000
  H   H26       1.0  0.5796940181683398  0.22093685073606645  0.3108629060618711  1.0000
  C   C1        1.0  0.977360115827935  0.6571128884266597  0.48351164555542436  1.0000
  C   C2        1.0  0.022641605280952604  0.3428868833668801  0.516486085362267  1.0000
  C   C3        1.0  0.7956026010471932  0.5997454173558481  0.5137258410119755  1.0000
  C   C4        1.0  0.2044097542699177  0.400250784796384  0.486272501457087  1.0000
  C   C5        1.0  0.7925323202147682  0.5913998012073377  0.6213704607363866  1.0000
  C   C6        1.0  0.20747622140114436  0.4085929145460412  0.37862825061520766  1.0000
  C   C7        1.0  0.9664235585081115  0.6379276445618203  0.6971475201003301  1.0000
  C   C8        1.0  0.03357839469525459  0.36206423895867346  0.3028522465508345  1.0000
  C   C9        1.0  0.14717412698838217  0.6956829535347778  0.6649989330004615  1.0000
  C   C10       1.0  0.8528280514183777  0.30431944479038714  0.3349981571012961  1.0000
  C   C11       1.0  0.1550058247028829  0.7054629758076557  0.5554626095290658  1.0000
  C   C12       1.0  0.8449906511768364  0.29453418521072183  0.44453386854327454  1.0000
  C   C13       1.0  0.34053871657581425  0.7644413722408813  0.5204635896041694  1.0000
  C   C14       1.0  0.6594628801389534  0.23555751205109485  0.4795325421471617  1.0000
  C   C15       1.0  0.3344911351296247  0.7705858943539069  0.4073697650251802  1.0000
  C   C16       1.0  0.6655017282192759  0.2294183053483039  0.5926259591845877  1.0000
  C   C17       1.0  0.15146213480694834  0.7234574331072781  0.3443280100623127  1.0000
  C   C18       1.0  0.8485321600699225  0.2765458909712492  0.6556693358753378  1.0000
  C   C19       1.0  0.5154056299324806  0.8232746034480056  0.35889106014381866  1.0000
  C   C20       1.0  0.48458751825416624  0.17673135584031027  0.64110553169224  1.0000
  C   C21       1.0  0.6635348176908807  0.9129908540476491  0.4099757067718031  1.0000
  C   C22       1.0  0.3364563936039033  0.0870133748887625  0.5900230117608913  1.0000
  C   C23       1.0  0.8301723429499434  0.9623128050185626  0.3608315924516887  1.0000
  C   C24       1.0  0.16982190386090676  0.03769053961599409  0.6391688610945607  1.0000
  C   C25       1.0  0.8538796552384299  0.923552257554803  0.2583107289645739  1.0000
  C   C26       1.0  0.1461132724220562  0.07645285534401579  0.741690478922301  1.0000
  C   C27       1.0  0.7071433012559966  0.8329270750465555  0.20599480531674894  1.0000
  C   C28       1.0  0.29284937761626406  0.16707626284914304  0.7940032042373913  1.0000
  C   C29       1.0  0.5433501133925703  0.7841038761749813  0.2565125600201412  1.0000
  C   C30       1.0  0.45664593389952307  0.2159003164489306  0.7434849445652532  1.0000
  C   C31       1.0  0.07952036766940301  0.5563114564197136  0.8622085241348927  1.0000
  C   C32       1.0  0.9204775157052794  0.4436848392529881  0.1377911294696332  1.0000
  C   C33       1.0  0.17717571936997703  0.0497662416567621  0.2612137736485494  1.0000
  C   C34       1.0  0.8228254002429908  0.9502309652732494  0.7387939209108509  1.0000
  S   S1        1.0  0.7357102739149115  0.7718283984978527  0.0777234740932187  1.0000
  S   S2        1.0  0.26429537327278746  0.22817575233510465  0.9222762640104563  1.0000
  O   O1        1.0  0.9799233275102706  0.6673989937181658  0.3777828598144239  1.0000
  O   O2        1.0  0.02007387848856009  0.33260255855694953  0.6222146219704143  1.0000
  O   O3        1.0  0.4989847984469904  0.807936234801545  0.5871564172352564  1.0000
  O   O4        1.0  0.5010183782228809  0.19206265109028925  0.41284138160602885  1.0000
  O   O5        1.0  0.6173148777332642  0.5385889675207736  0.6562566854796187  1.0000
  O   O6        1.0  0.3826935515050351  0.46140285559203414  0.34373964980345306  1.0000
  O   O7        1.0  0.9383561740604451  0.6314833160815637  0.8013986442990699  1.0000
  O   O8        1.0  0.06164656934455342  0.36851293300062343  0.19859824155385303  1.0000
  O   O9        1.0  0.31168454320936684  0.7444833707444329  0.7360939158871885  1.0000
  O   O10       1.0  0.6883071373997893  0.2555234795845962  0.2639033849274242  1.0000
  O   O11       1.0  0.012345079036734291  0.9674069982129652  0.2049353844264346  1.0000
  O   O12       1.0  0.9876568427943653  0.032594569139732195  0.7950686524325833  1.0000
  O   O13       1.0  0.7290293723280288  0.8716119334255126  0.008430740723397924  1.0000
  O   O14       1.0  0.2709740651465751  0.12838872233043463  0.991569479548474  1.0000
  O   O15       1.0  0.9467480855722885  0.7226481839953605  0.09047687839058231  1.0000
  O   O16       1.0  0.05326990485008309  0.27736295471288486  0.9095286770222017  1.0000
  O   O17       1.0  0.5522589728206952  0.6848088560403127  0.049091790883089494  1.0000
  O   O18       1.0  0.4477515820151724  0.3151864981225642  0.9509095005468282  1.0000
