data_image0
_chemical_formula_structural       Mn2H24C16N20
_chemical_formula_sum              "Mn2 H24 C16 N20"
_cell_length_a       6.893814644876637
_cell_length_b       9.412306340359027
_cell_length_c       9.412229754587075
_cell_angle_alpha    94.73778347629556
_cell_angle_beta     90.00183618348149
_cell_angle_gamma    89.99981892716121

_space_group_name_H-M_alt    "P 1"
_space_group_IT_number       1

loop_
  _space_group_symop_operation_xyz
  'x, y, z'

loop_
  _atom_site_type_symbol
  _atom_site_label
  _atom_site_symmetry_multiplicity
  _atom_site_fract_x
  _atom_site_fract_y
  _atom_site_fract_z
  _atom_site_occupancy
  Mn  Mn1       1.0  0.25000193605234244  0.9941365732590625  0.005871119570237218  1.0000
  Mn  Mn2       1.0  0.7499912412727525  0.005878780206302298  0.9941286047982842  1.0000
  H   H1        1.0  0.2500181589041546  0.3372267285168035  0.0234483053664931  1.0000
  H   H2        1.0  0.7499967772759674  0.6627717178982165  0.9765598462925098  1.0000
  H   H3        1.0  0.7500188285628366  0.0234380393952804  0.3372010437979753  1.0000
  H   H4        1.0  0.24999900868052552  0.9765507475529489  0.6628022084937939  1.0000
  H   H5        1.0  0.2499990065708317  0.3422632820050707  0.4723227460667729  1.0000
  H   H6        1.0  0.7499709616388158  0.6577478735266666  0.5276809462322376  1.0000
  H   H7        1.0  0.7499817661528708  0.4723166738995274  0.3422596731880176  1.0000
  H   H8        1.0  0.24997079506722744  0.5276720307192944  0.6577382599378012  1.0000
  H   H9        1.0  0.24999718046869654  0.5180641754247189  0.2735160512443001  1.0000
  H   H10       1.0  0.749971337056664  0.4819319744005738  0.7264813198018771  1.0000
  H   H11       1.0  0.7499918361380081  0.2735015430824177  0.5180441513583602  1.0000
  H   H12       1.0  0.24997523088288176  0.726492524242708  0.481956267452439  1.0000
  H   H13       1.0  0.37882222747696664  0.05991161929384959  0.46878659443550663  1.0000
  H   H14       1.0  0.8788120521559505  0.9401072259864801  0.5312397487715401  1.0000
  H   H15       1.0  0.6211891024398923  0.46877734353872547  0.05988560167176619  1.0000
  H   H16       1.0  0.12117312692139141  0.5312155450332057  0.9401000424760041  1.0000
  H   H17       1.0  0.6211898077280721  0.9401061460539779  0.5312313559917711  1.0000
  H   H18       1.0  0.12119272991836992  0.059901830566118995  0.4687659280337543  1.0000
  H   H19       1.0  0.37881712987442745  0.5312048171159844  0.940102329165768  1.0000
  H   H20       1.0  0.8788185999798088  0.46877858816276324  0.0599046313463205  1.0000
  H   H21       1.0  0.2500310054046082  0.9535312021471398  0.3346327341286965  1.0000
  H   H22       1.0  0.7500027883039877  0.04647154101873951  0.6653778316352331  1.0000
  H   H23       1.0  0.7500099904835977  0.33463641706068614  0.9535171274578005  1.0000
  H   H24       1.0  0.2500121983455799  0.6653544029788989  0.046479886060090805  1.0000
  C   C1        1.0  0.25000902477805914  0.3127054049129113  0.133550380646291  1.0000
  C   C2        1.0  0.749998658361264  0.687290794310023  0.8664501818994594  1.0000
  C   C3        1.0  0.7500137148345088  0.13354256911436826  0.3126876338879967  1.0000
  C   C4        1.0  0.24999541893072322  0.8664472673211207  0.687314626252082  1.0000
  C   C5        1.0  0.2500154029585602  0.054941246355277  0.3998927313230496  1.0000
  C   C6        1.0  0.7500009837920062  0.9450667936479888  0.600116065029809  1.0000
  C   C7        1.0  0.750004606809732  0.39989661671930316  0.0549279476075171  1.0000
  C   C8        1.0  0.24999872451316213  0.6000920549473533  0.9450678587480114  1.0000
  C   C9        1.0  0.2500028257413476  0.4028199987632419  0.2557570264852984  1.0000
  C   C10       1.0  0.7499845491735257  0.5971782170882419  0.7442362333181194  1.0000
  C   C11       1.0  0.7499994922294847  0.2557519366289043  0.402798924841278  1.0000
  C   C12       1.0  0.24998208042929798  0.744246312162815  0.5971964622565622  1.0000
  C   C13       1.0  0.25000737700608516  0.1762195662186841  0.3099307440554497  1.0000
  C   C14       1.0  0.7500003060812688  0.8237861936541933  0.6900683358052007  1.0000
  C   C15       1.0  0.7500060049435504  0.3099261356707004  0.17620288680043933  1.0000
  C   C16       1.0  0.24999587582290422  0.6900700141457392  0.8237944846346039  1.0000
  N   N1        1.0  0.49561731565914613  0.10670873329901552  0.8932837542475839  1.0000
  N   N2        1.0  0.9956292786284209  0.8932989128306518  0.10671374879558472  1.0000
  N   N3        1.0  0.5043845649630967  0.8932947793813921  0.10670773651671793  1.0000
  N   N4        1.0  0.0043755030985224  0.1067045669102953  0.8932756146404799  1.0000
  N   N5        1.0  0.2500115211725102  0.17270816966072997  0.168218326833113  1.0000
  N   N6        1.0  0.7499990630247878  0.8272879636840498  0.8317779810223556  1.0000
  N   N7        1.0  0.7500149181609217  0.16821535379617808  0.172687897845158  1.0000
  N   N8        1.0  0.25000001792462  0.8317851586500422  0.827316142351293  1.0000
  N   N9        1.0  0.4877052392499337  0.19363011058380405  0.8063661812489897  1.0000
  N   N10       1.0  0.9877184750001148  0.806375193734901  0.19361716625402886  1.0000
  N   N11       1.0  0.5122980921377689  0.8063682040795255  0.193633460826554  1.0000
  N   N12       1.0  0.012299361975841801  0.19363259922779008  0.8063756749003659  1.0000
  N   N13       1.0  0.24999962247024854  0.31421327483096917  0.365801879143099  1.0000
  N   N14       1.0  0.7499790490546446  0.6857956499737907  0.6341952879096624  1.0000
  N   N15       1.0  0.749995870745117  0.3657991573566477  0.3142009952223077  1.0000
  N   N16       1.0  0.24997844901415078  0.6341948111504792  0.6857930415868765  1.0000
  N   N17       1.0  0.4821823132838717  0.2783724362051102  0.721624994073153  1.0000
  N   N18       1.0  0.9821923658427069  0.7216211290792527  0.2783563730271297  1.0000
  N   N19       1.0  0.5178137650577597  0.7216332248547699  0.27836770356609014  1.0000
  N   N20       1.0  0.017832724126769502  0.27838994409111706  0.7216420015092382  1.0000
