data_image0
_chemical_formula_structural       Cu2H24C18N12O8
_chemical_formula_sum              "Cu2 H24 C18 N12 O8"
_cell_length_a       8.916207405544345
_cell_length_b       8.916093335190713
_cell_length_c       9.45652008594132
_cell_angle_alpha    69.05007181072013
_cell_angle_beta     69.05006555024322
_cell_angle_gamma    80.66067713757812

_space_group_name_H-M_alt    "P 1"
_space_group_IT_number       1

loop_
  _space_group_symop_operation_xyz
  'x, y, z'

loop_
  _atom_site_type_symbol
  _atom_site_label
  _atom_site_symmetry_multiplicity
  _atom_site_fract_x
  _atom_site_fract_y
  _atom_site_fract_z
  _atom_site_occupancy
  Cu  Cu1       1.0  0.9999968015557812  0.49999903237699095  3.064862838078027e-06  1.0000
  Cu  Cu2       1.0  0.5000003119601857  5.542196675011432e-07  0.4999993649631093  1.0000
  H   H1        1.0  0.8931784150075401  0.6934924964087658  0.25849023694591  1.0000
  H   H2        1.0  0.3065111195774008  0.10682524921708851  0.24150511925159882  1.0000
  H   H3        1.0  0.10681502660284538  0.3065128742046995  0.7415092680808114  1.0000
  H   H4        1.0  0.6934885019029765  0.8931765749701343  0.7584935092942541  1.0000
  H   H5        1.0  0.31745142764823703  0.7268228735958717  0.8589887863276428  1.0000
  H   H6        1.0  0.27317897729620455  0.6825478982198234  0.6410064478624872  1.0000
  H   H7        1.0  0.6825446575404684  0.27317771897467946  0.14101037159331048  1.0000
  H   H8        1.0  0.7268230393531853  0.3174539439493103  0.35899243502493744  1.0000
  H   H9        1.0  0.9310269858586437  0.9224882440572416  0.32550693701251276  1.0000
  H   H10       1.0  0.07750168444646731  0.06897620816994281  0.1744988499958922  1.0000
  H   H11       1.0  0.06897159050130601  0.0775099402949238  0.674497480772743  1.0000
  H   H12       1.0  0.9224942539756499  0.9310267598627249  0.8255048536458458  1.0000
  H   H13       1.0  0.6090164395591345  0.8318947891777102  0.1841630903115642  1.0000
  H   H14       1.0  0.16811776613018733  0.3909739846630132  0.31584205320458375  1.0000
  H   H15       1.0  0.3909894972768485  0.16810110184599134  0.8158322385312073  1.0000
  H   H16       1.0  0.8318818553501899  0.6090278395242024  0.6841565753412765  1.0000
  H   H17       1.0  0.4934949998800704  0.7922218440921185  0.08328115679317695  1.0000
  H   H18       1.0  0.20777812098727108  0.5065048456568209  0.4167209826024773  1.0000
  H   H19       1.0  0.5065097196297188  0.20777401820910768  0.9167177592512913  1.0000
  H   H20       1.0  0.7922227545394518  0.49349578287756657  0.5832786840016128  1.0000
  H   H21       1.0  0.5052461168125292  0.6502875599145597  0.27144350722960536  1.0000
  H   H22       1.0  0.34971797624305623  0.494744309561142  0.2285595660905172  1.0000
  H   H23       1.0  0.49475837120940014  0.349713115324228  0.7285528265143524  1.0000
  H   H24       1.0  0.6502817581610074  0.5052551053384987  0.7714408842302305  1.0000
  C   C1        1.0  0.0570873734001012  0.9429158964244523  0.24999902605974683  1.0000
  C   C2        1.0  0.9429098359898163  0.05708589286811621  0.7500025318923845  1.0000
  C   C3        1.0  0.008321517173214905  0.7251578866538252  0.16457256179926105  1.0000
  C   C4        1.0  0.2748451010515113  0.9916822798548922  0.33542502742336916  1.0000
  C   C5        1.0  0.9916743901692371  0.27484631139171967  0.8354254553332722  1.0000
  C   C6        1.0  0.7251569861609256  0.0083183717644033  0.6645721132283028  1.0000
  C   C7        1.0  0.22388377990375122  0.7481889254160097  0.9620723369177068  1.0000
  C   C8        1.0  0.25181396203379347  0.776114801343901  0.5379188294703852  1.0000
  C   C9        1.0  0.7761120681566142  0.2518164744545288  0.03792529995201485  1.0000
  C   C10       1.0  0.7481871026201575  0.22388223299064694  0.4620798554235676  1.0000
  C   C11       1.0  0.7205838020129463  0.6604226695838306  0.06790239292831053  1.0000
  C   C12       1.0  0.33957923153118236  0.2794168827957649  0.4321138753909536  1.0000
  C   C13       1.0  0.27941968888968205  0.33957315271976546  0.9321022328164115  1.0000
  C   C14       1.0  0.6604239855229467  0.720584971183122  0.567884604042618  1.0000
  C   C15       1.0  0.570904222853912  0.7365142714193312  0.15746210735046853  1.0000
  C   C16       1.0  0.2634904631275177  0.4290928251349727  0.3425433053438454  1.0000
  C   C17       1.0  0.4291003837321838  0.26348400016946977  0.8425349869191051  1.0000
  C   C18       1.0  0.7365092176349465  0.5709077972272426  0.6574557034648192  1.0000
  N   N1        1.0  0.096719465536772  0.8419855401859166  0.14954548508782042  1.0000
  N   N2        1.0  0.1580132183587324  0.9032799975777125  0.35045184578444116  1.0000
  N   N3        1.0  0.9032766676530527  0.15801383928447876  0.8504561755945017  1.0000
  N   N4        1.0  0.84199011161909  0.09671944711359969  0.6495484554240248  1.0000
  N   N5        1.0  0.0855220418654596  0.6641188539737402  0.0461281705598963  1.0000
  N   N6        1.0  0.33588038033741435  0.9144805040766075  0.45386971483916466  1.0000
  N   N7        1.0  0.9144763735696841  0.3358829527661556  0.953871922689096  1.0000
  N   N8        1.0  0.664119337145202  0.0855188939103115  0.546133919229426  1.0000
  N   N9        1.0  0.23434525224838862  0.8589970201394124  0.021135168474223986  1.0000
  N   N10       1.0  0.14100596252675499  0.7656548225708592  0.4788623957482228  1.0000
  N   N11       1.0  0.7656507567367826  0.1410047573434028  0.9788667929317683  1.0000
  N   N12       1.0  0.8589937718773089  0.23434459232878882  0.5211380545725317  1.0000
  O   O1        1.0  0.7825436119596605  0.533297162960217  0.15193757660734508  1.0000
  O   O2        1.0  0.46671229831365213  0.21746270717996916  0.3480707011287619  1.0000
  O   O3        1.0  0.21745868417870173  0.46669865317119996  0.8480663913419518  1.0000
  O   O4        1.0  0.533288647776125  0.782536730804573  0.6519272232395747  1.0000
  O   O5        1.0  0.7869498103844635  0.7231568915652675  0.9195096274806501  1.0000
  O   O6        1.0  0.27683695743940717  0.21304497885108736  0.5805035170692319  1.0000
  O   O7        1.0  0.2130540644130932  0.2768317479762246  0.08049197359452619  1.0000
  O   O8        1.0  0.72316507613143  0.7869568802307754  0.41949218207035693  1.0000
