data_image0
_chemical_formula_structural       CdH42C34S2N8O6
_chemical_formula_sum              "Cd1 H42 C34 S2 N8 O6"
_cell_length_a       8.325977560297511
_cell_length_b       9.55581382869037
_cell_length_c       11.705625319796004
_cell_angle_alpha    98.07308137504647
_cell_angle_beta     98.1186284670138
_cell_angle_gamma    104.94879119447933

_space_group_name_H-M_alt    "P 1"
_space_group_IT_number       1

loop_
  _space_group_symop_operation_xyz
  'x, y, z'

loop_
  _atom_site_type_symbol
  _atom_site_label
  _atom_site_symmetry_multiplicity
  _atom_site_fract_x
  _atom_site_fract_y
  _atom_site_fract_z
  _atom_site_occupancy
  Cd  Cd1       1.0  0.49999870044345573  0.5000010486449752  0.49999993748253496  1.0000
  H   H1        1.0  0.46373337795101577  0.5518036733574263  0.806957282637775  1.0000
  H   H2        1.0  0.5362710247678065  0.4482049593202504  0.19304921933208158  1.0000
  H   H3        1.0  0.9305027369135529  0.4359283491371002  0.697789576042261  1.0000
  H   H4        1.0  0.06950246246052662  0.5640715229405158  0.30221332935592926  1.0000
  H   H5        1.0  0.08503554002012237  0.41006000137181076  0.5027038989640857  1.0000
  H   H6        1.0  0.9149739674383711  0.589934317353773  0.497302134264288  1.0000
  H   H7        1.0  0.3346464216283139  0.7749807449326129  0.6002973768205634  1.0000
  H   H8        1.0  0.665345052341415  0.2250180626381919  0.3996998031724741  1.0000
  H   H9        1.0  0.32316313859384854  0.9288515999730081  0.27892516231758435  1.0000
  H   H10       1.0  0.676831276604034  0.07114496855784581  0.721074579719591  1.0000
  H   H11       1.0  0.4310446672780302  0.6724655133333999  0.25951600177987894  1.0000
  H   H12       1.0  0.5689532932966871  0.3275420906903647  0.740484624643443  1.0000
  H   H13       1.0  0.21251467453497233  0.661661401347871  0.9336910675766745  1.0000
  H   H14       1.0  0.7874818826074943  0.33834170385454604  0.06631398035143121  1.0000
  H   H15       1.0  0.2705409166479669  0.5028768323164456  0.9656173055411797  1.0000
  H   H16       1.0  0.7294624164127157  0.4971285244697158  0.03438696984564158  1.0000
  H   H17       1.0  0.964399869915006  0.35566326175539587  0.9109975299817137  1.0000
  H   H18       1.0  0.03560653588893096  0.644336659113513  0.08900293433912759  1.0000
  H   H19       1.0  0.9088828657176579  0.5163833763121418  0.8815824803133836  1.0000
  H   H20       1.0  0.09111762368230812  0.48361319439177924  0.11841869993489239  1.0000
  H   H21       1.0  0.9910069437277257  0.9057196381561639  0.3799865567094968  1.0000
  H   H22       1.0  0.008985263497741897  0.0942812374877775  0.6200186452295284  1.0000
  H   H23       1.0  0.9991842614816733  0.8431942955495587  0.5152903258724919  1.0000
  H   H24       1.0  0.0008143747463976  0.15680768430560482  0.48471648798873446  1.0000
  H   H25       1.0  0.27442670459932117  0.0927547536972284  0.45709366193879925  1.0000
  H   H26       1.0  0.7255647667421099  0.9072440689850294  0.5429026653293717  1.0000
  H   H27       1.0  0.281962653769078  0.029765540416121908  0.5927529371030358  1.0000
  H   H28       1.0  0.7180423772936847  0.9702377400992502  0.4072444032571595  1.0000
  H   H29       1.0  0.929449653889293  0.2724236579808945  0.2797657271451826  1.0000
  H   H30       1.0  0.07054701374187992  0.7275763712359051  0.7202261258738998  1.0000
  H   H31       1.0  0.6365295720991497  0.10744066906256933  0.20291679360443737  1.0000
  H   H32       1.0  0.3634681102160825  0.8925549286925402  0.7970763042144569  1.0000
  H   H33       1.0  0.8413229634634758  0.7769861672692215  0.04081638599873826  1.0000
  H   H34       1.0  0.1586835922536736  0.22301045094215508  0.9591836742860522  1.0000
  H   H35       1.0  0.13327794361651252  0.9425418946273182  0.11582255136092096  1.0000
  H   H36       1.0  0.8667265435282373  0.05745578848546981  0.8841791538902013  1.0000
  H   H37       1.0  0.4465740580962746  0.8826094576520805  0.08956008306235223  1.0000
  H   H38       1.0  0.5534272750481294  0.1173861051393672  0.9104359242228879  1.0000
  H   H39       1.0  0.5232144645649939  0.7248368184196182  0.09248252982932569  1.0000
  H   H40       1.0  0.4767844346932931  0.275158767680935  0.907511537811686  1.0000
  H   H41       1.0  0.5286317141386975  0.8111779151027037  0.9684544469742276  1.0000
  H   H42       1.0  0.471370325978434  0.18881986687649996  0.031541055008347  1.0000
  C   C1        1.0  0.3401771365579975  0.513308266147078  0.7497470490210958  1.0000
  C   C2        1.0  0.6598262017592873  0.4866970604161623  0.250258931815452  1.0000
  C   C3        1.0  0.06248983814450778  0.45537464912950293  0.69082676250094  1.0000
  C   C4        1.0  0.9375120862273223  0.5446262390582322  0.3091802289409316  1.0000
  C   C5        1.0  0.1402520216582061  0.44323569276765795  0.5952266223390268  1.0000
  C   C6        1.0  0.8597557510020054  0.5567609137891694  0.4047744077678671  1.0000
  C   C7        1.0  0.34257394561567617  0.7774569414753784  0.5090074924385348  1.0000
  C   C8        1.0  0.6574182353267799  0.22254408528317526  0.49098918225184457  1.0000
  C   C9        1.0  0.3372735882784781  0.8546646754339805  0.33933408878254306  1.0000
  C   C10       1.0  0.6627139900097276  0.14534847976874943  0.6606619715994951  1.0000
  C   C11       1.0  0.3929038722901693  0.7305211508385767  0.3324468324319269  1.0000
  C   C12       1.0  0.6070960390238794  0.269470018911754  0.6675476272840369  1.0000
  C   C13       1.0  0.17728179540663544  0.5405449613559697  0.9110377567714494  1.0000
  C   C14       1.0  0.8227156133651689  0.45945709059959244  0.08896467636821369  1.0000
  C   C15       1.0  0.0013343745709164185  0.4767475913844733  0.9351138342411215  1.0000
  C   C16       1.0  0.998663680942933  0.5232490026285532  0.06488540636293293  1.0000
  C   C17       1.0  0.03851388800855919  0.9408981955405911  0.4752184361134296  1.0000
  C   C18       1.0  0.9614818096196629  0.0591060082430701  0.5247866684285327  1.0000
  C   C19       1.0  0.23137452457353883  0.996624103232321  0.49807200182688394  1.0000
  C   C20       1.0  0.7686273708869819  0.0033769511814938057  0.5019256096414748  1.0000
  C   C21       1.0  0.04854656346416418  0.11708696373179348  0.20163071645810499  1.0000
  C   C22       1.0  0.9514537628810871  0.8829129851869625  0.7983666042019095  1.0000
  C   C23       1.0  0.9093914900630437  0.16346887967073798  0.22741456906504703  1.0000
  C   C24       1.0  0.09060726191032836  0.836529993975887  0.7725807553368893  1.0000
  C   C25       1.0  0.7458634944079066  0.07059184260658209  0.1850673956114122  1.0000
  C   C26       1.0  0.2541362722495321  0.9294025995783596  0.814929173590336  1.0000
  C   C27       1.0  0.7192529808389168  0.9302986613529783  0.1174239963714143  1.0000
  C   C28       1.0  0.2807495692485488  0.06969688978391281  0.8825729807359366  1.0000
  C   C29       1.0  0.8606661879126349  0.884134427246778  0.09578856440257509  1.0000
  C   C30       1.0  0.1393379365466956  0.11586219916225099  0.9042104089628538  1.0000
  C   C31       1.0  0.024143711776261418  0.9766246832641272  0.1367471244952227  1.0000
  C   C32       1.0  0.9758586962828842  0.023374125195914506  0.8632528148227792  1.0000
  C   C33       1.0  0.5442279536377796  0.832436894361706  0.06479260876195528  1.0000
  C   C34       1.0  0.4557749486218938  0.1675597739247934  0.9352036893316295  1.0000
  S   S1        1.0  0.25650350014516476  0.24109331298348022  0.24422131687243354  1.0000
  S   S2        1.0  0.7434971862572014  0.7589077077505025  0.7557778829484079  1.0000
  N   N1        1.0  0.3129296503886679  0.4796292695830147  0.6329334974579267  1.0000
  N   N2        1.0  0.6870746999843717  0.5203716406300033  0.3670728754535729  1.0000
  N   N3        1.0  0.1914248912439547  0.4995623588760409  0.7882819749405241  1.0000
  N   N4        1.0  0.8085768700731465  0.500441907526529  0.21172115691307875  1.0000
  N   N5        1.0  0.3955537209171567  0.6835982724983652  0.43882633115180875  1.0000
  N   N6        1.0  0.6044408965397212  0.31640271583962226  0.5611731359076585  1.0000
  N   N7        1.0  0.3061946736174761  0.8827742945346628  0.4519873780701786  1.0000
  N   N8        1.0  0.6937992368666739  0.1172244746155755  0.5480125942919472  1.0000
  O   O1        1.0  0.2646317095015576  0.3100844650648753  0.36737922312533294  1.0000
  O   O2        1.0  0.7353648239862025  0.6899187761406863  0.6326181502789934  1.0000
  O   O3        1.0  0.26866381333740463  0.3486028540275186  0.1648564454186072  1.0000
  O   O4        1.0  0.7313422297811131  0.6513960101376242  0.8351412870165403  1.0000
  O   O5        1.0  0.37449167070909073  0.1514472237194866  0.23258910598316618  1.0000
  O   O6        1.0  0.6255098857207173  0.8485526379874102  0.7674134481232783  1.0000
