data_image0
_chemical_formula_structural       Zn2H24C54N4O22
_chemical_formula_sum              "Zn2 H24 C54 N4 O22"
_cell_length_a       9.619846311546121
_cell_length_b       10.713905196883852
_cell_length_c       23.751076998759846
_cell_angle_alpha    89.25567233652164
_cell_angle_beta     91.08405847086017
_cell_angle_gamma    92.15363444150769

_space_group_name_H-M_alt    "P 1"
_space_group_IT_number       1

loop_
  _space_group_symop_operation_xyz
  'x, y, z'

loop_
  _atom_site_type_symbol
  _atom_site_label
  _atom_site_symmetry_multiplicity
  _atom_site_fract_x
  _atom_site_fract_y
  _atom_site_fract_z
  _atom_site_occupancy
  Zn  Zn1       1.0  0.35533492299140323  0.49109266220679604  0.49708496116873835  1.0000
  Zn  Zn2       1.0  0.6460820474911272  0.5139679776203109  0.5033395561574778  1.0000
  H   H1        1.0  0.8061198030844066  0.6662552025628586  0.054611961533346694  1.0000
  H   H2        1.0  0.633422381385955  0.9156174322490217  0.578967468122137  1.0000
  H   H3        1.0  0.2496307102015578  0.9608671141669164  0.5141094755210887  1.0000
  H   H4        1.0  0.7512292596182277  0.0442388811987726  0.4854654898299273  1.0000
  H   H5        1.0  0.43213762401970973  0.10265361382961662  0.5864921458735494  1.0000
  H   H6        1.0  0.5690957093029354  0.9024093546379889  0.4130984517256167  1.0000
  H   H7        1.0  0.21546982612271384  0.6881576514173632  0.4143417142076088  1.0000
  H   H8        1.0  0.7869647155703632  0.3135521072134821  0.5861152132153578  1.0000
  H   H9        1.0  0.034581729598713196  0.7848820274567883  0.5703201109120215  1.0000
  H   H10       1.0  0.9652433907296255  0.21848407002403997  0.4306442115473175  1.0000
  H   H11       1.0  0.1632127655279305  0.3973808682290141  0.6234689783929142  1.0000
  H   H12       1.0  0.1885685698702843  0.3482927739505897  0.945405952677859  1.0000
  H   H13       1.0  0.8385714648585817  0.6073264269110227  0.3771515025934988  1.0000
  H   H14       1.0  0.6222764257772865  0.2993646231648129  0.8418365904960367  1.0000
  H   H15       1.0  0.3452354816927539  0.7880997547374164  0.2355849208485452  1.0000
  H   H16       1.0  0.3932468149735299  0.7012180745326546  0.6234508269868684  1.0000
  H   H17       1.0  0.6084295782945118  0.30501491125369995  0.3767463717027225  1.0000
  H   H18       1.0  0.8068385629950326  0.6647102071186238  0.9479090881083039  1.0000
  H   H19       1.0  0.1889258762497619  0.348477678167349  0.052108487889988495  1.0000
  H   H20       1.0  0.6053380545600787  0.32025026410988733  0.6840575682686063  1.0000
  H   H21       1.0  0.40176033673408534  0.6872580693152769  0.3162438013009705  1.0000
  H   H22       1.0  0.40330619548124247  0.677165491062162  0.7815742356284189  1.0000
  H   H23       1.0  0.5928811573763679  0.3264134835157435  0.2184178703345978  1.0000
  H   H24       1.0  0.3674059496552217  0.0897652787548822  0.42057972239668834  1.0000
  C   C1        1.0  0.46074130863541274  0.7404974870159647  0.5058869099791535  1.0000
  C   C2        1.0  0.5555099733035503  0.4088815497415154  0.2985600695946289  1.0000
  C   C3        1.0  0.4454513592696755  0.5974674990566129  0.7604728903377022  1.0000
  C   C4        1.0  0.5528447934190551  0.4071020454257521  0.23948864683833898  1.0000
  C   C5        1.0  0.5011670162406004  0.4996611195243831  0.7910511096428365  1.0000
  C   C6        1.0  0.5000298228488163  0.5054920630560176  0.20860643736369866  1.0000
  C   C7        1.0  0.36085977760573223  0.9792128204260635  0.5078817634086406  1.0000
  C   C8        1.0  0.6399876350040117  0.025968517432104897  0.4916911753789391  1.0000
  C   C9        1.0  0.42584451455414307  0.0490341461570196  0.4557375456199324  1.0000
  C   C10       1.0  0.5748891924658182  0.9561495223863117  0.5438011879628419  1.0000
  C   C11       1.0  0.5278133710893441  0.12726564032768548  0.49553749849894047  1.0000
  C   C12       1.0  0.5400652346044693  0.2647182521347204  0.4935679390382433  1.0000
  C   C13       1.0  0.4730482849848059  0.8779511791137864  0.5039418110699216  1.0000
  C   C14       1.0  0.461593284442891  0.05631136376415919  0.5479470712974858  1.0000
  C   C15       1.0  0.5392916272318046  0.9489598524186175  0.4515728620281293  1.0000
  C   C16       1.0  0.49975939340868075  0.48704670934362315  0.6105287697363976  1.0000
  C   C17       1.0  0.5018282265136165  0.5188735112341334  0.3895147793175155  1.0000
  C   C18       1.0  0.9764174790582413  0.6073510907036521  0.5279206344077991  1.0000
  C   C19       1.0  0.024883353386876198  0.3961014291872973  0.4723496156246084  1.0000
  C   C20       1.0  0.063784628931721  0.598559691393426  0.4740365685432976  1.0000
  C   C21       1.0  0.9375238207721492  0.40492024255497927  0.5262078793505012  1.0000
  C   C22       1.0  0.05580849676353949  0.4940007144437216  0.551629008049133  1.0000
  C   C23       1.0  0.5593844456391253  0.3989437221334383  0.7636751410433077  1.0000
  C   C24       1.0  0.9454682781512459  0.5094904118700113  0.4486498963167449  1.0000
  C   C25       1.0  0.3835529479961152  0.4463560733097651  0.1210502570853507  1.0000
  C   C26       1.0  0.6155168432181453  0.5623205895571174  0.8790394307728988  1.0000
  C   C27       1.0  0.6133446729710669  0.566098084775895  0.12190920406976598  1.0000
  C   C28       1.0  0.3832958845880298  0.4447977866427805  0.8780374630607284  1.0000
  C   C29       1.0  0.6112830768295794  0.5649607009114703  0.059561801924537895  1.0000
  C   C30       1.0  0.3843152919873987  0.4480355590481082  0.9403529047362582  1.0000
  C   C31       1.0  0.49799607071033597  0.506383807620601  0.0299580826440362  1.0000
  C   C32       1.0  0.49778131375235546  0.5063896307887532  0.9699598489404693  1.0000
  C   C33       1.0  0.3848100359560148  0.44808101490055197  0.058685571744646794  1.0000
  C   C34       1.0  0.4447807083879595  0.6081970526498351  0.23590892402614827  1.0000
  C   C35       1.0  0.6115640908550971  0.5640080708975856  0.9413069987841709  1.0000
  C   C36       1.0  0.7209347668482522  0.6217804633653472  0.0304596184637091  1.0000
  C   C37       1.0  0.2740988273519491  0.3922592820257336  0.9695279557832064  1.0000
  C   C38       1.0  0.7212270758535195  0.62110479418385  0.9713473954024037  1.0000
  C   C39       1.0  0.2743730766573406  0.3922811237556303  0.028654443397549294  1.0000
  C   C40       1.0  0.12740070427243208  0.7075731099807995  0.4418788762038374  1.0000
  C   C41       1.0  0.8740342362137666  0.29508563732255055  0.5579094563900711  1.0000
  C   C42       1.0  0.9436277372190459  0.7211878449166703  0.5607806119348737  1.0000
  C   C43       1.0  0.05669959007911269  0.28209973685060413  0.4395144736507887  1.0000
  C   C44       1.0  0.1133813264536201  0.48526857424615594  0.6109703475686814  1.0000
  C   C45       1.0  0.5588986099763388  0.3984257348516991  0.704777080411823  1.0000
  C   C46       1.0  0.8877324100543474  0.5188997973714464  0.3893871356430907  1.0000
  C   C47       1.0  0.6232765101744632  0.29406428201785667  0.7950344397918766  1.0000
  C   C48       1.0  0.3830499633588217  0.7163791260216286  0.206270753814259  1.0000
  C   C49       1.0  0.38967317948814884  0.7059899463164853  0.6701072413861766  1.0000
  C   C50       1.0  0.6070506977165235  0.29813458266130505  0.33010014773422813  1.0000
  C   C51       1.0  0.44567508846044024  0.6085899025535397  0.29479605595182073  1.0000
  C   C52       1.0  0.49977398246647897  0.4943997283361129  0.6735819895955117  1.0000
  C   C53       1.0  0.5021900297478153  0.5115059442874068  0.32641600931510334  1.0000
  C   C54       1.0  0.44333938153986446  0.595915284929994  0.701524685293748  1.0000
  N   N1        1.0  0.5017932951691008  0.5010634667563422  0.148104442886428  1.0000
  N   N2        1.0  0.49975953140771173  0.5028772086204397  0.8517646434813528  1.0000
  N   N3        1.0  0.1408039841407671  0.4837824399340178  0.4971231795564961  1.0000
  N   N4        1.0  0.860542379888159  0.5198227013709982  0.5030912674854662  1.0000
  O   O1        1.0  0.34138958867211494  0.6834364256860398  0.5077357860860445  1.0000
  O   O2        1.0  0.7122667914397097  0.607237819106345  0.8514879745419035  1.0000
  O   O3        1.0  0.7055322238981673  0.618738294503359  0.1502564971195284  1.0000
  O   O4        1.0  0.28990125893741947  0.3941434988183588  0.8496076374312762  1.0000
  O   O5        1.0  0.07112993646810388  0.8077592124699038  0.4435452718739582  1.0000
  O   O6        1.0  0.9294208726668528  0.19473370070530643  0.5548783506790969  1.0000
  O   O7        1.0  0.8261296015401668  0.7396189722944297  0.5758913891575758  1.0000
  O   O8        1.0  0.17346682897861138  0.26332309045233165  0.4236281671377994  1.0000
  O   O9        1.0  0.09387195675366658  0.5693637046024803  0.6436436717126313  1.0000
  O   O10       1.0  0.9062472210662378  0.4350603407338908  0.3564445332170436  1.0000
  O   O11       1.0  0.6753684560651078  0.2061891863090395  0.771968526473124  1.0000
  O   O12       1.0  0.659430465315033  0.32171611397752997  0.4918637881907344  1.0000
  O   O13       1.0  0.37114242151407234  0.7307146552223144  0.15527528160126278  1.0000
  O   O14       1.0  0.34580336595595895  0.7977201870622678  0.6931383581105236  1.0000
  O   O15       1.0  0.6442481377786888  0.203723039338044  0.30709644972260003  1.0000
  O   O16       1.0  0.5762724672691704  0.6862083694771498  0.5046383862094146  1.0000
  O   O17       1.0  0.42443492920718734  0.318968973959187  0.49449820856282395  1.0000
  O   O18       1.0  0.3825933017690133  0.488511608134786  0.5847458470672464  1.0000
  O   O19       1.0  0.6188769424276828  0.5171326517474242  0.41526809153921806  1.0000
  O   O20       1.0  0.6174992781738311  0.4783492283426156  0.5877697803668909  1.0000
  O   O21       1.0  0.38383928927456873  0.5274082211731966  0.4120422747698528  1.0000
  O   O22       1.0  0.2875097790825336  0.40030035347713494  0.14869823232736215  1.0000
