data_image0
_chemical_formula_structural       Zn4H28C36N4O28
_chemical_formula_sum              "Zn4 H28 C36 N4 O28"
_cell_length_a       5.1900658621784
_cell_length_b       9.318806747939156
_cell_length_c       21.323739764026364
_cell_angle_alpha    90.00003591098955
_cell_angle_beta     90.00022547324885
_cell_angle_gamma    103.20230704195683

_space_group_name_H-M_alt    "P 1"
_space_group_IT_number       1

loop_
  _space_group_symop_operation_xyz
  'x, y, z'

loop_
  _atom_site_type_symbol
  _atom_site_label
  _atom_site_symmetry_multiplicity
  _atom_site_fract_x
  _atom_site_fract_y
  _atom_site_fract_z
  _atom_site_occupancy
  Zn  Zn1       1.0  0.4254351386766047  0.2658892552990082  0.37417620113131994  1.0000
  Zn  Zn2       1.0  0.07457725578080951  0.23410629965308521  0.8741759795734013  1.0000
  Zn  Zn3       1.0  0.5745746657235385  0.7341031055571038  0.6258197801614501  1.0000
  Zn  Zn4       1.0  0.9254046998104075  0.765884031479459  0.12582281546669094  1.0000
  H   H1        1.0  0.2462577505642045  0.38368563155252394  0.479682908279358  1.0000
  H   H2        1.0  0.2537491486656762  0.11632147206774592  0.9796913562497241  1.0000
  H   H3        1.0  0.7537543697930004  0.6163210823297334  0.5203121350933204  1.0000
  H   H4        1.0  0.7462491266344529  0.8836709636212919  0.020308376722724106  1.0000
  H   H5        1.0  0.02876876779951231  0.2540305440222498  0.4481685941113797  1.0000
  H   H6        1.0  0.47124145506829507  0.24599850513134666  0.9481707612120974  1.0000
  H   H7        1.0  0.9712442736773853  0.7459827953018777  0.5518302009491195  1.0000
  H   H8        1.0  0.5287519767467757  0.7540005933969313  0.05182568903107661  1.0000
  H   H9        1.0  0.28523116927043896  0.3541046269081392  0.18401528423005695  1.0000
  H   H10       1.0  0.214766438846695  0.1458835623733634  0.684015241363426  1.0000
  H   H11       1.0  0.7147709755073492  0.6458833627244404  0.8159835108230528  1.0000
  H   H12       1.0  0.7852235973034499  0.8541210843869538  0.3159891812127782  1.0000
  H   H13       1.0  0.5737472988992636  0.026465227039715013  0.2261797397902399  1.0000
  H   H14       1.0  0.9262361680729471  0.4735175773142331  0.72618138609689  1.0000
  H   H15       1.0  0.4262447380496327  0.9735261438942332  0.7738167104519322  1.0000
  H   H16       1.0  0.0737524467570979  0.5264837629605597  0.273821160634789  1.0000
  H   H17       1.0  0.7434536681986543  0.21309757797654785  0.040631254813980916  1.0000
  H   H18       1.0  0.7565432859233994  0.2868986968180068  0.5406331456680818  1.0000
  H   H19       1.0  0.25654837080375614  0.7869080961053073  0.9593666023175235  1.0000
  H   H20       1.0  0.2434573317934721  0.7131036707903889  0.4593684631495805  1.0000
  H   H21       1.0  0.16782272162542  0.3456530181273507  0.020436959864859702  1.0000
  H   H22       1.0  0.33216561173432513  0.15434446429735266  0.5204361309946465  1.0000
  H   H23       1.0  0.8321778960712862  0.6543493494740107  0.9795613662265623  1.0000
  H   H24       1.0  0.6678321633826769  0.8456512903540558  0.479568291586432  1.0000
  H   H25       1.0  0.3965111698828565  0.4046087404461788  0.08240653847537523  1.0000
  H   H26       1.0  0.1034842424135078  0.09537680899460102  0.5824030677113258  1.0000
  H   H27       1.0  0.6034846572366561  0.5953914477768055  0.9175922565738192  1.0000
  H   H28       1.0  0.896521271644417  0.9046100535388533  0.417597134226611  1.0000
  C   C1        1.0  0.09930829166977875  0.2797872080283313  0.17090911307507642  1.0000
  C   C2        1.0  0.4007214004269032  0.22019076869645468  0.6709130641824148  1.0000
  C   C3        1.0  0.9006981170337484  0.7202107010487638  0.8290896819809251  1.0000
  C   C4        1.0  0.5992854556239067  0.7798126636610052  0.3290890136001892  1.0000
  C   C5        1.0  0.9420586487918923  0.18636868760528105  0.2134730156256027  1.0000
  C   C6        1.0  0.5579400078260975  0.31361838364080813  0.7134788712731464  1.0000
  C   C7        1.0  0.05793820516796451  0.813620441591198  0.7865215587760802  1.0000
  C   C8        1.0  0.4420485805644177  0.6863873777478134  0.2865241444194666  1.0000
  C   C9        1.0  0.6995045333552312  0.10023468058606264  0.1933952351175492  1.0000
  C   C10       1.0  0.8004712127626873  0.3997668197376001  0.693394372097167  1.0000
  C   C11       1.0  0.3004831339040735  0.8997644553566747  0.8066021530436843  1.0000
  C   C12       1.0  0.1995154541101982  0.6002389541228439  0.30660911255509404  1.0000
  C   C13       1.0  0.6210343470631016  0.10792343008104416  0.1308522152993206  1.0000
  C   C14       1.0  0.8789584246299638  0.39207437098919234  0.6308542672249758  1.0000
  C   C15       1.0  0.37896148005065555  0.892076758139936  0.869145641828091  1.0000
  C   C16       1.0  0.12104024512975546  0.6079324302048548  0.36914827951327583  1.0000
  C   C17       1.0  0.788186009056467  0.2016433876590753  0.09000489304354181  1.0000
  C   C18       1.0  0.7118312934755905  0.29834523398486823  0.5900062574730996  1.0000
  C   C19       1.0  0.2118136610983046  0.7983567756202707  0.9099929640863567  1.0000
  C   C20       1.0  0.28817561548019915  0.7016493561539792  0.4099991030356521  1.0000
  C   C21       1.0  0.0424383459444186  0.1786130422706407  0.2796531332344686  1.0000
  C   C22       1.0  0.4575311669972209  0.321370220737613  0.7796613812256227  1.0000
  C   C23       1.0  0.9575570602788588  0.8213772015621789  0.7203437859707479  1.0000
  C   C24       1.0  0.5424656076872764  0.6786321718154299  0.22034163447222713  1.0000
  C   C25       1.0  0.3632816201526552  0.013749100957916505  0.10642997116724473  1.0000
  C   C26       1.0  0.1367284325748415  0.48624751070445893  0.6064274920813163  1.0000
  C   C27       1.0  0.636717576238354  0.986249960162937  0.8935688238841099  1.0000
  C   C28       1.0  0.8632587080445333  0.5137593653084452  0.39357224088414006  1.0000
  C   C29       1.0  0.18928186907407965  0.390123357990639  0.06811716605622563  1.0000
  C   C30       1.0  0.31071907937915455  0.10987093502528472  0.5681177151214102  1.0000
  C   C31       1.0  0.8107221178912455  0.6098778825075828  0.9318806910764723  1.0000
  C   C32       1.0  0.6892897510885022  0.8901236426397364  0.4318862385059036  1.0000
  C   C33       1.0  0.12314721717419996  0.5416669812966861  0.06920839742361552  1.0000
  C   C34       1.0  0.37685421896109256  0.9583353732377945  0.5692048209276663  1.0000
  C   C35       1.0  0.8768539007805317  0.4583320673684383  0.9307974320423472  1.0000
  C   C36       1.0  0.6231617444889891  0.04167131572092591  0.4307986637435378  1.0000
  N   N1        1.0  0.021135153005935957  0.28503809615369846  0.11070198761327532  1.0000
  N   N2        1.0  0.4788855867149806  0.21494741246272753  0.6107065085292336  1.0000
  N   N3        1.0  0.9788822845972049  0.7149630570468092  0.8892949316063294  1.0000
  N   N4        1.0  0.5211246386188507  0.7850548927966161  0.38929744509908915  1.0000
  O   O1        1.0  0.26995758830885563  0.2665908774151264  0.2900529581472356  1.0000
  O   O2        1.0  0.2300533254112622  0.23339879371161493  0.7900595028963624  1.0000
  O   O3        1.0  0.7300421611644907  0.7333960225227402  0.7099434920998534  1.0000
  O   O4        1.0  0.7699386586816318  0.7666014194580343  0.20994163695480247  1.0000
  O   O5        1.0  0.9081668860916635  0.09143916806473132  0.31770611590425096  1.0000
  O   O6        1.0  0.5918026481962356  0.40857175717880534  0.8177021697689  1.0000
  O   O7        1.0  0.09182604551148188  0.9085632494158632  0.682290334338653  1.0000
  O   O8        1.0  0.4081979959716905  0.5914261893197834  0.18230084593139406  1.0000
  O   O9        1.0  0.2547058807399694  0.910207272594782  0.1442225337169347  1.0000
  O   O10       1.0  0.2452951085602706  0.5897832547705734  0.6442258114647573  1.0000
  O   O11       1.0  0.7452822602946227  0.08979296551046191  0.8557757923664017  1.0000
  O   O12       1.0  0.7547136954304108  0.4102157439952095  0.3557725146319158  1.0000
  O   O13       1.0  0.2742739149958666  0.04149886393462052  0.05432742113656272  1.0000
  O   O14       1.0  0.22573020687055848  0.45849866398356925  0.5543264631585174  1.0000
  O   O15       1.0  0.7257367840844464  0.9585045434771827  0.9456727808049552  1.0000
  O   O16       1.0  0.7742584079277961  0.5415026762801677  0.44567092500336264  1.0000
  O   O17       1.0  0.9323696307204729  0.5586193189751472  0.10387169571088614  1.0000
  O   O18       1.0  0.5676382086106032  0.9413808002464066  0.6038663123559048  1.0000
  O   O19       1.0  0.06761803659068025  0.44137981698568046  0.8961341337463864  1.0000
  O   O20       1.0  0.43236522529254984  0.05863260144185033  0.3961371723072987  1.0000
  O   O21       1.0  0.26312666379939037  0.6376566173580118  0.03434781238115651  1.0000
  O   O22       1.0  0.23684746926037567  0.8623413412473159  0.5343492109297401  1.0000
  O   O23       1.0  0.7368615037121699  0.3623391996464705  0.9656561412328275  1.0000
  O   O24       1.0  0.7631690208382764  0.13765760764425045  0.46565333581990853  1.0000
  O   O25       1.0  0.2007194543338429  0.32662601221163373  0.440486188877742  1.0000
  O   O26       1.0  0.2992781975470677  0.17340087453636244  0.9404970420605281  1.0000
  O   O27       1.0  0.7992883227704157  0.6733840455645751  0.5595088544921796  1.0000
  O   O28       1.0  0.7007171557971575  0.8265982115241146  0.05950081506656352  1.0000
