data_image0
_chemical_formula_structural       Cs2UH14C14N2O14
_chemical_formula_sum              "Cs2 U1 H14 C14 N2 O14"
_cell_length_a       6.945707710789796
_cell_length_b       8.452045281590244
_cell_length_c       10.775086584920054
_cell_angle_alpha    99.88824034980533
_cell_angle_beta     105.64963310165874
_cell_angle_gamma    110.26711605937791

_space_group_name_H-M_alt    "P 1"
_space_group_IT_number       1

loop_
  _space_group_symop_operation_xyz
  'x, y, z'

loop_
  _atom_site_type_symbol
  _atom_site_label
  _atom_site_symmetry_multiplicity
  _atom_site_fract_x
  _atom_site_fract_y
  _atom_site_fract_z
  _atom_site_occupancy
  Cs  Cs1       1.0  0.06192784362824001  0.2637277776315301  0.4282684343343917  1.0000
  Cs  Cs2       1.0  0.9380846658825134  0.7362693112528049  0.5717342624957454  1.0000
  U   U1        1.0  0.5000116503534784  0.9999924781062218  5.585321332564884e-06  1.0000
  H   H1        1.0  0.4155480457896702  0.7301524026759268  0.6521753761194518  1.0000
  H   H2        1.0  0.5844495227643093  0.2698962051479583  0.34781834063529266  1.0000
  H   H3        1.0  0.4568474372253137  0.745847096418153  0.5169880611633602  1.0000
  H   H4        1.0  0.5431586458617446  0.2541605131965383  0.4830055802119233  1.0000
  H   H5        1.0  0.9501561821785102  0.2123659329110339  0.6837529721939433  1.0000
  H   H6        1.0  0.04986802726489276  0.7876364016021355  0.31625338834980715  1.0000
  H   H7        1.0  0.7608576480297203  0.03782546806378661  0.5757842879392854  1.0000
  H   H8        1.0  0.23917517008235487  0.9621676145019151  0.4242270352797775  1.0000
  H   H9        1.0  0.9146732397181198  0.7494525406615793  0.10782509375598447  1.0000
  H   H10       1.0  0.08530403507326409  0.25054876199385484  0.8921812258481693  1.0000
  H   H11       1.0  0.8167165643160317  0.7626622005258172  0.8715076088591401  1.0000
  H   H12       1.0  0.18327403028231976  0.23734152047983062  0.1284837331591788  1.0000
  H   H13       1.0  0.6051215787255658  0.4754952971709868  0.6812694038859064  1.0000
  H   H14       1.0  0.3948915293565279  0.5244883196751928  0.3187056746036987  1.0000
  C   C1        1.0  0.7512580401148768  0.46384627635430326  0.04672885127973108  1.0000
  C   C2        1.0  0.24872440202715757  0.5361562553455032  0.9532711115359689  1.0000
  C   C3        1.0  0.8220925447475127  0.628606978240164  0.02403563897603802  1.0000
  C   C4        1.0  0.17788966751922436  0.3714008003657554  0.9759603194584017  1.0000
  C   C5        1.0  0.768470373500648  0.6350371330894761  0.8910192973654459  1.0000
  C   C6        1.0  0.23154259848062964  0.3649664519339381  0.10897225327572357  1.0000
  C   C7        1.0  0.6531069275455794  0.4774588674021771  0.786607744705165  1.0000
  C   C8        1.0  0.3469008800335872  0.522543444777753  0.21338551713265022  1.0000
  C   C9        1.0  0.5946511238893778  0.31828520461976245  0.8185222333835185  1.0000
  C   C10       1.0  0.40536288554553573  0.6817117548975131  0.18146771746263107  1.0000
  C   C11       1.0  0.7896843803082164  0.4374809836245888  0.18363390146209474  1.0000
  C   C12       1.0  0.21030505357671103  0.5625150796072589  0.8163850197365434  1.0000
  C   C13       1.0  0.47592151190519155  0.14074557469082546  0.7149908655811288  1.0000
  C   C14       1.0  0.5241145353408002  0.8592420109944642  0.2849998991695771  1.0000
  N   N1        1.0  0.6387386027780695  0.3116431748346359  0.9460598233715627  1.0000
  N   N2        1.0  0.3612677166710583  0.6883590915158777  0.05392760208299311  1.0000
  O   O1        1.0  0.6857698307707666  0.2781803960550988  0.18313615078591988  1.0000
  O   O2        1.0  0.3141541796679237  0.7218450729449587  0.8168769033647862  1.0000
  O   O3        1.0  0.9156720878541692  0.5622974292509326  0.2883518760718289  1.0000
  O   O4        1.0  0.08430874171862972  0.4376907908591647  0.7116700879826396  1.0000
  O   O5        1.0  0.42854150603918834  0.010151319236719298  0.763518212521646  1.0000
  O   O6        1.0  0.5714435863543131  0.9898418647962046  0.23647265861994524  1.0000
  O   O7        1.0  0.4293619826135142  0.1292922029532804  0.5915454050760616  1.0000
  O   O8        1.0  0.5706646694823762  0.8706716391847849  0.40844250075227256  1.0000
  O   O9        1.0  0.7658372373083182  0.0007898711592560001  0.015336920363125704  1.0000
  O   O10       1.0  0.2341504764410446  0.999194394438156  0.9846903859041304  1.0000
  O   O11       1.0  0.4219142520566522  0.6636864486096882  0.5703938057218066  1.0000
  O   O12       1.0  0.5780497109550566  0.3363293468084407  0.4295999744514276  1.0000
  O   O13       1.0  0.8954997207882728  0.0823196332693144  0.6556042839454292  1.0000
  O   O14       1.0  0.10454158581373474  0.9176839290109272  0.3444033879047268  1.0000
