data_image0
_chemical_formula_structural       Mg6H108C108N16O32
_chemical_formula_sum              "Mg6 H108 C108 N16 O32"
_cell_length_a       11.652575916029004
_cell_length_b       13.108410524455165
_cell_length_c       26.59481513370825
_cell_angle_alpha    103.31434389727136
_cell_angle_beta     90.00010637583833
_cell_angle_gamma    90.00020179029373

_space_group_name_H-M_alt    "P 1"
_space_group_IT_number       1

loop_
  _space_group_symop_operation_xyz
  'x, y, z'

loop_
  _atom_site_type_symbol
  _atom_site_label
  _atom_site_symmetry_multiplicity
  _atom_site_fract_x
  _atom_site_fract_y
  _atom_site_fract_z
  _atom_site_occupancy
  Mg  Mg1       1.0  0.5000014365947794  2.263842354503658e-06  0.9999990861394255  1.0000
  Mg  Mg2       1.0  0.4999996510209003  0.5000010518770209  0.4999987954304643  1.0000
  Mg  Mg3       1.0  0.24464233803168167  0.8717440362385459  0.9430711317272936  1.0000
  Mg  Mg4       1.0  0.24463846269337358  0.6282628456887521  0.5569301254362244  1.0000
  Mg  Mg5       1.0  0.7553595385583591  0.12826123768840592  0.056928306347728594  1.0000
  Mg  Mg6       1.0  0.7553565484588349  0.371737802714513  0.4430721963965709  1.0000
  H   H1        1.0  0.0270444451313949  0.13808940192877364  0.9823550824651337  1.0000
  H   H2        1.0  0.0270524853752647  0.361909938594053  0.5176476155984844  1.0000
  H   H3        1.0  0.9729488496418244  0.8619056727288236  0.01764287582857795  1.0000
  H   H4        1.0  0.9729502493834234  0.6380883321974194  0.4823533208297022  1.0000
  H   H5        1.0  0.9353100636518763  0.3102342789735673  0.9863124134491628  1.0000
  H   H6        1.0  0.9353165468575783  0.18976441393141383  0.5136868345095422  1.0000
  H   H7        1.0  0.0646832311325483  0.6897655076891525  0.013686430803041114  1.0000
  H   H8        1.0  0.064687904245126  0.8102275770728934  0.4863130462990527  1.0000
  H   H9        1.0  0.5503169360467909  0.808819503707589  0.04873056471521408  1.0000
  H   H10       1.0  0.5503098325825919  0.6911847966648919  0.45127090656671953  1.0000
  H   H11       1.0  0.44969180599638764  0.19118902689437786  0.9512744902970527  1.0000
  H   H12       1.0  0.4496886112905685  0.30881818612375156  0.5487309158173161  1.0000
  H   H13       1.0  0.28483990229003814  0.6416464124268227  0.1527627043719093  1.0000
  H   H14       1.0  0.28483731107645144  0.8583513300732546  0.3472340757924286  1.0000
  H   H15       1.0  0.7151679815439211  0.35835184972478357  0.8472378550873999  1.0000
  H   H16       1.0  0.7151679982189452  0.1416492232055191  0.6527640993541652  1.0000
  H   H17       1.0  0.6269094365040219  0.7295669733182775  0.11981805338787409  1.0000
  H   H18       1.0  0.6269057784172106  0.7704336569325462  0.3801815803630504  1.0000
  H   H19       1.0  0.3730958728140196  0.2704384130574411  0.8801862853259267  1.0000
  H   H20       1.0  0.3730926654338235  0.2295622016272176  0.6198164627649092  1.0000
  H   H21       1.0  0.35129977429884474  0.28818018417332775  0.025777447391057296  1.0000
  H   H22       1.0  0.35130829713330786  0.21181746217165906  0.4742270804400165  1.0000
  H   H23       1.0  0.6486952368233858  0.7118094291873758  0.9742210480023417  1.0000
  H   H24       1.0  0.648697012168519  0.7881823937086524  0.5257747795960057  1.0000
  H   H25       1.0  0.3685477960532638  0.5291806971702895  0.36262242990595445  1.0000
  H   H26       1.0  0.3685447608329824  0.9708111017967266  0.1373745288440134  1.0000
  H   H27       1.0  0.6314635204869674  0.4708136195763472  0.6373765744839517  1.0000
  H   H28       1.0  0.6314622648080646  0.029183188993705804  0.862623344627089  1.0000
  H   H29       1.0  0.30990836721677795  0.5956991449014382  0.2844069283322526  1.0000
  H   H30       1.0  0.30991398179426716  0.9042917220046646  0.2155928890109351  1.0000
  H   H31       1.0  0.6900960838919447  0.4042952064301345  0.7155935839416259  1.0000
  H   H32       1.0  0.6900930438459625  0.09570256013635259  0.7844046074881206  1.0000
  H   H33       1.0  0.20853145457598296  0.7189353833125051  0.08133035919602344  1.0000
  H   H34       1.0  0.2085262854296062  0.7810762296172837  0.4186697386263702  1.0000
  H   H35       1.0  0.7914764292691886  0.28106759084422345  0.9186710862217851  1.0000
  H   H36       1.0  0.7914738748104  0.21893296376956778  0.5813301236029602  1.0000
  H   H37       1.0  0.2584193842093044  0.4645117978773284  0.031152725112541184  1.0000
  H   H38       1.0  0.25842718558749317  0.0354862102013769  0.4688483801920143  1.0000
  H   H39       1.0  0.7415824923529117  0.5354801671739579  0.9688460247783154  1.0000
  H   H40       1.0  0.7415824146000674  0.9645104668693422  0.5311512556621025  1.0000
  H   H41       1.0  0.710653905483092  0.4797784180662674  0.3039905605007647  1.0000
  H   H42       1.0  0.7106536243824239  0.02023217175755579  0.1960092746870572  1.0000
  H   H43       1.0  0.2893531201728338  0.5202236857020919  0.6960070303649318  1.0000
  H   H44       1.0  0.2893499685941451  0.979780286947374  0.8039965814494465  1.0000
  H   H45       1.0  0.6559166361938582  0.5533741256573421  0.2276773263845584  1.0000
  H   H46       1.0  0.6559218007882919  0.9466265688940678  0.2723204583046552  1.0000
  H   H47       1.0  0.34408524037741733  0.44662482523217045  0.77231917120956  1.0000
  H   H48       1.0  0.3440783594615056  0.05338272828577568  0.7276839275892826  1.0000
  H   H49       1.0  0.0194614249545779  0.984809157389783  0.9311441167538065  1.0000
  H   H50       1.0  0.019453719451277603  0.5151890594953554  0.5688563912092448  1.0000
  H   H51       1.0  0.9805284371110405  0.015186021054446996  0.0688583652023951  1.0000
  H   H52       1.0  0.9805275608197308  0.48480993460306376  0.4311419912324227  1.0000
  H   H53       1.0  0.1767133433276982  0.6033124289230186  0.8794650869374436  1.0000
  H   H54       1.0  0.17671680845845833  0.8966942098506934  0.6205364633824502  1.0000
  H   H55       1.0  0.8232842423578575  0.39668970077609333  0.1205336348385799  1.0000
  H   H56       1.0  0.8232790608784911  0.10331032341957777  0.37946477471804485  1.0000
  H   H57       1.0  0.19872156476790795  0.6373745373786261  0.9476805069316468  1.0000
  H   H58       1.0  0.19872546393968094  0.8626290387617244  0.5523203542489554  1.0000
  H   H59       1.0  0.8012743045553848  0.36262525793828354  0.052318714294195  1.0000
  H   H60       1.0  0.8012721217525964  0.13737469332028238  0.44768004507741926  1.0000
  H   H61       1.0  0.365884183513117  0.5116419005481418  0.8670174516848592  1.0000
  H   H62       1.0  0.365890639159808  0.9883622866287493  0.6329832387936705  1.0000
  H   H63       1.0  0.634110827627353  0.48835632698194315  0.1329815998783062  1.0000
  H   H64       1.0  0.6341078047186531  0.0116438144315296  0.36701816897056017  1.0000
  H   H65       1.0  0.27591093096761204  0.4606774483587443  0.9083494780191472  1.0000
  H   H66       1.0  0.2759171485856059  0.039325105854700795  0.5916511428181722  1.0000
  H   H67       1.0  0.7240849383598589  0.5393231567990283  0.0916509589539274  1.0000
  H   H68       1.0  0.7240838698215201  0.9606778336916333  0.40834879470720153  1.0000
  H   H69       1.0  0.38032340829204975  0.5643652568868731  0.9862897009006062  1.0000
  H   H70       1.0  0.3803248585321627  0.9356350902929188  0.5137117141527412  1.0000
  H   H71       1.0  0.61967160285964  0.4356376826483268  0.013710236621058386  1.0000
  H   H72       1.0  0.6196761598676305  0.0643616473078055  0.4862905605004428  1.0000
  H   H73       1.0  0.4729475864688767  0.6184992023374817  0.946536701447144  1.0000
  H   H74       1.0  0.47294899073172303  0.8815006870138117  0.5534639891235429  1.0000
  H   H75       1.0  0.5270491410389582  0.3815029446588696  0.05346277427245379  1.0000
  H   H76       1.0  0.5270485949557725  0.1184976356646175  0.4465392091337748  1.0000
  H   H77       1.0  0.47651991047127507  0.48265647877232704  0.9429964860420128  1.0000
  H   H78       1.0  0.47652331958564537  0.0173428736933374  0.5570028272612008  1.0000
  H   H79       1.0  0.5234768170365597  0.5173456682240242  0.057002989677577894  1.0000
  H   H80       1.0  0.5234768406323483  0.9826538379575495  0.44299831647529697  1.0000
  H   H81       1.0  0.9072601463433827  0.7559272036689817  0.8211291624773126  1.0000
  H   H82       1.0  0.9072606795129945  0.7440703675892664  0.6788712628804349  1.0000
  H   H83       1.0  0.09273743933594862  0.24407103251528633  0.17887026605949072  1.0000
  H   H84       1.0  0.09273261527449962  0.2559279204835504  0.3211304274860254  1.0000
  H   H85       1.0  0.7871168488579771  0.7584816395747679  0.8634922523146216  1.0000
  H   H86       1.0  0.7871163341563232  0.7415194230654977  0.6365092028925049  1.0000
  H   H87       1.0  0.21287816227464879  0.24151267714164246  0.13650675206523033  1.0000
  H   H88       1.0  0.21287438611025078  0.25848517074114596  0.3634946740091678  1.0000
  H   H89       1.0  0.9252321857459976  0.7162978030800314  0.8805813059122585  1.0000
  H   H90       1.0  0.9252326239171396  0.7837006273434355  0.6194196034249445  1.0000
  H   H91       1.0  0.0747636835763714  0.2837012169936769  0.11941820745455803  1.0000
  H   H92       1.0  0.07476067087025481  0.21629689413559555  0.3805827560545439  1.0000
  H   H93       1.0  0.8496347430470337  0.033094861162538784  0.9142534542040721  1.0000
  H   H94       1.0  0.8496280407602868  0.4669051424459241  0.5857484964949222  1.0000
  H   H95       1.0  0.150365417176161  0.9669042021662048  0.08574794402564827  1.0000
  H   H96       1.0  0.15036267949619747  0.5330970477863772  0.4142528640812202  1.0000
  H   H97       1.0  0.7387640303154441  0.9370536763631917  0.903529708057782  1.0000
  H   H98       1.0  0.7387566310966704  0.5629464490733298  0.5964727335657685  1.0000
  H   H99       1.0  0.2612318390205886  0.06295008166388527  0.09647182218368763  1.0000
  H   H100      1.0  0.2612306564353872  0.43705183898834576  0.40352895679698975  1.0000
  H   H101      1.0  0.8088695104653213  0.9701348234188456  0.8495130169144076  1.0000
  H   H102      1.0  0.8088630673271453  0.5298647434141229  0.6504879184963103  1.0000
  H   H103      1.0  0.19113150793732106  0.0298650065052684  0.15048771220281762  1.0000
  H   H104      1.0  0.19112851110776316  0.4701366715765615  0.3495137342213397  1.0000
  H   H105      1.0  0.3793915636995067  0.7123740681633703  0.9131404614046873  1.0000
  H   H106      1.0  0.3793918794010694  0.7876262669105072  0.5868605755260674  1.0000
  H   H107      1.0  0.6206068801599901  0.28762417667190476  0.0868593441047025  1.0000
  H   H108      1.0  0.6206031317512385  0.21237514808654373  0.41314107719369986  1.0000
  C   C1        1.0  0.25254045680854637  0.09748234743654648  0.9958070673582782  1.0000
  C   C2        1.0  0.2525520336386222  0.4025162612339912  0.5041957392935998  1.0000
  C   C3        1.0  0.747451979799493  0.9025151740408927  0.00419529212067718  1.0000
  C   C4        1.0  0.7474567083674374  0.5974826896682472  0.49580075830476034  1.0000
  C   C5        1.0  0.32692937643546577  0.8175671509005228  0.020428663659785677  1.0000
  C   C6        1.0  0.3269249328182229  0.6824370620121837  0.4795707319480798  1.0000
  C   C7        1.0  0.6730827983143899  0.18244050067161058  0.9795721598309584  1.0000
  C   C8        1.0  0.6730735110396467  0.3175611655242604  0.5204283196172029  1.0000
  C   C9        1.0  0.19577514427959394  0.202562263297132  0.0022282775519074  1.0000
  C   C10       1.0  0.19578324799466887  0.29743632239728157  0.4977739662009172  1.0000
  C   C11       1.0  0.804214717781129  0.7974328632506058  0.9977719425719869  1.0000
  C   C12       1.0  0.8042160540393797  0.7025626371368784  0.5022229083636631  1.0000
  C   C13       1.0  0.37487413490870836  0.7706305302142624  0.061784870721822885  1.0000
  C   C14       1.0  0.37486798559197615  0.7293723012933812  0.438214791355783  1.0000
  C   C15       1.0  0.6251363234849026  0.22937714730293376  0.9382170836840161  1.0000
  C   C16       1.0  0.6251287419096415  0.2706259521881335  0.5617853911245945  1.0000
  C   C17       1.0  0.0781019871781581  0.20951120936829423  0.9919109921441989  1.0000
  C   C18       1.0  0.0781105620994822  0.29048749328900664  0.5080897992302909  1.0000
  C   C19       1.0  0.9218904494207081  0.7904846837779971  0.008088558868259094  1.0000
  C   C20       1.0  0.921893030827846  0.7095098984678712  0.4919069056747958  1.0000
  C   C21       1.0  0.5419960295363211  0.5000635213621861  0.3375324375195632  1.0000
  C   C22       1.0  0.5419966487584277  0.9999288859962902  0.1624632273689244  1.0000
  C   C23       1.0  0.4580118542884578  0.49993311245827227  0.6624653134732483  1.0000
  C   C24       1.0  0.45800866054707273  7.40708568329983e-05  0.8375374641031925  1.0000
  C   C25       1.0  0.026553065329451907  0.30563899042098797  0.9941646234536137  1.0000
  C   C26       1.0  0.0265603916328701  0.19435792740576108  0.505834803733606  1.0000
  C   C27       1.0  0.9734436621679878  0.6943584532196567  0.005834343279538195  1.0000
  C   C28       1.0  0.9734466340116444  0.8056379311699047  0.4941632393996472  1.0000
  C   C29       1.0  0.4930737749321923  0.7720852589034802  0.07170612290141067  1.0000
  C   C30       1.0  0.49306586142515146  0.7279132901190618  0.4282924220956517  1.0000
  C   C31       1.0  0.5069349670990563  0.22791931763773474  0.9282970000672819  1.0000
  C   C32       1.0  0.5069308660705546  0.272083369628966  0.5717064598064212  1.0000
  C   C33       1.0  0.09310038934161471  0.39757968842651786  0.0071457295400065846  1.0000
  C   C34       1.0  0.09310512496329441  0.1024184301464004  0.4928526177958901  1.0000
  C   C35       1.0  0.9069006290490976  0.6024161874368446  0.9928530675336376  1.0000
  C   C36       1.0  0.9069036170383886  0.8975781777274034  0.5071440022812936  1.0000
  C   C37       1.0  0.3415638659255649  0.6788738166641579  0.1298104316780737  1.0000
  C   C38       1.0  0.3415612245082685  0.8211249286567862  0.3701868802832422  1.0000
  C   C39       1.0  0.6584423015549916  0.32112756375590823  0.8701897131603715  1.0000
  C   C40       1.0  0.6584397938937558  0.17887642580548394  0.6298121336358733  1.0000
  C   C41       1.0  0.5355218960461343  0.7281700752742425  0.11088151642501028  1.0000
  C   C42       1.0  0.5355165650025953  0.7718254695919453  0.3891156107115775  1.0000
  C   C43       1.0  0.46448427145144683  0.2718368442906324  0.8891214840632671  1.0000
  C   C44       1.0  0.4644835952019335  0.22816803729314467  0.6108821779242248  1.0000
  C   C45       1.0  0.2606296880282032  0.2947378952811945  0.017073760246454104  1.0000
  C   C46       1.0  0.2606365054064101  0.20525855320416742  0.4829271781227291  1.0000
  C   C47       1.0  0.7393653230998397  0.7052525452192101  0.9829267048382776  1.0000
  C   C48       1.0  0.7393705202381045  0.7947373053714979  0.5170708650105311  1.0000
  C   C49       1.0  0.4290622538879136  0.5321877348803452  0.3320335717595029  1.0000
  C   C50       1.0  0.4290653436729529  0.9678027119938688  0.1679629150311683  1.0000
  C   C51       1.0  0.570945629929014  0.4678049881264456  0.6679641320499814  1.0000
  C   C52       1.0  0.5709459728897102  0.032201028763005  0.8320378612757295  1.0000
  C   C53       1.0  0.5745957188734608  0.46413928575461233  0.3854776185798415  1.0000
  C   C54       1.0  0.574601161534261  0.03585747352997969  0.1145206065958035  1.0000
  C   C55       1.0  0.4254113067831825  0.5358620600693695  0.6145210183709366  1.0000
  C   C56       1.0  0.42541616228638907  0.9641470597800675  0.8854806315179219  1.0000
  C   C57       1.0  0.460025259061574  0.6833978932554814  0.1408313313467033  1.0000
  C   C58       1.0  0.46002083663864113  0.8165981815829753  0.3591669183794508  1.0000
  C   C59       1.0  0.5399817666034323  0.3166050722502333  0.8591697370985258  1.0000
  C   C60       1.0  0.5399784653992938  0.18339928801069047  0.6408331792714395  1.0000
  C   C61       1.0  0.39715341332549053  0.5696739178055024  0.2894222762505976  1.0000
  C   C62       1.0  0.3971582515736929  0.9303187192148595  0.21057254080057666  1.0000
  C   C63       1.0  0.6028484632452873  0.430321200115088  0.7105775669086611  1.0000
  C   C64       1.0  0.6028461995392008  0.0696825660584395  0.7894234573442561  1.0000
  C   C65       1.0  0.29978512313766714  0.7220520505345714  0.09058537029068957  1.0000
  C   C66       1.0  0.2997816187521921  0.7779528283483897  0.4094133227103853  1.0000
  C   C67       1.0  0.7002210443498244  0.2779524654559608  0.9094151138720508  1.0000
  C   C68       1.0  0.7002185414748683  0.22205086914072325  0.5905855687293737  1.0000
  C   C69       1.0  0.20966948017157705  0.39179960011497167  0.019850747368607802  1.0000
  C   C70       1.0  0.20967246847774856  0.10819815804084948  0.4801472820021858  1.0000
  C   C71       1.0  0.7903272473146503  0.6081931315205578  0.9801473334060518  1.0000
  C   C72       1.0  0.7903302662651299  0.8917976486303726  0.519848499296117  1.0000
  C   C73       1.0  0.47927167566886913  0.578738521910317  0.2520423216270302  1.0000
  C   C74       1.0  0.4792774946568841  0.9212607512157261  0.24795591420658522  1.0000
  C   C75       1.0  0.520732775440152  0.421258129202613  0.7479561833077639  1.0000
  C   C76       1.0  0.5207303891848198  0.07874065515576228  0.7520453615490725  1.0000
  C   C77       1.0  0.6234440464668936  0.5063074229383132  0.2993249185650413  1.0000
  C   C78       1.0  0.6234430865824125  0.9936978199820743  0.20067182714945633  1.0000
  C   C79       1.0  0.3765655537209654  0.49369155391376296  0.7006727099499983  1.0000
  C   C80       1.0  0.37655964821694005  0.006318488989016697  0.7993314373654883  1.0000
  C   C81       1.0  0.5932635852368691  0.5464567354347521  0.2571146324035922  1.0000
  C   C82       1.0  0.5932617870388982  0.9535516090186247  0.24288580814230437  1.0000
  C   C83       1.0  0.40674172405078224  0.4535406736241328  0.7428828264466463  1.0000
  C   C84       1.0  0.406734940502993  0.04646161626735788  0.7571193788769364  1.0000
  C   C85       1.0  0.008500551566776001  0.901955700831898  0.9110378323594404  1.0000
  C   C86       1.0  0.008495834113787702  0.5980416828841726  0.5889622002772797  1.0000
  C   C87       1.0  0.9914910268522377  0.09803635934387242  0.08896506421762501  1.0000
  C   C88       1.0  0.9914914534161242  0.401958879010614  0.4110363518302407  1.0000
  C   C89       1.0  0.24225174102168984  0.6207311325555763  0.9099303691491585  1.0000
  C   C90       1.0  0.2422558661629212  0.8792718297108023  0.5900708378861239  1.0000
  C   C91       1.0  0.7577449864809438  0.379268662762925  0.0900688520772164  1.0000
  C   C92       1.0  0.7577408613516496  0.1207319196684509  0.4099303153838179  1.0000
  C   C93       1.0  0.3260888097043165  0.5303912829100027  0.9055937684414773  1.0000
  C   C94       1.0  0.3260933111719595  0.9696111889543458  0.5944067032686604  1.0000
  C   C95       1.0  0.6739062014413549  0.4696092962979321  0.0944055376149109  1.0000
  C   C96       1.0  0.6739042745167583  0.030390208748642095  0.4055941955085984  1.0000
  C   C97       1.0  0.4185817914698903  0.5501277410109251  0.9475447124765567  1.0000
  C   C98       1.0  0.4185860369038679  0.9498735232432266  0.5524564576460307  1.0000
  C   C99       1.0  0.5814140778611405  0.44987519852586627  0.052455225045633797  1.0000
  C   C100      1.0  0.5814141233209611  0.050125557384348  0.4475456945277969  1.0000
  C   C101      1.0  0.8799864641260059  0.7707568675069253  0.8618251851813599  1.0000
  C   C102      1.0  0.8799859078489833  0.7292421790788737  0.6381757531558634  1.0000
  C   C103      1.0  0.12001112155067524  0.22923980954152506  0.1381744506653462  1.0000
  C   C104      1.0  0.12000738694289483  0.2707584520223704  0.3618258147317732  1.0000
  C   C105      1.0  0.8212084749197572  0.9591261142661976  0.8889561380882044  1.0000
  C   C106      1.0  0.8212044827375637  0.5408735069619652  0.6110451895215974  1.0000
  C   C107      1.0  0.17878911076549295  0.040873715651557084  0.11104459102690362  1.0000
  C   C108      1.0  0.17878537933610525  0.4591271154835042  0.38895600139186837  1.0000
  N   N1        1.0  0.509735304339671  0.6437189127589419  0.18101191654037052  1.0000
  N   N2        1.0  0.5097351597078658  0.8562804646370166  0.3189859799077652  1.0000
  N   N3        1.0  0.49027172133491354  0.3562887474530639  0.818989283919251  1.0000
  N   N4        1.0  0.49026671685536644  0.14371304225125664  0.681011808729089  1.0000
  N   N5        1.0  0.4361206995052599  0.6207396287323731  0.21174790340242575  1.0000
  N   N6        1.0  0.4361222319919449  0.8792610435584434  0.2882500718729943  1.0000
  N   N7        1.0  0.5638846097951388  0.379261743036679  0.7882518644634474  1.0000
  N   N8        1.0  0.5638796445867841  0.12073875176959348  0.7117491493565565  1.0000
  N   N9        1.0  0.05049971286926081  0.4990187080217225  0.0088306091480774  1.0000
  N   N10       1.0  0.0505014648844977  0.000978460080531799  0.491167223816241  1.0000
  N   N11       1.0  0.9495038800621458  0.5009787269822324  0.991167980617263  1.0000
  N   N12       1.0  0.9495064189384481  0.9990166232535242  0.5088311114585196  1.0000
  N   N13       1.0  0.9063208254389394  0.8779636519125801  0.888933844091433  1.0000
  N   N14       1.0  0.906318013111033  0.6220347170488053  0.61106741888036  1.0000
  N   N15       1.0  0.09367246934345995  0.12203305107616556  0.11106692266877621  1.0000
  N   N16       1.0  0.0936701326048563  0.3779666806366888  0.3889334798910724  1.0000
  O   O1        1.0  0.22052367703990688  0.807745783902021  0.009764821444271378  1.0000
  O   O2        1.0  0.22051845935947514  0.6922564840709453  0.4902350271469729  1.0000
  O   O3        1.0  0.7794893558892968  0.19226186767170358  0.9902360020470056  1.0000
  O   O4        1.0  0.7794799845026719  0.3077433199001547  0.5097645710525143  1.0000
  O   O5        1.0  0.29890291029695965  0.7162090238509788  0.9037194636087875  1.0000
  O   O6        1.0  0.29890410892599567  0.7837933904746702  0.596282859413833  1.0000
  O   O7        1.0  0.7010946753900242  0.2837915899593923  0.0962813503373923  1.0000
  O   O8        1.0  0.7010909022245786  0.21620724062975671  0.4037187084748625  1.0000
  O   O9        1.0  0.0874340395346138  0.8363756065080566  0.9100165508838671  1.0000
  O   O10       1.0  0.08743130261377272  0.6636236116595453  0.5899826178991532  1.0000
  O   O11       1.0  0.9125583970741432  0.16362115702501256  0.089986854680177  1.0000
  O   O12       1.0  0.9125568430852912  0.3363737800686977  0.410014086996398  1.0000
  O   O13       1.0  0.3929178004713023  0.8643249101800377  0.9938375177484673  1.0000
  O   O14       1.0  0.3929137393228217  0.635680927678898  0.5061626217994473  1.0000
  O   O15       1.0  0.6070943742632623  0.13567798613989618  0.0061605349235306995  1.0000
  O   O16       1.0  0.6070812718218336  0.36431810969204986  0.4938376455109434  1.0000
  O   O17       1.0  0.4987688009256388  0.47343698919348737  0.4206018884025511  1.0000
  O   O18       1.0  0.49876805063346563  0.02657825051129949  0.07939601731699501  1.0000
  O   O19       1.0  0.501233933861073  0.5265761236612221  0.5793983979837378  1.0000
  O   O20       1.0  0.5012364004855385  0.9734261616830578  0.9205999431800864  1.0000
  O   O21       1.0  0.675728656915851  0.4286992181658815  0.3877563870910521  1.0000
  O   O22       1.0  0.6757307976086083  0.07129242012033639  0.1122409920848213  1.0000
  O   O23       1.0  0.324271503318549  0.5713045571679771  0.6122458970971607  1.0000
  O   O24       1.0  0.3242693626004113  0.9287041963869737  0.8877560049591224  1.0000
  O   O25       1.0  0.3594683595835946  0.09699182461798016  0.004469654635180097  1.0000
  O   O26       1.0  0.35947515572814137  0.4030080825912421  0.4955298601588823  1.0000
  O   O27       1.0  0.6405180697513729  0.9030016822416586  0.9955281339921458  1.0000
  O   O28       1.0  0.6405207135986118  0.5969932805109011  0.5044695307291107  1.0000
  O   O29       1.0  0.18955676698595886  0.0164694199279083  0.9813547178264772  1.0000
  O   O30       1.0  0.1895627188215769  0.48352979103724186  0.5186503577672994  1.0000
  O   O31       1.0  0.8104305205447846  0.9835250265154298  0.018649941129360994  1.0000
  O   O32       1.0  0.8104314341484198  0.5164738891419062  0.4813477797246507  1.0000
