data_image0
_chemical_formula_structural       Zn8H56C112N32
_chemical_formula_sum              "Zn8 H56 C112 N32"
_cell_length_a       20.486736020432858
_cell_length_b       23.110807144973332
_cell_length_c       23.045673379531543
_cell_angle_alpha    90.10536080705607
_cell_angle_beta     85.24895253401779
_cell_angle_gamma    90.18308538505076

_space_group_name_H-M_alt    "P 1"
_space_group_IT_number       1

loop_
  _space_group_symop_operation_xyz
  'x, y, z'

loop_
  _atom_site_type_symbol
  _atom_site_label
  _atom_site_symmetry_multiplicity
  _atom_site_fract_x
  _atom_site_fract_y
  _atom_site_fract_z
  _atom_site_occupancy
  Zn  Zn1       1.0  0.38351118554379576  0.48295971398584925  0.015780515072023597  1.0000
  Zn  Zn2       1.0  0.616476656461046  0.5170199087989715  0.9842647462029958  1.0000
  Zn  Zn3       1.0  0.8831299774849768  0.0161159379611533  0.5141780001044579  1.0000
  Zn  Zn4       1.0  0.11686717833932649  0.9839344082308726  0.4859528207033818  1.0000
  Zn  Zn5       1.0  0.5165422617868956  0.5952128265234863  0.021818492427264895  1.0000
  Zn  Zn6       1.0  0.48343150261155887  0.4047658566338157  0.9782013429976357  1.0000
  Zn  Zn7       1.0  0.984077741781611  0.0952072544331841  0.47863688782840796  1.0000
  Zn  Zn8       1.0  0.015891591118787574  0.9048555765789174  0.5214833110035854  1.0000
  H   H1        1.0  0.3726514671475059  0.4930140356846593  0.8817814108516444  1.0000
  H   H2        1.0  0.5800743380388836  0.6819548182631081  0.11829551481925187  1.0000
  H   H3        1.0  0.4844901147939708  0.37024532958684375  0.10997031163947919  1.0000
  H   H4        1.0  0.5154659325918374  0.6297470943025231  0.8900117184766642  1.0000
  H   H5        1.0  0.016665461530550388  0.869914345608393  0.3891664578019699  1.0000
  H   H6        1.0  0.9831421717834985  0.1299302499505544  0.6109935167693478  1.0000
  H   H7        1.0  0.07747808072026881  0.8194514504600152  0.6195187389170724  1.0000
  H   H8        1.0  0.9225915689937451  0.18039385979609077  0.3803852334648781  1.0000
  H   H9        1.0  0.2745795255584014  0.1519761231819245  0.8393192173781541  1.0000
  H   H10       1.0  0.725582068160534  0.8480420186754997  0.16040215148269243  1.0000
  H   H11       1.0  0.5547148629639053  0.2882696193947965  0.28828218433910985  1.0000
  H   H12       1.0  0.6271816417833591  0.5070718254210577  0.11827486935472109  1.0000
  H   H13       1.0  0.4452171260652378  0.7117399289912071  0.7118353888331226  1.0000
  H   H14       1.0  0.9485775415999314  0.7893304305667144  0.20762569628808336  1.0000
  H   H15       1.0  0.051417243643513154  0.21055625007820566  0.7924565834631494  1.0000
  H   H16       1.0  0.2202227677949651  0.6556642567345676  0.6665751355619063  1.0000
  H   H17       1.0  0.7799569623257412  0.3441506057978144  0.3329699022733621  1.0000
  H   H18       1.0  0.20926540645380232  0.08699085685791627  0.780644395630091  1.0000
  H   H19       1.0  0.7907963656229738  0.912962553220268  0.21922951333747415  1.0000
  H   H20       1.0  0.6194088763358038  0.22251287152531776  0.34616356370980833  1.0000
  H   H21       1.0  0.38061392116882314  0.7774732225265522  0.653847969785545  1.0000
  H   H22       1.0  0.8833733205159503  0.7244827739851444  0.14867317917882159  1.0000
  H   H23       1.0  0.7525459266212023  0.5927200756552011  0.0430295343282125  1.0000
  H   H24       1.0  0.11672128589317769  0.2754746815125984  0.8512495621016001  1.0000
  H   H25       1.0  0.2848829421888012  0.5898446287216998  0.7244142321141281  1.0000
  H   H26       1.0  0.7152076577532752  0.40999417214112543  0.27526007811294306  1.0000
  H   H27       1.0  0.3426166934284963  0.7407794379476939  0.29359895240661865  1.0000
  H   H28       1.0  0.6574041845377749  0.25938686223596363  0.7063048723810751  1.0000
  H   H29       1.0  0.7449650733516577  0.8602667628338024  0.8325702365960409  1.0000
  H   H30       1.0  0.2551068645610499  0.13966962889702472  0.16764026854168884  1.0000
  H   H31       1.0  0.7530150761685234  0.3579471897742508  0.6669804304735151  1.0000
  H   H32       1.0  0.2469640455694559  0.6422854798812097  0.3330320469066165  1.0000
  H   H33       1.0  0.158417636133656  0.23739716269555086  0.2057720785936467  1.0000
  H   H34       1.0  0.2474697180390421  0.4072190866365446  0.9568916966622749  1.0000
  H   H35       1.0  0.8415971997763236  0.7625590499585402  0.7942330622051441  1.0000
  H   H36       1.0  0.7002976810465569  0.4725935844119605  0.8703923608030663  1.0000
  H   H37       1.0  0.29975275521785244  0.5273607561528807  0.12972642308392318  1.0000
  H   H38       1.0  0.2881380023447448  0.41580471908827127  0.11942704637877447  1.0000
  H   H39       1.0  0.7117750037819661  0.5840846273185959  0.8805399346274637  1.0000
  H   H40       1.0  0.21253034196217868  0.9180179303104407  0.382198880749584  1.0000
  H   H41       1.0  0.7873947518289198  0.0822690366683645  0.6177456143470152  1.0000
  H   H42       1.0  0.7979119110181896  0.9718719917456012  0.6275785429932624  1.0000
  H   H43       1.0  0.20222824922091576  0.028383685583783305  0.3727680501422909  1.0000
  H   H44       1.0  0.6004045038513723  0.7275451330021099  0.9587449398193255  1.0000
  H   H45       1.0  0.7485317483505297  0.09066298383185509  0.4525521098124229  1.0000
  H   H46       1.0  0.3996101189033183  0.2723993027635458  0.041215602108024996  1.0000
  H   H47       1.0  0.4672247236778019  0.6387282425006048  0.14557022040969508  1.0000
  H   H48       1.0  0.5327194652144555  0.3613844815272529  0.854424882965702  1.0000
  H   H49       1.0  0.033350664892495295  0.136186881223054  0.353898346721266  1.0000
  H   H50       1.0  0.9666368541847702  0.8638033169062281  0.646237840322989  1.0000
  H   H51       1.0  0.8991627004587669  0.2269474802276292  0.5418431178655324  1.0000
  H   H52       1.0  0.10099304890145788  0.7732065592791956  0.45810271097788297  1.0000
  H   H53       1.0  0.251463552718981  0.9093415890113051  0.5474182050841276  1.0000
  H   H54       1.0  0.12517261983298056  0.9935509677358854  0.6204737593303589  1.0000
  H   H55       1.0  0.8745919512464864  0.006271489661166599  0.37968293299883255  1.0000
  H   H56       1.0  0.4200260424889493  0.31809915625731827  0.8816361333045178  1.0000
  C   C1        1.0  0.40992991424582204  0.5229793025203052  0.8936719267501086  1.0000
  C   C2        1.0  0.2414376391500426  0.2604291622942512  0.8732163295932905  1.0000
  C   C3        1.0  0.6313408035512468  0.35283356215813194  0.27584142246501386  1.0000
  C   C4        1.0  0.12683670003897868  0.1452337438293085  0.7803097608165857  1.0000
  C   C5        1.0  0.873182037799495  0.8546869330047641  0.21966667959107156  1.0000
  C   C6        1.0  0.7051305581920673  0.2776670673248561  0.34181082141540736  1.0000
  C   C7        1.0  0.2949629666590212  0.7222364719321276  0.6579881720992303  1.0000
  C   C8        1.0  0.7744543670480013  0.8352996267247121  0.17078496065013127  1.0000
  C   C9        1.0  0.22567466460388624  0.1646935159793088  0.8290056453431446  1.0000
  C   C10       1.0  0.3960330211861134  0.6994874304191824  0.7016435754987426  1.0000
  C   C11       1.0  0.6039551949012035  0.30047909440853  0.29834574078606113  1.0000
  C   C12       1.0  0.10022994003060857  0.19777068499646322  0.8029273438863027  1.0000
  C   C13       1.0  0.3999749202053522  0.6146575255442669  0.7656912927197081  1.0000
  C   C14       1.0  0.8998086319284652  0.8021509192756965  0.1970646726090877  1.0000
  C   C15       1.0  0.7305824270045704  0.3320643552397726  0.3231616256005481  1.0000
  C   C16       1.0  0.2695354546334626  0.6677957196026441  0.6765276438331966  1.0000
  C   C17       1.0  0.5999501441542066  0.3853114670693215  0.2342813304002007  1.0000
  C   C18       1.0  0.09573978083532346  0.11349238597894384  0.7377781248324096  1.0000
  C   C19       1.0  0.9041884810306938  0.8863803137679086  0.2622869112706851  1.0000
  C   C20       1.0  0.7445499013783914  0.23659916830574448  0.3678098665673345  1.0000
  C   C21       1.0  0.255550475904009  0.7633152357955025  0.6320068564468782  1.0000
  C   C22       1.0  0.2762121621700757  0.29874513360438476  0.8906009353501572  1.0000
  C   C23       1.0  0.7238979459284351  0.7012481055710537  0.10924889172744656  1.0000
  C   C24       1.0  0.5792190243631552  0.4087512045077091  0.19203849821749935  1.0000
  C   C25       1.0  0.5899214424460695  0.47709099050220527  0.10637583307485697  1.0000
  C   C26       1.0  0.4206792666818302  0.5912641288233544  0.8079729310287004  1.0000
  C   C27       1.0  0.9239936217456233  0.9089959640900886  0.3055075628926005  1.0000
  C   C28       1.0  0.0758111467992677  0.09082565543340586  0.6946339562669334  1.0000
  C   C29       1.0  0.22120547395010695  0.8013300026631712  0.6139653613926653  1.0000
  C   C30       1.0  0.7788722508705703  0.19858877959460838  0.38589164650776536  1.0000
  C   C31       1.0  0.3453045710800069  0.6104474776843459  0.21710081294176575  1.0000
  C   C32       1.0  0.6546525292839859  0.3896583983498161  0.7829209897467633  1.0000
  C   C33       1.0  0.7224784670182204  0.7120929627290665  0.8815015163109262  1.0000
  C   C34       1.0  0.2775118358974922  0.2877965110826395  0.11847173313883988  1.0000
  C   C35       1.0  0.7765350535188771  0.2101391008014916  0.6183142686637451  1.0000
  C   C36       1.0  0.703399429194782  0.60665857857839  0.05781947140394549  1.0000
  C   C37       1.0  0.2235417316434152  0.7901354561516242  0.38158932402370016  1.0000
  C   C38       1.0  0.15611290094175698  0.10847576427981662  0.28350592340272124  1.0000
  C   C39       1.0  0.8439512845529576  0.8915861603365373  0.7167339769843366  1.0000
  C   C40       1.0  0.2878271576396827  0.6635056153623468  0.30787196560554964  1.0000
  C   C41       1.0  0.7121562935922651  0.3366923854521104  0.6921122635314986  1.0000
  C   C42       1.0  0.7996389525505448  0.7825811676484025  0.818939591750727  1.0000
  C   C43       1.0  0.20038696686512478  0.21734401268845008  0.18111580400830007  1.0000
  C   C44       1.0  0.6990271728657829  0.279769479458011  0.6813166991954842  1.0000
  C   C45       1.0  0.30099127392818287  0.7204362604627336  0.31861937467802887  1.0000
  C   C46       1.0  0.2138800612568303  0.16069712996031876  0.19235112867360016  1.0000
  C   C47       1.0  0.29663153989670127  0.3933104903275008  0.9421149745281524  1.0000
  C   C48       1.0  0.7861649154887614  0.8392547042379588  0.8078142434541674  1.0000
  C   C49       1.0  0.679189152168142  0.36735677245864196  0.7381123414999919  1.0000
  C   C50       1.0  0.3207592947496209  0.6327918748825853  0.26188420958133907  1.0000
  C   C51       1.0  0.2398215737496514  0.2534486612561011  0.14424829352025628  1.0000
  C   C52       1.0  0.7602018871298097  0.7464366023026868  0.8557571892101945  1.0000
  C   C53       1.0  0.2615196409834653  0.7562805056046003  0.35561453836236  1.0000
  C   C54       1.0  0.7385401127667635  0.24396507821986543  0.6443094438787113  1.0000
  C   C55       1.0  0.8192273893407531  0.8697820635728702  0.7617241756427049  1.0000
  C   C56       1.0  0.18081645364654264  0.1302170110495098  0.23847829791913702  1.0000
  C   C57       1.0  0.6550415976454501  0.4479674245154753  0.8764871226457626  1.0000
  C   C58       1.0  0.797954359392314  0.1048545988650602  0.43878130405199295  1.0000
  C   C59       1.0  0.3449892230882909  0.5520140968730018  0.12360777278450287  1.0000
  C   C60       1.0  0.3234873823160243  0.38768108224169157  0.0958182663627483  1.0000
  C   C61       1.0  0.676437429356774  0.6122221196539144  0.9041447591948993  1.0000
  C   C62       1.0  0.1771372367063506  0.8894578151532001  0.4053106662329211  1.0000
  C   C63       1.0  0.8228365174121705  0.11078596310388626  0.5946382163861939  1.0000
  C   C64       1.0  0.8435173508471009  0.9479253145123964  0.6221426530789528  1.0000
  C   C65       1.0  0.1565843030110159  0.0522782827714892  0.37815667550105997  1.0000
  C   C66       1.0  0.6193573590930725  0.6856348326996766  0.9443922899123931  1.0000
  C   C67       1.0  0.3806244398980922  0.3142983129584636  0.05557232731955959  1.0000
  C   C68       1.0  0.430346224492524  0.6092111930594301  0.13151734136686594  1.0000
  C   C69       1.0  0.20205536259221188  0.8951197240447328  0.5611974117374314  1.0000
  C   C70       1.0  0.5696232752826305  0.39085793299889104  0.8685097321993992  1.0000
  C   C71       1.0  0.0705304136399221  0.10769625776004692  0.36871810125936827  1.0000
  C   C72       1.0  0.9294814873329853  0.8923551081051572  0.6314757704036892  1.0000
  C   C73       1.0  0.8801267545479449  0.18482848350355147  0.5555858203893321  1.0000
  C   C74       1.0  0.1199680346859466  0.815347107252123  0.44436306003561993  1.0000
  C   C75       1.0  0.38490902735645693  0.34781131031076035  0.9032666453793889  1.0000
  C   C76       1.0  0.6151597131717494  0.6522119082002504  0.09667087836051987  1.0000
  C   C77       1.0  0.5167586501777777  0.4070125424832156  0.1020791797163767  1.0000
  C   C78       1.0  0.4831565449538075  0.5930118982510352  0.8979302279216765  1.0000
  C   C79       1.0  0.9842715120922918  0.9064778874305048  0.39686711516333156  1.0000
  C   C80       1.0  0.08830532261221441  0.023467807919800496  0.6081655930204305  1.0000
  C   C81       1.0  0.015521628433901882  0.09335930586424719  0.6032809755501701  1.0000
  C   C82       1.0  0.11302033063174825  0.849258361170186  0.5984522400000785  1.0000
  C   C83       1.0  0.8870257082578659  0.1506332983901189  0.40149240075351844  1.0000
  C   C84       1.0  0.4385575865816236  0.5692154484693788  0.8612502238506179  1.0000
  C   C85       1.0  0.5613317221947725  0.4308258667899452  0.1387770486475617  1.0000
  C   C86       1.0  0.6839512321865797  0.6570471334352561  0.08959299462975417  1.0000
  C   C87       1.0  0.31612172560800644  0.34295222065149034  0.9103101507427593  1.0000
  C   C88       1.0  0.8181945005210878  0.15491693315361488  0.40682625467357514  1.0000
  C   C89       1.0  0.181855018339256  0.8450097206432544  0.5930900752121956  1.0000
  C   C90       1.0  0.05911678982978689  0.0694004334307365  0.6406120687282096  1.0000
  C   C91       1.0  0.9114758299282071  0.9763637315742316  0.3919772611468416  1.0000
  C   C92       1.0  0.9406713433311111  0.9304250637252877  0.3595332245631652  1.0000
  C   C93       1.0  0.6281137094993098  0.40931999031467114  0.8375140775854816  1.0000
  C   C94       1.0  0.3718689339181793  0.590744000528872  0.16253095838001738  1.0000
  C   C95       1.0  0.3229120221953393  0.3267841734013929  0.09159039522548078  1.0000
  C   C96       1.0  0.6770534233676102  0.6731177742184046  0.9083649057769064  1.0000
  C   C97       1.0  0.177860600469387  0.8285348711423881  0.4087833730054839  1.0000
  C   C98       1.0  0.8221981126145719  0.17170595230515323  0.5911410113534215  1.0000
  C   C99       1.0  0.8706244414094823  0.9105456636979594  0.6619140659523025  1.0000
  C   C100      1.0  0.12943173993887314  0.089558224797571  0.33832771425453956  1.0000
  C   C101      1.0  0.18914092381992015  0.1283062783419382  0.7962717991825768  1.0000
  C   C102      1.0  0.7587047252042537  0.7395575593374775  0.12659793005929024  1.0000
  C   C103      1.0  0.8109362861596806  0.8716549314181775  0.20359653844701597  1.0000
  C   C104      1.0  0.6401156049775949  0.26370329219958677  0.33062560845579714  1.0000
  C   C105      1.0  0.3599228678092317  0.7362497748556294  0.6693073649496099  1.0000
  C   C106      1.0  0.863349997471488  0.7658716448422356  0.16417738044852104  1.0000
  C   C107      1.0  0.13674003985414626  0.23409053659570844  0.8357325154238636  1.0000
  C   C108      1.0  0.3056988908896087  0.6309557752836029  0.7087564945970114  1.0000
  C   C109      1.0  0.6943672947284796  0.368919075239127  0.29099955884872486  1.0000
  C   C110      1.0  0.7988197909128586  0.7805286715796239  0.15242487557802056  1.0000
  C   C111      1.0  0.2013132218226871  0.21946063355355963  0.8473899221145941  1.0000
  C   C112      1.0  0.3686482625397645  0.6471020724624807  0.7240670524378386  1.0000
  N   N1        1.0  0.43510010831171525  0.5201135637728385  0.9459950058593872  1.0000
  N   N2        1.0  0.38372361405088645  0.5485929080793142  0.07358264662313728  1.0000
  N   N3        1.0  0.3771197188746527  0.40888678707346315  0.0653117826158152  1.0000
  N   N4        1.0  0.622803832767488  0.5910450058517823  0.934667799016786  1.0000
  N   N5        1.0  0.1232798960324217  0.9100361962730903  0.4358260764303664  1.0000
  N   N6        1.0  0.8766806233716622  0.09014144773077959  0.5641647728890645  1.0000
  N   N7        1.0  0.8824863306813454  0.9508640435707674  0.572213066323705  1.0000
  N   N8        1.0  0.117589324701072  0.04932433490670721  0.4280691601392021  1.0000
  N   N9        1.0  0.5877982514621463  0.6365392336295344  0.9596384552117385  1.0000
  N   N10       1.0  0.41216027191605054  0.36341078785249453  0.0403428087957494  1.0000
  N   N11       1.0  0.43700841069188096  0.5842704512690275  0.0786460385260952  1.0000
  N   N12       1.0  0.564761077247958  0.47995542988450524  0.05404523688354599  1.0000
  N   N13       1.0  0.5629922476082427  0.415729123096355  0.9214127896056251  1.0000
  N   N14       1.0  0.06385316005029301  0.0838983672670963  0.422058651938755  1.0000
  N   N15       1.0  0.9361649418990011  0.9162032489837842  0.578158154349424  1.0000
  N   N16       1.0  0.91181867020358  0.13601762225140848  0.5399476012868901  1.0000
  N   N17       1.0  0.08821710863116289  0.8641168541321562  0.46003897010778144  1.0000
  N   N18       1.0  0.40423837627581344  0.396836971712858  0.9286163163383064  1.0000
  N   N19       1.0  0.5957903122127135  0.6031793459416691  0.07135999935986351  1.0000
  N   N20       1.0  0.5194137418207418  0.43653015558310665  0.05151070770920539  1.0000
  N   N21       1.0  0.4804838188888567  0.5635107250954476  0.9485098652264055  1.0000
  N   N22       1.0  0.9804878358473983  0.9356492385422968  0.44776896050372966  1.0000
  N   N23       1.0  0.6507008973851851  0.5751394092602241  0.04726267563231799  1.0000
  N   N24       1.0  0.01931541091755659  0.0642108758882074  0.5523663652170611  1.0000
  N   N25       1.0  0.09430593048225687  0.8977267189517663  0.5721072028805594  1.0000
  N   N26       1.0  0.9057023227955127  0.1021975115904254  0.42792045228988934  1.0000
  N   N27       1.0  0.3493057959603121  0.4248426919994515  0.9527133046688263  1.0000
  N   N28       1.0  0.8503008802051112  0.0740288429169169  0.4510323344352754  1.0000
  N   N29       1.0  0.1496831917814916  0.9259468852416005  0.549015416834642  1.0000
  N   N30       1.0  0.06440768740220189  0.020917278214241695  0.5552732727679766  1.0000
  N   N31       1.0  0.9353908599528751  0.9789354629434827  0.4448570784616948  1.0000
  N   N32       1.0  0.6163127466077467  0.4513553151830224  0.9265177094327653  1.0000
