data_image0
_chemical_formula_structural       Cd6H24C36N36O24
_chemical_formula_sum              "Cd6 H24 C36 N36 O24"
_cell_length_a       10.028106088670315
_cell_length_b       13.793469656508716
_cell_length_c       13.786404666175692
_cell_angle_alpha    82.24154225133799
_cell_angle_beta     68.67264620933673
_cell_angle_gamma    68.21140521096443

_space_group_name_H-M_alt    "P 1"
_space_group_IT_number       1

loop_
  _space_group_symop_operation_xyz
  'x, y, z'

loop_
  _atom_site_type_symbol
  _atom_site_label
  _atom_site_symmetry_multiplicity
  _atom_site_fract_x
  _atom_site_fract_y
  _atom_site_fract_z
  _atom_site_occupancy
  Cd  Cd1       1.0  0.9997430568854924  0.0003053529057339865  0.9993521422972051  1.0000
  Cd  Cd2       1.0  0.7490492843887039  0.5004300463047573  0.500682901713752  1.0000
  Cd  Cd3       1.0  0.37547777579152336  0.11203831595536684  0.3870099399491594  1.0000
  Cd  Cd4       1.0  0.8760428273528047  0.886362226248494  0.6125656829143225  1.0000
  Cd  Cd5       1.0  0.5125647779697856  0.611922593722511  0.1129838317954039  1.0000
  Cd  Cd6       1.0  0.23864890361971886  0.3862478211470732  0.8873587888303904  1.0000
  H   H1        1.0  0.8852517751789578  0.2108287403639296  0.16198681268899412  1.0000
  H   H2        1.0  0.25995609976744277  0.7885408522690583  0.8377227427786735  1.0000
  H   H3        1.0  0.9024063101489754  0.8382459372027355  0.21091114711151707  1.0000
  H   H4        1.0  0.9525473507344127  0.1624879557728818  0.7887781627299333  1.0000
  H   H5        1.0  0.8632088435009564  0.3382673817173442  0.2890841819889118  1.0000
  H   H6        1.0  0.49142306554266174  0.6626983229914531  0.711189136301009  1.0000
  H   H7        1.0  0.8477744230760391  0.28862725933928607  0.6622850475046891  1.0000
  H   H8        1.0  0.7970664358378057  0.7109473675861367  0.33810896586457073  1.0000
  H   H9        1.0  0.6062160504672034  0.2686824085936054  0.3253635654853255  1.0000
  H   H10       1.0  0.20141543836553658  0.7303460886347325  0.6752126585198541  1.0000
  H   H11       1.0  0.12482786197995902  0.6751320744575794  0.26918740348875764  1.0000
  H   H12       1.0  0.06851127612980422  0.3250100548790727  0.7307837877638195  1.0000
  H   H13       1.0  0.1439765024612355  0.17520312913023162  0.23080403222201082  1.0000
  H   H14       1.0  0.5494187506056606  0.8252133187008608  0.7691679377084952  1.0000
  H   H15       1.0  0.6268038607277899  0.23031450084912578  0.8247359522407294  1.0000
  H   H16       1.0  0.6816610908453878  0.7686622434325657  0.17461385402268095  1.0000
  H   H17       1.0  0.3481758675230109  0.2125617234539661  0.6184851925479364  1.0000
  H   H18       1.0  0.1805539071820231  0.7882185876937202  0.3813061241025083  1.0000
  H   H19       1.0  0.43840290121251235  0.3812848335066263  0.2122053098333154  1.0000
  H   H20       1.0  0.031606051028582376  0.6186855000189482  0.7883787009511849  1.0000
  H   H21       1.0  0.40063007140837914  0.8814046576466624  0.287788461911255  1.0000
  H   H22       1.0  0.5700035626923423  0.11867700607815838  0.7115473281493935  1.0000
  H   H23       1.0  0.3118808879947678  0.2880870962850041  0.11861678795030883  1.0000
  H   H24       1.0  0.716711096825804  0.7125348764405076  0.8814673116023004  1.0000
  C   C1        1.0  0.669756237397344  0.0838751102470283  0.18074204934188032  1.0000
  C   C2        1.0  0.9340108846663494  0.9165481042772401  0.8190414805292576  1.0000
  C   C3        1.0  0.2462124538042259  0.8190750447559695  0.0837343526626171  1.0000
  C   C4        1.0  0.1494652423809554  0.18070932435380632  0.9164813434603831  1.0000
  C   C5        1.0  0.07982186589214271  0.3192344058422877  0.4162290506426345  1.0000
  C   C6        1.0  0.8160853061501641  0.6808163894800003  0.5835069798746986  1.0000
  C   C7        1.0  0.5031299899821204  0.4166092498810843  0.6810215958872307  1.0000
  C   C8        1.0  0.6004959192749836  0.5839106341874184  0.3192252473530246  1.0000
  C   C9        1.0  0.7940494479484528  0.17918802211637092  0.1846206441176008  1.0000
  C   C10       1.0  0.15918579241654385  0.8204799638394888  0.8150235024038324  1.0000
  C   C11       1.0  0.02578609821905792  0.8155178912175459  0.1792119472069089  1.0000
  C   C12       1.0  0.02107491134131567  0.1849682605708409  0.8206315408649376  1.0000
  C   C13       1.0  0.9548518140308244  0.3155469142003966  0.3208168650445629  1.0000
  C   C14       1.0  0.5918113062776911  0.6851779661761839  0.679345102301177  1.0000
  C   C15       1.0  0.724312076686829  0.32051743706762187  0.6849609275415888  1.0000
  C   C16       1.0  0.7285113410436849  0.6792910295328484  0.3154774704697516  1.0000
  C   C17       1.0  0.6528542722228465  0.20906956590233264  0.26598470115739303  1.0000
  C   C18       1.0  0.12880679539195952  0.7903430492425231  0.7343314444187428  1.0000
  C   C19       1.0  0.13768828083568965  0.7343407975150882  0.2093841596882768  1.0000
  C   C20       1.0  0.08120255767821744  0.26572801920801237  0.7905909249539604  1.0000
  C   C21       1.0  0.09697137677817834  0.23439388102700323  0.29063530842802276  1.0000
  C   C22       1.0  0.6219317142022402  0.7659203765049798  0.7093600218404179  1.0000
  C   C23       1.0  0.6132822362238527  0.2903013248127095  0.7656241744432252  1.0000
  C   C24       1.0  0.6687956080521786  0.7091188762892459  0.23405423390718746  1.0000
  C   C25       1.0  0.617019061578496  0.007840949555728133  0.5082368563251336  1.0000
  C   C26       1.0  0.13325941869661073  0.9916779702957327  0.4921633864675813  1.0000
  C   C27       1.0  0.37529930261982936  0.49163544674265586  0.007866204461827002  1.0000
  C   C28       1.0  0.8753724583592515  0.5079314632683352  0.9918090891768685  1.0000
  C   C29       1.0  0.44892266323729746  0.14283203489608814  0.5960320143993841  1.0000
  C   C30       1.0  0.18888149917562902  0.857429618283213  0.4038714318731707  1.0000
  C   C31       1.0  0.4077036050294465  0.4036780616112596  0.1426755999931686  1.0000
  C   C32       1.0  0.9539126161986143  0.5962080727888049  0.8576164065670967  1.0000
  C   C33       1.0  0.30049471931666705  0.9037490649795146  0.35736722846107233  1.0000
  C   C34       1.0  0.561476068234569  0.09621230815263  0.6423368762610764  1.0000
  C   C35       1.0  0.3426603693169811  0.3573438839125843  0.09613557739623253  1.0000
  C   C36       1.0  0.795026939480934  0.6428506803073547  0.9039430714108649  1.0000
  N   N1        1.0  0.8036160287517685  0.09914293575619837  0.13186521427316222  1.0000
  N   N2        1.0  0.03517893416606167  0.901211844927268  0.8673981587398745  1.0000
  N   N3        1.0  0.0964184270792926  0.8679095663155393  0.09885238469847482  1.0000
  N   N4        1.0  0.06409560248417265  0.13238496298169625  0.9011935596355017  1.0000
  N   N5        1.0  0.9451285205515275  0.3679980508943432  0.4011242561316025  1.0000
  N   N6        1.0  0.7153874070882508  0.6325214902709179  0.5988189027154505  1.0000
  N   N7        1.0  0.6526353672340618  0.4013027092198414  0.6326540161855689  1.0000
  N   N8        1.0  0.6853611174771782  0.5992186018844734  0.3681846222824562  1.0000
  N   N9        1.0  0.574797151017833  0.14827445652615984  0.2621154505168449  1.0000
  N   N10       1.0  0.9849567730986658  0.8515903506633152  0.7383050379020804  1.0000
  N   N11       1.0  0.277054869348646  0.7380158052866509  0.14851256976606922  1.0000
  N   N12       1.0  0.1633158920243288  0.261620853516348  0.8516953395776171  1.0000
  N   N13       1.0  0.1754845981755793  0.2381360860035642  0.3514812019785012  1.0000
  N   N14       1.0  0.7651822040859524  0.7617446855576235  0.6482610579622802  1.0000
  N   N15       1.0  0.4733801109851184  0.351573660969173  0.7616934082461031  1.0000
  N   N16       1.0  0.58696816175906  0.6482939630720709  0.2378471741104704  1.0000
  N   N17       1.0  0.48516880847861193  0.08612771457251973  0.511259684054373  1.0000
  N   N18       1.0  0.08340034173666266  0.9138565274564384  0.48910941162108673  1.0000
  N   N19       1.0  0.4281172157955381  0.48856384053249274  0.08602678049231122  1.0000
  N   N20       1.0  0.0035769913593524786  0.5108937831898644  0.9140261719430499  1.0000
  N   N21       1.0  0.26424270398916816  0.9886274239359739  0.41402383474123644  1.0000
  N   N22       1.0  0.6674926691844405  0.01085994260314754  0.5859722742051404  1.0000
  N   N23       1.0  0.3224384767115182  0.4137869715465641  0.010880466733823401  1.0000
  N   N24       1.0  0.7465381390082724  0.5861774021974144  0.9887535569745085  1.0000
  N   N25       1.0  0.633814861458191  0.004230219163815746  0.1524402212514602  1.0000
  N   N26       1.0  0.7891087009898776  0.996656242617462  0.8475753546431974  1.0000
  N   N27       1.0  0.3619547229640005  0.8474996332940279  0.0041386732047712  1.0000
  N   N28       1.0  0.2139844082341397  0.15235624885666255  0.9963604616852137  1.0000
  N   N29       1.0  0.1158779905780634  0.34764342038516116  0.4958722294542853  1.0000
  N   N30       1.0  0.9604899811738719  0.6523589359800328  0.503623189582278  1.0000
  N   N31       1.0  0.3866971022218803  0.49662172357777484  0.6524729268925924  1.0000
  N   N32       1.0  0.5363583549853103  0.5042198846253498  0.347452322362038  1.0000
  N   N33       1.0  0.6949201921061243  0.9301707917616542  0.43080122944866883  1.0000
  N   N34       1.0  0.05546744523255845  0.069215822545118  0.5697820026578952  1.0000
  N   N35       1.0  0.37506690278615207  0.569254871384601  0.9302880818599706  1.0000
  N   N36       1.0  0.8757894830757348  0.43026419468230864  0.06924393503936702  1.0000
  O   O1        1.0  0.7382041534286611  0.9352779589991018  0.08979246696799952  1.0000
  O   O2        1.0  0.7624369414685928  0.06579088059777403  0.9094389802498599  1.0000
  O   O3        1.0  0.3261477377816673  0.9095735871691845  0.9349399038214585  1.0000
  O   O4        1.0  0.1720244667997406  0.0903550474172121  0.06542997053193741  1.0000
  O   O5        1.0  0.01084953420513544  0.40969956024567733  0.5650741158853592  1.0000
  O   O6        1.0  0.9875064492317444  0.5903271141492185  0.434603513787124  1.0000
  O   O7        1.0  0.42172252998606286  0.5658286457188879  0.590653685928011  1.0000
  O   O8        1.0  0.5781726676197606  0.43527111565725835  0.4100743802737697  1.0000
  O   O9        1.0  0.4994002180051352  0.0054714566700155755  0.19290266259473304  1.0000
  O   O10       1.0  0.6951908367431939  0.9955744456254649  0.8082388815885653  1.0000
  O   O11       1.0  0.4953997089184765  0.807826302452888  0.005769224792878402  1.0000
  O   O12       1.0  0.30831037832692937  0.1921739852095072  0.9950655202854932  1.0000
  O   O13       1.0  0.2509271783610173  0.3079652154722653  0.494289177219983  1.0000
  O   O14       1.0  0.0536271087863652  0.6921047144925724  0.5048464926123232  1.0000
  O   O15       1.0  0.2535320188494548  0.4953554763143374  0.6917541138141063  1.0000
  O   O16       1.0  0.4424603155670679  0.5054129635343544  0.30695016844427414  1.0000
  O   O17       1.0  0.8198280531748805  0.8624369476423652  0.4314350732847316  1.0000
  O   O18       1.0  0.1129012585728687  0.13646947314299504  0.5687837375499926  1.0000
  O   O19       1.0  0.31858541830936776  0.5685131723733364  0.8627369926432138  1.0000
  O   O20       1.0  0.7504470914768645  0.4313940150091753  0.13639556247736812  1.0000
  O   O21       1.0  0.9314059099016488  0.06844682137290906  0.637280141775321  1.0000
  O   O22       1.0  0.6367393263107318  0.9312893072959268  0.3636503806885969  1.0000
  O   O23       1.0  0.431335524346025  0.6365790026784027  0.9313938045223937  1.0000
  O   O24       1.0  0.001308419235030575  0.3625104727132111  0.0686108698812333  1.0000
