data_image0
_chemical_formula_structural       Al2H8C20S2O12F2
_chemical_formula_sum              "Al2 H8 C20 S2 O12 F2"
_cell_length_a       6.591855888484776
_cell_length_b       11.227998925768167
_cell_length_c       12.414631622877977
_cell_angle_alpha    76.89360007137046
_cell_angle_beta     78.9999332271308
_cell_angle_gamma    70.90249401537623

_space_group_name_H-M_alt    "P 1"
_space_group_IT_number       1

loop_
  _space_group_symop_operation_xyz
  'x, y, z'

loop_
  _atom_site_type_symbol
  _atom_site_label
  _atom_site_symmetry_multiplicity
  _atom_site_fract_x
  _atom_site_fract_y
  _atom_site_fract_z
  _atom_site_occupancy
  Al  Al1       1.0  0.4997949789252941  0.49725736954601973  0.5019251490714325  1.0000
  Al  Al2       1.0  0.0009503555723427638  0.49336975447579307  0.5046680022174641  1.0000
  H   H1        1.0  0.2725719134515643  0.38645299098023134  0.6299819881573541  1.0000
  H   H2        1.0  0.6888954117419247  0.6586720727995041  0.44775763899912846  1.0000
  H   H3        1.0  0.23559516843563705  0.24553608854052553  0.35604188478485815  1.0000
  H   H4        1.0  0.5696408722485772  0.13832870065517258  0.24481508077037262  1.0000
  H   H5        1.0  0.4266149881740729  0.7792047724230073  0.3503180452290096  1.0000
  H   H6        1.0  0.6623866999516964  0.9045505759961043  0.24011890818270126  1.0000
  H   H7        1.0  0.16073932992990345  0.4195615518782815  0.8927855711920003  1.0000
  H   H8        1.0  0.8300418129066643  0.5729028979685182  0.11501521787419483  1.0000
  C   C1        1.0  0.8650094450394119  0.27512514912812946  0.4864337232332545  1.0000
  C   C2        1.0  0.6943620845305672  0.4704066614425527  0.7029475110212999  1.0000
  C   C3        1.0  0.13287572429363328  0.722175627937915  0.5066426818080672  1.0000
  C   C4        1.0  0.30284626415321714  0.5175481408577695  0.3054402085042724  1.0000
  C   C5        1.0  0.4350758997289291  0.4513127821632563  0.8844064877905283  1.0000
  C   C6        1.0  0.5571759406187055  0.5397309506812034  0.1231879290440361  1.0000
  C   C7        1.0  0.6209428962806456  0.4759361100679697  0.8208981819589312  1.0000
  C   C8        1.0  0.372244684248713  0.514147903934244  0.1870807786653685  1.0000
  C   C9        1.0  0.5791779548387979  0.5163580462386008  0.01292497628732998  1.0000
  C   C10       1.0  0.4130962585665117  0.47414484307183347  0.9948767595633825  1.0000
  C   C11       1.0  0.9387894399946362  0.13447205680466817  0.48391822815446517  1.0000
  C   C12       1.0  0.1384078216800688  0.07338760786539211  0.4221754484633493  1.0000
  C   C13       1.0  0.8082772588506443  0.061726684194155695  0.5442456713556467  1.0000
  C   C14       1.0  0.2774046330803514  0.14336262688878076  0.3563105905336457  1.0000
  C   C15       1.0  0.4643020764523554  0.08304821192216137  0.29399073905344153  1.0000
  C   C16       1.0  0.06303531347406736  0.8651482366968961  0.49281238447800046  1.0000
  C   C17       1.0  0.8709802401617991  0.9279659695999455  0.5495248795010852  1.0000
  C   C18       1.0  0.19804089597426605  0.9377901861030933  0.4243107899618934  1.0000
  C   C19       1.0  0.3870854016149465  0.88004319890895  0.35539288228741844  1.0000
  C   C20       1.0  0.517942562484734  0.9509985059448878  0.29222183332274915  1.0000
  S   S1        1.0  0.7630694897003777  0.5300887254778884  0.8951621622818848  1.0000
  S   S2        1.0  0.22960364932841773  0.4600126455387467  0.11293322720851508  1.0000
  O   O1        1.0  0.6758371478825967  0.33656015677367873  0.4620845055312728  1.0000
  O   O2        1.0  0.8738384164663274  0.49316728784036457  0.6611481356962514  1.0000
  O   O3        1.0  0.00035377021855967003  0.6700825387118811  0.4890433261788872  1.0000
  O   O4        1.0  0.42132554732740585  0.5507315985357196  0.35579379168539293  1.0000
  O   O5        1.0  0.3223205174197194  0.6647493730960716  0.5331791402232897  1.0000
  O   O6        1.0  0.13113472109761667  0.4871399775392573  0.35026129997888944  1.0000
  O   O7        1.0  0.9945989772860314  0.32157027705240887  0.514876600268444  1.0000
  O   O8        1.0  0.5710861439599952  0.4431774173426318  0.6508622115737381  1.0000
  O   O9        1.0  0.2696362851169524  0.42977472514992604  0.5529249119150066  1.0000
  O   O10       1.0  0.7296995070308866  0.5658854075163119  0.4577862971742377  1.0000
  O   O11       1.0  0.29902627831377515  0.40978425090106896  0.8441502712752182  1.0000
  O   O12       1.0  0.6914049599279152  0.5824158394490127  0.16323510687322346  1.0000
  F   F1        1.0  0.740037180610358  0.8631829079421891  0.6167819848299841  1.0000
  F   F2        1.0  0.6207696788827662  0.11417498889511526  0.6058996094983797  1.0000
