data_image0
_chemical_formula_structural       Zn4H68C92N24O20
_chemical_formula_sum              "Zn4 H68 C92 N24 O20"
_cell_length_a       16.497808540734766
_cell_length_b       17.85253341076396
_cell_length_c       33.15939945804209
_cell_angle_alpha    90.31450974384168
_cell_angle_beta     88.56390526271943
_cell_angle_gamma    89.98596657036099

_space_group_name_H-M_alt    "P 1"
_space_group_IT_number       1

loop_
  _space_group_symop_operation_xyz
  'x, y, z'

loop_
  _atom_site_type_symbol
  _atom_site_label
  _atom_site_symmetry_multiplicity
  _atom_site_fract_x
  _atom_site_fract_y
  _atom_site_fract_z
  _atom_site_occupancy
  Zn  Zn1       1.0  0.578762280380701  0.4965234794267701  0.4998676019091945  1.0000
  Zn  Zn2       1.0  0.4075662815822981  0.4973170468472078  0.5009466314026056  1.0000
  Zn  Zn3       1.0  0.421751413267991  0.4994831067354824  0.962370418817862  1.0000
  Zn  Zn4       1.0  0.5929794799765702  0.5000479816674712  0.9613428998887484  1.0000
  H   H1        1.0  0.2818111374499211  0.5906079035956682  0.5390481056515668  1.0000
  H   H2        1.0  0.2795872223214246  0.4077187027305341  0.4618524035611599  1.0000
  H   H3        1.0  0.6968220791880031  0.5422945798976215  0.5612832503442178  1.0000
  H   H4        1.0  0.7134100508458873  0.4449494130651672  0.44782309077239546  1.0000
  H   H5        1.0  0.6256490509814584  0.7307056318876448  0.49268077998030435  1.0000
  H   H6        1.0  0.36933238019168624  0.7373637952279212  0.518116877922921  1.0000
  H   H7        1.0  0.6223135345540172  0.2631739222103918  0.50888674595857  1.0000
  H   H8        1.0  0.3683893382467289  0.2563235893569384  0.4837927640857486  1.0000
  H   H9        1.0  0.35661226199844986  0.5030359879824146  0.6349715614972524  1.0000
  H   H10       1.0  0.2896250199121369  0.515694545687623  0.7030084115423918  1.0000
  H   H11       1.0  0.6141813751280196  0.4950723903838536  0.6229851324404405  1.0000
  H   H12       1.0  0.6436761668148065  0.5029409473222586  0.8274533579607706  1.0000
  H   H13       1.0  0.7107430930833233  0.5146434241954694  0.7594568770827053  1.0000
  H   H14       1.0  0.38605890072398813  0.49571815674335096  0.8393475787005187  1.0000
  H   H15       1.0  0.3754303497651605  0.4835851949838457  0.0900541554569472  1.0000
  H   H16       1.0  0.6298163244521435  0.5342786245147337  0.08877035266321799  1.0000
  H   H17       1.0  0.3702369927506128  0.529357914492991  0.3739439645940904  1.0000
  H   H18       1.0  0.6247729379896613  0.47898352763440494  0.3715880556466828  1.0000
  H   H19       1.0  0.7186949076840534  0.5929661147403777  0.9234201479990884  1.0000
  H   H20       1.0  0.7210866350375442  0.4105456752323846  0.9998591848627  1.0000
  H   H21       1.0  0.3035383824826853  0.5447141834164384  0.901413944180554  1.0000
  H   H22       1.0  0.2874296489996483  0.44829780419539134  0.014541870633585998  1.0000
  H   H23       1.0  0.37426843716616537  0.7331046034725545  0.9682061465340936  1.0000
  H   H24       1.0  0.630644502636301  0.7403551094535101  0.9428504661098245  1.0000
  H   H25       1.0  0.3776012681910645  0.2667962782262022  0.952802384831152  1.0000
  H   H26       1.0  0.6313270659512681  0.2584781477255831  0.9782274647180955  1.0000
  H   H27       1.0  0.059443136381276004  0.3794998725581565  0.46825182290752554  1.0000
  H   H28       1.0  0.14853021680426795  0.3482168731452687  0.4471797547388547  1.0000
  H   H29       1.0  0.05989539111208593  0.6119944322049378  0.5461086503017751  1.0000
  H   H30       1.0  0.15095062290478728  0.6483880348157245  0.5603227610336674  1.0000
  H   H31       1.0  0.9351567912109574  0.4514461730062038  0.4396319917865624  1.0000
  H   H32       1.0  0.8481656467696937  0.4265690636791675  0.416270050393237  1.0000
  H   H33       1.0  0.9147868126764109  0.5346973995920976  0.5807380972438096  1.0000
  H   H34       1.0  0.8208298749166831  0.5575912555740317  0.6005183142763286  1.0000
  H   H35       1.0  0.36422052785547987  0.941830405497072  0.5250154604135986  1.0000
  H   H36       1.0  0.3097877724133229  0.8618405639566687  0.5311291176286871  1.0000
  H   H37       1.0  0.6401593245838202  0.9325050399895076  0.4771798058191762  1.0000
  H   H38       1.0  0.6908701509493371  0.8496943775524244  0.4752207505477983  1.0000
  H   H39       1.0  0.3658925626481989  0.0523401952888065  0.4735779027850739  1.0000
  H   H40       1.0  0.3113687733423518  0.1322354630955687  0.46881233394397265  1.0000
  H   H41       1.0  0.6366809641201384  0.060801743224772095  0.5220387504552235  1.0000
  H   H42       1.0  0.6864458281168169  0.1438033473537601  0.5252734771805263  1.0000
  H   H43       1.0  0.6366891681271483  0.548611184650092  0.19875955924715774  1.0000
  H   H44       1.0  0.6897660408115698  0.5603180919678507  0.1546731135155781  1.0000
  H   H45       1.0  0.3647246674689342  0.45624957931196514  0.1990795467248745  1.0000
  H   H46       1.0  0.3134827388015893  0.45026204228693684  0.15545005154805838  1.0000
  H   H47       1.0  0.6348906019134121  0.4549094975343664  0.262145935801783  1.0000
  H   H48       1.0  0.686459608326473  0.4475467494710728  0.3055876308737452  1.0000
  H   H49       1.0  0.3627464790335822  0.5467962485482546  0.26420826861457397  1.0000
  H   H50       1.0  0.30982088288619986  0.5570554018974292  0.30849464254850995  1.0000
  H   H51       1.0  0.9412163229536646  0.3823460034960463  0.9933924212739029  1.0000
  H   H52       1.0  0.8520967093511302  0.3511765016553454  0.014287754403511599  1.0000
  H   H53       1.0  0.9405761979891025  0.614395983392292  0.916462752216958  1.0000
  H   H54       1.0  0.8494897244013659  0.6506260908819924  0.9023505222346272  1.0000
  H   H55       1.0  0.0655284900344242  0.4542514945648648  0.0227324068716896  1.0000
  H   H56       1.0  0.1525757663482707  0.42984649167673433  0.046066795350086  1.0000
  H   H57       1.0  0.0856550385339787  0.5364288727054997  0.8819712849893833  1.0000
  H   H58       1.0  0.1795037263724524  0.5593717039049793  0.8622707832140435  1.0000
  H   H59       1.0  0.6343503797719167  0.944586851312486  0.9352121177333217  1.0000
  H   H60       1.0  0.6892345473421532  0.864696543067879  0.929323871695267  1.0000
  H   H61       1.0  0.3586222885508975  0.9353714903670178  0.9832196559916611  1.0000
  H   H62       1.0  0.30838261161830627  0.8523981823755734  0.9855255034735321  1.0000
  H   H63       1.0  0.6328104141313844  0.054479028324223605  0.9870028090092404  1.0000
  H   H64       1.0  0.6876802659457298  0.13411836595109614  0.9923120085822177  1.0000
  H   H65       1.0  0.36214898692099956  0.0645313728911674  0.9383695026704614  1.0000
  H   H66       1.0  0.3129263732132515  0.1478218651105436  0.9355320935233278  1.0000
  H   H67       1.0  0.33227371046052673  0.5885894434956711  0.8195669924276529  1.0000
  H   H68       1.0  0.6685493821479369  0.5876260390011366  0.6433917612235333  1.0000
  C   C1        1.0  0.4959377320305762  0.6432811526483988  0.5060865854132217  1.0000
  C   C2        1.0  0.4831814352749931  0.49358456112136645  0.5801002364445579  1.0000
  C   C3        1.0  0.49385497472778184  0.3505020339713312  0.4966128260530879  1.0000
  C   C4        1.0  0.49743661695494995  0.5039986722329246  0.42162197521911077  1.0000
  C   C5        1.0  0.5044787634166926  0.645951330145131  0.9551642532438791  1.0000
  C   C6        1.0  0.5171381524164929  0.49379464646927557  0.8822087262345448  1.0000
  C   C7        1.0  0.5062930272806626  0.3534299854635989  0.9660135017733181  1.0000
  C   C8        1.0  0.5029780207425887  0.5092118911178432  0.0405980307168079  1.0000
  C   C9        1.0  0.24414695492114902  0.5502912624963158  0.5232894154442461  1.0000
  C   C10       1.0  0.15928155024785445  0.551855843174245  0.5267025818792277  1.0000
  C   C11       1.0  0.11498763085845098  0.4970565059011562  0.5052247552180731  1.0000
  C   C12       1.0  0.1580323310996192  0.4439913041660403  0.4808491068459801  1.0000
  C   C13       1.0  0.24292448148214876  0.44740768885082355  0.479536730145611  1.0000
  C   C14       1.0  0.0298282379396824  0.4956867423622384  0.5076622059462323  1.0000
  C   C15       1.0  0.9554995525960877  0.4944074771575161  0.5094908148477016  1.0000
  C   C16       1.0  0.8704011429380433  0.4930837594680356  0.5087564143457611  1.0000
  C   C17       1.0  0.822043375112351  0.521077411112472  0.5416397349332343  1.0000
  C   C18       1.0  0.7374118684764497  0.5207971573227966  0.5375335967312225  1.0000
  C   C19       1.0  0.7468185211295264  0.4656934648040121  0.47356020274614247  1.0000
  C   C20       1.0  0.8316238813912592  0.46415013147255724  0.474184926453411  1.0000
  C   C21       1.0  0.49747878804392787  0.7273427858614738  0.5057452085968706  1.0000
  C   C22       1.0  0.5710210219249916  0.7640542314429198  0.49781152778909643  1.0000
  C   C23       1.0  0.5735257525399149  0.8421716288657705  0.4957974137642579  1.0000
  C   C24       1.0  0.5009008257576184  0.8839205880431392  0.5024483457874709  1.0000
  C   C25       1.0  0.4266002590866266  0.8459680531397497  0.5110246353737011  1.0000
  C   C26       1.0  0.42566503821029045  0.767751397545311  0.512369957200761  1.0000
  C   C27       1.0  0.5019273585236662  0.962510407733511  0.5003557037065177  1.0000
  C   C28       1.0  0.5012211949776458  0.031196518162758504  0.4987060867839546  1.0000
  C   C29       1.0  0.49962761024824  0.1098222473668784  0.4973667895664704  1.0000
  C   C30       1.0  0.571293103410085  0.1516124961904382  0.5046061754861525  1.0000
  C   C31       1.0  0.5683650443246223  0.2297549997759418  0.5035555771066668  1.0000
  C   C32       1.0  0.4952981980877738  0.26643032565331026  0.49620747436279083  1.0000
  C   C33       1.0  0.4243923261808931  0.2260100158718218  0.4891479427054577  1.0000
  C   C34       1.0  0.42590959076290613  0.1477399753320725  0.4892732540590501  1.0000
  C   C35       1.0  0.41534602419822164  0.5047305724703719  0.649352643341686  1.0000
  C   C36       1.0  0.4201259161493098  0.5099490936307802  0.6915266613358  1.0000
  C   C37       1.0  0.34892456764428914  0.5138903284922592  0.7168464609342848  1.0000
  C   C38       1.0  0.5617680904408004  0.5027262093825726  0.6432132149039305  1.0000
  C   C39       1.0  0.5700542424295421  0.5114131933340076  0.6849860212619489  1.0000
  C   C40       1.0  0.647667215475849  0.5159800333861142  0.7043376702585817  1.0000
  C   C41       1.0  0.584968376176235  0.5047551573821921  0.8130756467262685  1.0000
  C   C42       1.0  0.5802214808579151  0.5098003138454175  0.7709204242649506  1.0000
  C   C43       1.0  0.6514363577496951  0.5131343368126977  0.7456113045312377  1.0000
  C   C44       1.0  0.4385236302259586  0.5032540344743737  0.8191733881460265  1.0000
  C   C45       1.0  0.4302785855731415  0.5119995943903178  0.7774575686797647  1.0000
  C   C46       1.0  0.35268250095277426  0.5170113707917067  0.7581291047898302  1.0000
  C   C47       1.0  0.48582928375682133  0.5001284880985966  0.6254270241890721  1.0000
  C   C48       1.0  0.49779636517862985  0.5123400370971042  0.7098641239988268  1.0000
  C   C49       1.0  0.5144528396443134  0.5003331319532691  0.836948842566066  1.0000
  C   C50       1.0  0.5025607839143831  0.5124619540228396  0.7525976315301222  1.0000
  C   C51       1.0  0.5026226068268259  0.5089057064481679  0.0858491736595681  1.0000
  C   C52       1.0  0.43017809766377  0.4934636644732322  0.1069846231835356  1.0000
  C   C53       1.0  0.4287255505813975  0.49053701262045735  0.14905749538503696  1.0000
  C   C54       1.0  0.5012483535003369  0.5044907933523675  0.17016724546956394  1.0000
  C   C55       1.0  0.5744762992531137  0.5209436618628375  0.148356758607548  1.0000
  C   C56       1.0  0.5744407785360579  0.5225491247256784  0.1062008370090481  1.0000
  C   C57       1.0  0.5003113785224118  0.5025376365265756  0.2125518242802613  1.0000
  C   C58       1.0  0.49926296907217  0.5017511520358651  0.24958446583570287  1.0000
  C   C59       1.0  0.4984204466203793  0.5019870913659688  0.2919770136894257  1.0000
  C   C60       1.0  0.42520614864823614  0.5175702557010665  0.3141034086052841  1.0000
  C   C61       1.0  0.42549560921482776  0.5180043555219599  0.3562682355915356  1.0000
  C   C62       1.0  0.4975061028203315  0.5040336577371036  0.3763416384978412  1.0000
  C   C63       1.0  0.569854196419769  0.4891593189765615  0.35489162925515666  1.0000
  C   C64       1.0  0.5710856054893371  0.4874125526554352  0.3127875066310679  1.0000
  C   C65       1.0  0.7563974550113957  0.5527440060229764  0.9389990533927557  1.0000
  C   C66       1.0  0.8412629419920846  0.5543370383800552  0.9356162831562855  1.0000
  C   C67       1.0  0.8856025141159591  0.49976332773850635  0.9569379157261436  1.0000
  C   C68       1.0  0.8426090172063782  0.44680955385127413  0.9810757372049963  1.0000
  C   C69       1.0  0.757712001664899  0.45018216733519273  0.9823657069560668  1.0000
  C   C70       1.0  0.9707666184818395  0.49842825445886524  0.9545957522323433  1.0000
  C   C71       1.0  0.045105020867943324  0.4969418779156953  0.9530441011742069  1.0000
  C   C72       1.0  0.13020565438554854  0.4957192429889687  0.9538461633212946  1.0000
  C   C73       1.0  0.17842734281256875  0.5235217697741419  0.9210507382548343  1.0000
  C   C74       1.0  0.2630522299777241  0.5234384562415783  0.9251363881147512  1.0000
  C   C75       1.0  0.2538940106049382  0.46885876379794683  0.9889203392023944  1.0000
  C   C76       1.0  0.1690791116613397  0.4671336352347665  0.988310541065516  1.0000
  C   C77       1.0  0.5025198431300455  0.7300207849619654  0.955214240432724  1.0000
  C   C78       1.0  0.4287122456805008  0.7665606339013282  0.9630271202948819  1.0000
  C   C79       1.0  0.4257267970428061  0.8447390654649567  0.9648810453416344  1.0000
  C   C80       1.0  0.4980862605466925  0.8866753387149939  0.9581133892710055  1.0000
  C   C81       1.0  0.5726013191001016  0.8488697508372951  0.9495532148207955  1.0000
  C   C82       1.0  0.574073874555751  0.7706114768863443  0.9484685706524871  1.0000
  C   C83       1.0  0.4966895968715407  0.9653281963297359  0.9601729691285356  1.0000
  C   C84       1.0  0.4973464597400862  0.03405948586940611  0.9618780868278165  1.0000
  C   C85       1.0  0.4993299997878396  0.11272412874496503  0.9635613491460758  1.0000
  C   C86       1.0  0.4280003554688109  0.1549707464572592  0.9564393684783993  1.0000
  C   C87       1.0  0.43135009346044484  0.23309770646883263  0.9580090421539111  1.0000
  C   C88       1.0  0.5045285048857624  0.2693568856533517  0.9657839585499488  1.0000
  C   C89       1.0  0.5751498747284883  0.22851353030914365  0.9726432550722847  1.0000
  C   C90       1.0  0.5732123394685191  0.15024071369488473  0.971969809544035  1.0000
  C   C91       1.0  0.2739515379103778  0.5285869912602195  0.7807336609006938  1.0000
  C   C92       1.0  0.7264324196839881  0.5268233466388352  0.6817371587741619  1.0000
  N   N1        1.0  0.2832308742273355  0.4991029953401309  0.5004959209187729  1.0000
  N   N2        1.0  0.7025867043919832  0.49403007910157726  0.5044500198137951  1.0000
  N   N3        1.0  0.7173604115248722  0.5017162302757329  0.9616042909330459  1.0000
  N   N4        1.0  0.2979704193646455  0.4969809580779059  0.958100038861204  1.0000
  N   N5        1.0  0.11634290701795182  0.39251016717431503  0.4581600599015303  1.0000
  N   N6        1.0  0.1194915679509876  0.6029678934264951  0.5511751674946055  1.0000
  N   N7        1.0  0.8768746768116245  0.4335800698472951  0.4426801255663689  1.0000
  N   N8        1.0  0.8567608504891027  0.5497835896410379  0.5754443900109932  1.0000
  N   N9        1.0  0.35603351131474176  0.8877790858899531  0.5161442968092871  1.0000
  N   N10       1.0  0.6458354109981173  0.8801533299291222  0.48869757853118756  1.0000
  N   N11       1.0  0.3562346861769896  0.10573184187730793  0.4834365420188503  1.0000
  N   N12       1.0  0.643168706779683  0.11373282113618188  0.5112629887651821  1.0000
  N   N13       1.0  0.6450327199674819  0.5320455190693566  0.1695535248381788  1.0000
  N   N14       1.0  0.3572830743209963  0.4769630887927648  0.1708989924350846  1.0000
  N   N15       1.0  0.6424342675935222  0.47464213701517377  0.29063888032428753  1.0000
  N   N16       1.0  0.3545340070758486  0.5292539813858426  0.2931530231030024  1.0000
  N   N17       1.0  0.8842981703094709  0.39540585210014717  0.0035266029688187984  1.0000
  N   N18       1.0  0.881004773060411  0.6052903588505671  0.9113382128154439  1.0000
  N   N19       1.0  0.12391389424337972  0.4366062562945033  0.0196650896919905  1.0000
  N   N20       1.0  0.14360008846135494  0.5517763133234865  0.8873235077703183  1.0000
  N   N21       1.0  0.6429009600636066  0.8908816954489607  0.9442791923322033  1.0000
  N   N22       1.0  0.3532140929526832  0.8826028003446496  0.9719124331691303  1.0000
  N   N23       1.0  0.6426760129628378  0.10787343766514111  0.977521217809894  1.0000
  N   N24       1.0  0.35594983403995434  0.1175129539394177  0.9494248229922346  1.0000
  O   O1        1.0  0.5641456586413797  0.6101097012451434  0.5023225639326652  1.0000
  O   O2        1.0  0.4270792548152117  0.6111561703438896  0.5097854193153211  1.0000
  O   O3        1.0  0.4142368771014305  0.4884105741163082  0.5642481891456724  1.0000
  O   O4        1.0  0.551799209793046  0.4949078931662996  0.5617684684947549  1.0000
  O   O5        1.0  0.4250832070112765  0.38306163676620747  0.4950472884302571  1.0000
  O   O6        1.0  0.5622078450571594  0.3831818553952004  0.49886478309685595  1.0000
  O   O7        1.0  0.5659587652706011  0.49784746780943573  0.4382921020269634  1.0000
  O   O8        1.0  0.42891467869316824  0.5097305240038139  0.4400022009559024  1.0000
  O   O9        1.0  0.4362124613626648  0.6127324103055544  0.9580096557160471  1.0000
  O   O10       1.0  0.5735875120418541  0.6139199839275875  0.9526567241608104  1.0000
  O   O11       1.0  0.5861766810653819  0.4902936079002913  0.8980735215895095  1.0000
  O   O12       1.0  0.44849316805953515  0.49355628372996563  0.9005123926708405  1.0000
  O   O13       1.0  0.5752526570672674  0.3857776203706963  0.9669651061208809  1.0000
  O   O14       1.0  0.4378878552675261  0.38629100132052235  0.9648488476128277  1.0000
  O   O15       1.0  0.434394312636279  0.5048791378084161  0.023810421393292792  1.0000
  O   O16       1.0  0.5717474895357528  0.513151804985604  0.022333140397165593  1.0000
  O   O17       1.0  0.2764288539450917  0.572476081143158  0.8150470886486474  1.0000
  O   O18       1.0  0.2087185842791257  0.5050455314351936  0.7700445152890225  1.0000
  O   O19       1.0  0.7242470835338964  0.5709338805326566  0.6477268014972424  1.0000
  O   O20       1.0  0.7914634109389668  0.5025588597521705  0.692144325321081  1.0000
