data_image0
_chemical_formula_structural       Zn6H40C72O28
_chemical_formula_sum              "Zn6 H40 C72 O28"
_cell_length_a       18.560270289688876
_cell_length_b       18.67103719985093
_cell_length_c       18.472805841464023
_cell_angle_alpha    109.04341290395224
_cell_angle_beta     109.11098602168738
_cell_angle_gamma    109.10268461940906

_space_group_name_H-M_alt    "P 1"
_space_group_IT_number       1

loop_
  _space_group_symop_operation_xyz
  'x, y, z'

loop_
  _atom_site_type_symbol
  _atom_site_label
  _atom_site_symmetry_multiplicity
  _atom_site_fract_x
  _atom_site_fract_y
  _atom_site_fract_z
  _atom_site_occupancy
  Zn  Zn1       1.0  0.5635257895990547  0.5558564951884931  0.49821971262581854  1.0000
  Zn  Zn2       1.0  0.4362153380827749  0.43420485175258966  0.4987342991698542  1.0000
  Zn  Zn3       1.0  0.9933439178709804  0.5588675562019246  0.06550412115358013  1.0000
  Zn  Zn4       1.0  0.0017479778852730712  0.4417234524931928  0.9415814668487175  1.0000
  Zn  Zn5       1.0  0.5552223625176822  0.9955699828168675  0.06693435961367555  1.0000
  Zn  Zn6       1.0  0.4421671380635885  0.9984560539509245  0.9352148701287535  1.0000
  H   H1        1.0  0.17681519737600132  0.12502784648408746  0.9795535753111513  1.0000
  H   H2        1.0  0.3068521754336757  0.1085754651139297  0.9938568184345443  1.0000
  H   H3        1.0  0.5858988459332936  0.21538423896572573  0.23848481892453327  1.0000
  H   H4        1.0  0.28024402893309036  0.3837141648388637  0.24247916204386402  1.0000
  H   H5        1.0  0.47020765479342685  0.6908784855835036  0.4252715031067069  1.0000
  H   H6        1.0  0.46705763001664014  0.8202478555722975  0.41979659776322353  1.0000
  H   H7        1.0  0.3435903548654622  0.8032316103046071  0.2945288345445292  1.0000
  H   H8        1.0  0.22290859421954687  0.658360801857235  0.17974207253536884  1.0000
  H   H9        1.0  0.16083200121048688  0.36639966271646773  0.11403341818082421  1.0000
  H   H10       1.0  0.691658314281874  0.3730880874753169  0.5920445485721688  1.0000
  H   H11       1.0  0.5823283055202495  0.6017171872862761  0.7427382816336563  1.0000
  H   H12       1.0  0.7078855500289905  0.6762840469089255  0.8920160286888716  1.0000
  H   H13       1.0  0.7468321766072846  0.8228111165639618  0.0004553817066365334  1.0000
  H   H14       1.0  0.3821688760455261  0.7888715238205679  0.7075409059698716  1.0000
  H   H15       1.0  0.7721672174563138  0.3960715228033251  0.07878862116719179  1.0000
  H   H16       1.0  0.96495891750633  0.29514959430454724  0.017301393506137696  1.0000
  H   H17       1.0  0.9693651694335302  0.15847349413697742  0.9830000481050547  1.0000
  H   H18       1.0  0.8511612900328416  0.0314994220812181  0.9679217413634974  1.0000
  H   H19       1.0  0.7346752882293686  0.04673895596304329  0.996860374060262  1.0000
  H   H20       1.0  0.8743458766064836  0.4894511567880784  0.6974740950321562  1.0000
  H   H21       1.0  0.6600846658955747  0.2717045642479832  0.07249657548556594  1.0000
  H   H22       1.0  0.26206504226013294  0.6613482485105067  0.06382393631032811  1.0000
  H   H23       1.0  0.022656687505353372  0.8522718075190665  0.9502931229632453  1.0000
  H   H24       1.0  0.15706259325662597  0.9769883331341804  0.9847815920479877  1.0000
  H   H25       1.0  0.29383667687989856  0.97110618583023  0.020387179642057086  1.0000
  H   H26       1.0  0.3884651433840246  0.7729847475269834  0.07290822214181959  1.0000
  H   H27       1.0  0.838497262899523  0.6304865009223377  0.7324259623895276  1.0000
  H   H28       1.0  0.8331015260210607  0.6238439195687278  0.8844452434554385  1.0000
  H   H29       1.0  0.6515010817297906  0.5081073777989288  0.7790538360429125  1.0000
  H   H30       1.0  0.589652380635208  0.3200165709224549  0.366089660185594  1.0000
  H   H31       1.0  0.299591749805451  0.2793020783163982  0.2599404435546901  1.0000
  H   H32       1.0  0.171373692706247  0.20769868629118085  0.11282299678048699  1.0000
  H   H33       1.0  0.5761893959851677  0.27560816489551604  0.6301684790580567  1.0000
  H   H34       1.0  0.5646872599679327  0.3426811390611987  0.7150210807809643  1.0000
  H   H35       1.0  0.5896338339346628  0.2580582112839238  0.7941435015310817  1.0000
  H   H36       1.0  0.4978199814134001  0.18911330415928518  0.6868436219675759  1.0000
  H   H37       1.0  0.5991198172184653  0.19015377880607082  0.7083242909006061  1.0000
  H   H38       1.0  0.32731924762828873  0.685091405123096  0.5657590324455343  1.0000
  H   H39       1.0  0.7221807833388069  0.9301395111991508  0.024947631748830065  1.0000
  H   H40       1.0  0.9654050150929269  0.7190892514020177  0.9371897664201827  1.0000
  C   C1        1.0  0.46395498759132175  0.35172428466017897  0.37420404542186253  1.0000
  C   C2        1.0  0.8022211731670125  0.5690373056641818  0.8187264367336057  1.0000
  C   C3        1.0  0.7018444685316966  0.5041765662985113  0.7621549271303821  1.0000
  C   C4        1.0  0.7054124403530011  0.5077471941154811  0.6796051266307046  1.0000
  C   C5        1.0  0.3011844569689401  0.2429419304039797  0.20138934273664694  1.0000
  C   C6        1.0  0.22986372611195796  0.2025490881359531  0.11956566756971651  1.0000
  C   C7        1.0  0.23266245427051765  0.15499447282813614  0.04435374473646191  1.0000
  C   C8        1.0  0.3051971950175556  0.1458462168429477  0.05186241985483517  1.0000
  C   C9        1.0  0.37989407849104856  0.1858957564675805  0.13515446143026114  1.0000
  C   C10       1.0  0.3783360644723572  0.23786065754095628  0.21161693949003532  1.0000
  C   C11       1.0  0.45568782569161925  0.2861462875191521  0.294741006871007  1.0000
  C   C12       1.0  0.6378654831768317  0.5119864579164498  0.6136270079950493  1.0000
  C   C13       1.0  0.5301160826343575  0.28042256746946487  0.30287587519528364  1.0000
  C   C14       1.0  0.5288598299966907  0.22354255249368282  0.23052515381003494  1.0000
  C   C15       1.0  0.45625895517873966  0.17693493247326583  0.14755720473570477  1.0000
  C   C16       1.0  0.41632054662385093  0.6835531758736267  0.3712245104324695  1.0000
  C   C17       1.0  0.4144285760281932  0.7556362541870171  0.3678000091332621  1.0000
  C   C18       1.0  0.3447403899540973  0.7461219580790727  0.2973360251521201  1.0000
  C   C19       1.0  0.27747128818828765  0.6646816930357744  0.23205211948772586  1.0000
  C   C20       1.0  0.27715449253836516  0.5887241912636441  0.23286744727217012  1.0000
  C   C21       1.0  0.3489762074074036  0.5985588139392135  0.30402477408359374  1.0000
  C   C22       1.0  0.34728722216740243  0.5221096135224742  0.3059397811893306  1.0000
  C   C23       1.0  0.47197902109231643  0.58713336764702  0.6132216612976437  1.0000
  C   C24       1.0  0.2801736188357111  0.440656171990554  0.23883898837460296  1.0000
  C   C25       1.0  0.21273545146021175  0.43089260616805075  0.16696384087040878  1.0000
  C   C26       1.0  0.20930414646731776  0.5031200677175036  0.1648660944103852  1.0000
  C   C27       1.0  0.5969365376202872  0.6635873052460254  0.7922440951103625  1.0000
  C   C28       1.0  0.6670308793005262  0.705205722670634  0.874901413068223  1.0000
  C   C29       1.0  0.6880246931731407  0.7870667335114946  0.9366057202132297  1.0000
  C   C30       1.0  0.637217759363054  0.8256400110102787  0.9172832890538418  1.0000
  C   C31       1.0  0.5577729910412117  0.7806665083486449  0.8356539281008679  1.0000
  C   C32       1.0  0.5428645559893965  0.7007012770251321  0.7706927589986421  1.0000
  C   C33       1.0  0.4748114471012031  0.6592554550942397  0.6828320424338018  1.0000
  C   C34       1.0  0.41442757997350554  0.5240689188023283  0.3793571115457227  1.0000
  C   C35       1.0  0.42010008985713654  0.6926823270263115  0.6594194098289068  1.0000
  C   C36       1.0  0.4287285582110342  0.7655323572823105  0.7242941004034124  1.0000
  C   C37       1.0  0.49453640011103056  0.8090028953100159  0.8105695587205803  1.0000
  C   C38       1.0  0.8962238397488279  0.40150811360035016  0.037985857685818365  1.0000
  C   C39       1.0  0.8839795532957311  0.48289486674543974  0.8657290650010129  1.0000
  C   C40       1.0  0.10804723200705986  0.6449274662805069  0.027685057738537487  1.0000
  C   C41       1.0  0.12911806972660855  0.48917184534742825  0.09472082602046328  1.0000
  C   C42       1.0  0.39628385585881176  0.8992318315751432  0.03602814741476819  1.0000
  C   C43       1.0  0.46367980455202934  0.11507449564080469  0.0785269256996202  1.0000
  C   C44       1.0  0.6436337163335395  0.11475398648376259  0.0327270701946105  1.0000
  C   C45       1.0  0.7242385458251946  0.42855093056858345  0.6576228122381168  1.0000
  C   C46       1.0  0.48644686663601533  0.8770342810704932  0.8730199588358759  1.0000
  C   C47       1.0  0.9149743831764852  0.24154375195718103  0.0139115940016055  1.0000
  C   C48       1.0  0.9169485144846021  0.16453836562611457  0.9941977225525493  1.0000
  C   C49       1.0  0.8509186305586098  0.0932032049552944  0.9867221144957984  1.0000
  C   C50       1.0  0.785848594003646  0.10149266173225162  0.002738756351028731  1.0000
  C   C51       1.0  0.7833051597622501  0.18066110206434155  0.025711128750138774  1.0000
  C   C52       1.0  0.8474465668042798  0.2518629408617485  0.028362665444426186  1.0000
  C   C53       1.0  0.8405987755117367  0.32950651787188423  0.04643623864587444  1.0000
  C   C54       1.0  0.7757245841585386  0.33630509957728083  0.06485816555172616  1.0000
  C   C55       1.0  0.7128227696936805  0.2663397582460334  0.06158508410970138  1.0000
  C   C56       1.0  0.7218851292327457  0.4262219293495805  0.7415706460202502  1.0000
  C   C57       1.0  0.7160130171607763  0.1896663129038672  0.042157690517520184  1.0000
  C   C58       1.0  0.08888361824900659  0.7825659977240845  0.9807861544564603  1.0000
  C   C59       1.0  0.08488196177767551  0.8521245636527796  0.9721023042567937  1.0000
  C   C60       1.0  0.16028118965446936  0.9214252519520868  0.9897177525256212  1.0000
  C   C61       1.0  0.23753605215547668  0.918968124701756  0.011216514628237832  1.0000
  C   C62       1.0  0.2440030955331521  0.8485597963634672  0.020892572194128305  1.0000
  C   C63       1.0  0.16975174027551523  0.7814127894294884  0.011670158977643877  1.0000
  C   C64       1.0  0.17860911742435792  0.7151796223005887  0.029639996845531792  1.0000
  C   C65       1.0  0.25663141765213743  0.7132063851888192  0.05177424274709345  1.0000
  C   C66       1.0  0.32821112188994306  0.7764606923003682  0.057619953915349166  1.0000
  C   C67       1.0  0.8229407186087699  0.4923475733503366  0.7987971596089241  1.0000
  C   C68       1.0  0.32233344633528555  0.8420689996052032  0.04112140320112438  1.0000
  C   C69       1.0  0.824534589952954  0.4938999185723461  0.7149676806678897  1.0000
  C   C70       1.0  0.8056816007006019  0.5722257859810114  0.7358786497428299  1.0000
  C   C71       1.0  0.5952861153369043  0.30203428731451964  0.7004373407584057  1.0000
  C   C72       1.0  0.5690163394950433  0.2306333913017227  0.7238651368234842  1.0000
  O   O1        1.0  0.5253412133291705  0.4281674288724347  0.40866173213193957  1.0000
  O   O2        1.0  0.9187376454995332  0.38105672282379294  0.9795357656828688  1.0000
  O   O3        1.0  0.9018645167785876  0.526051505106757  0.9444636725604383  1.0000
  O   O4        1.0  0.9135513634704254  0.43177585223071446  0.8397735656751096  1.0000
  O   O5        1.0  0.08203086022654557  0.6660540102707628  0.08398701964952687  1.0000
  O   O6        1.0  0.08370854759866829  0.5680553553507437  0.9735819513578081  1.0000
  O   O7        1.0  0.09277069460561892  0.5314901190165883  0.11959070899070666  1.0000
  O   O8        1.0  0.10030565742893313  0.43396336170849265  0.01449091748354184  1.0000
  O   O9        1.0  0.4745765151583114  0.9239308525952338  0.09252268676763709  1.0000
  O   O10       1.0  0.37720073942624316  0.9173820800300804  0.9740379046580758  1.0000
  O   O11       1.0  0.519695266574125  0.0921828159200189  0.10673425497862606  1.0000
  O   O12       1.0  0.410873431249371  0.3282012156448033  0.40308457028318406  1.0000
  O   O13       1.0  0.41513576296157584  0.08652676510446608  0.9960912752482545  1.0000
  O   O14       1.0  0.6623270143943856  0.08281841751491469  0.08408807843027691  1.0000
  O   O15       1.0  0.5678396839254773  0.08854232812857529  0.9737856442665278  1.0000
  O   O16       1.0  0.5177141648928439  0.8935436998922056  0.9521487411431977  1.0000
  O   O17       1.0  0.4431458756673194  0.911466292554401  0.8413136700757776  1.0000
  O   O18       1.0  0.6637310741256003  0.5647702357504514  0.5853127284230837  1.0000
  O   O19       1.0  0.5586471614838899  0.46262107825118176  0.5892357926308238  1.0000
  O   O20       1.0  0.5257613808411037  0.6115142183651301  0.586912031643884  1.0000
  O   O21       1.0  0.41856569165101837  0.5080886118379695  0.5863486822808923  1.0000
  O   O22       1.0  0.49598646437085153  0.5759100021410007  0.4098443987987751  1.0000
  O   O23       1.0  0.38660247866112485  0.4718085450169127  0.4059892949471263  1.0000
  O   O24       1.0  0.9157440025372736  0.47959864244833744  0.08803188553748227  1.0000
  O   O25       1.0  0.6889046964156335  0.3552445971964104  0.7520978237639113  1.0000
  O   O26       1.0  0.3588960760111917  0.6531387458264178  0.5731770549283939  1.0000
  O   O27       1.0  0.6664499290597163  0.9098039321619708  0.9752576335879866  1.0000
  O   O28       1.0  0.016004318117573545  0.7109442082653173  0.9579352632514287  1.0000
