data_image0
_chemical_formula_structural       Mn2Mo6H28C32N12O20
_chemical_formula_sum              "Mn2 Mo6 H28 C32 N12 O20"
_cell_length_a       7.934319314891907
_cell_length_b       11.628131874382124
_cell_length_c       13.114971136227783
_cell_angle_alpha    63.066847408298955
_cell_angle_beta     84.97302453451886
_cell_angle_gamma    79.47828952025577

_space_group_name_H-M_alt    "P 1"
_space_group_IT_number       1

loop_
  _space_group_symop_operation_xyz
  'x, y, z'

loop_
  _atom_site_type_symbol
  _atom_site_label
  _atom_site_symmetry_multiplicity
  _atom_site_fract_x
  _atom_site_fract_y
  _atom_site_fract_z
  _atom_site_occupancy
  Mn  Mn1       1.0  0.9045866846634208  0.6906397604520579  0.30122280777412397  1.0000
  Mn  Mn2       1.0  0.39468546405377936  0.9925473902404537  0.7034184073399243  1.0000
  Mo  Mo1       1.0  0.18115096908606892  0.9314909851497009  0.2295052223783925  1.0000
  Mo  Mo2       1.0  0.679940966098229  0.16726072864214114  0.7747856901432256  1.0000
  Mo  Mo3       1.0  0.4165058890251529  0.18622974810296014  0.9877443477743026  1.0000
  Mo  Mo4       1.0  0.9168423906740202  0.16988006770429828  0.023231066639581847  1.0000
  Mo  Mo5       1.0  0.5430699485207382  0.8699063993328411  0.10040860254584763  1.0000
  Mo  Mo6       1.0  0.03258572035134927  0.9715414948506693  0.9104345266875666  1.0000
  H   H1        1.0  0.3989810019693322  0.5838294514161789  0.05997586470132888  1.0000
  H   H2        1.0  0.905007049244986  0.6228524823808785  0.9481424296232033  1.0000
  H   H3        1.0  0.15949686267226332  0.4312772019634822  0.07492540152087901  1.0000
  H   H4        1.0  0.6607382696966014  0.49291157017833626  0.9281510106371512  1.0000
  H   H5        1.0  0.8550713656393327  0.38189543502269174  0.11778627924742577  1.0000
  H   H6        1.0  0.3678850662060924  0.4905761732640388  0.8834969568163157  1.0000
  H   H7        1.0  0.5731375878628739  0.31357001021267195  0.1977722280311126  1.0000
  H   H8        1.0  0.08536849734447573  0.49946504824429644  0.8091582701546327  1.0000
  H   H9        1.0  0.42905840155867025  0.3795829884222713  0.3462740848353361  1.0000
  H   H10       1.0  0.9342042353200958  0.7165964189735163  0.664190661113892  1.0000
  H   H11       1.0  0.5629497175976181  0.5280424055532081  0.395760933944686  1.0000
  H   H12       1.0  0.06545476598499533  0.9169679336452962  0.6130122858363973  1.0000
  H   H13       1.0  0.2741399605617332  0.5448892414062102  0.36916501884146397  1.0000
  H   H14       1.0  0.7706185850635094  0.9272776217773712  0.6189190527688238  1.0000
  H   H15       1.0  0.42272531559201804  0.3737866309941041  0.5495106998124014  1.0000
  H   H16       1.0  0.9165839167413876  0.9268415223086921  0.4401710812925968  1.0000
  H   H17       1.0  0.25228526722897016  0.29494538957639105  0.7326540850593161  1.0000
  H   H18       1.0  0.7411621815102835  0.02581003465213884  0.260704150564507  1.0000
  H   H19       1.0  0.9463849579025305  0.3966527233604965  0.7294314292543402  1.0000
  H   H20       1.0  0.437064111084851  0.12349143013319258  0.2646362657029542  1.0000
  H   H21       1.0  0.6200018997082001  0.5149384090114709  0.6967322071173353  1.0000
  H   H22       1.0  0.12472089265608592  0.20368268042550858  0.2912304870523882  1.0000
  H   H23       1.0  0.3701286981810414  0.7091848761563215  0.5548147767235035  1.0000
  H   H24       1.0  0.8566597304522291  0.2596318759209738  0.41987250977398094  1.0000
  H   H25       1.0  0.2776612663204006  0.7089767679601524  0.17497350241400497  1.0000
  H   H26       1.0  0.7881609068628352  0.8665059106045592  0.837125999112153  1.0000
  H   H27       1.0  0.5088565029624519  0.8114689459560438  0.36132152998727196  1.0000
  H   H28       1.0  0.9782207559330092  0.18730853876073197  0.6140783872141354  1.0000
  C   C1        1.0  0.2751180311408916  0.5744538382274627  0.10220697292519525  1.0000
  C   C2        1.0  0.7832917248499527  0.6597067344122254  0.9041731153275945  1.0000
  C   C3        1.0  0.1511716678800497  0.5007515720162489  0.10978886590152823  1.0000
  C   C4        1.0  0.6569537478765427  0.5974811455715426  0.8934585434064173  1.0000
  C   C5        1.0  0.017838096443661303  0.5338655281358768  0.17458507076337063  1.0000
  C   C6        1.0  0.5286906857508528  0.6999842945721254  0.8269234190974684  1.0000
  C   C7        1.0  0.855723166041763  0.4900665862124996  0.21513897587157513  1.0000
  C   C8        1.0  0.3645499572994808  0.6986941397286088  0.786570850531035  1.0000
  C   C9        1.0  0.7873966899556136  0.41041812549268303  0.18082827001897056  1.0000
  C   C10       1.0  0.2984917131217203  0.5827494708759746  0.8215627664569777  1.0000
  C   C11       1.0  0.6314194152460929  0.3716081414464156  0.22646155152925462  1.0000
  C   C12       1.0  0.14164198129922315  0.5881257075643307  0.7789255789636654  1.0000
  C   C13       1.0  0.5501067939063519  0.41034880927047385  0.3075401902666285  1.0000
  C   C14       1.0  0.05673007606765166  0.708785389658033  0.7001603465396399  1.0000
  C   C15       1.0  0.6237984954481917  0.4920786563462301  0.3357274850071262  1.0000
  C   C16       1.0  0.1291668270192474  0.8201655137625539  0.6714275098987201  1.0000
  C   C17       1.0  0.20671774047313118  0.5084291530933599  0.45061831275346964  1.0000
  C   C18       1.0  0.7023207903604884  0.9692863204223487  0.5382209954616213  1.0000
  C   C19       1.0  0.28792875321045125  0.4142575500454485  0.5509368515269627  1.0000
  C   C20       1.0  0.782159395714551  0.9692923904026288  0.43952198512596385  1.0000
  C   C21       1.0  0.19399807956776272  0.3707569170415541  0.6529543301809183  1.0000
  C   C22       1.0  0.68515816331746  0.024530096636418468  0.3399214575250936  1.0000
  C   C23       1.0  0.023150589447141195  0.4268628880376966  0.6513739955949943  1.0000
  C   C24       1.0  0.5141167127675673  0.07927643633380657  0.34185137467256504  1.0000
  C   C25       1.0  0.949160670757202  0.522064009848478  0.5481161579647774  1.0000
  C   C26       1.0  0.4428984202847771  0.07559342227288111  0.44452528949900477  1.0000
  C   C27       1.0  0.7753715265018924  0.5915691095109923  0.5351911248469249  1.0000
  C   C28       1.0  0.2649817877514097  0.1295362782226447  0.4566813229364044  1.0000
  C   C29       1.0  0.630943769291591  0.5832252954691911  0.6074549714260938  1.0000
  C   C30       1.0  0.1266810873930453  0.1878303072047843  0.37922837704094536  1.0000
  C   C31       1.0  0.5027226726473871  0.6786544131760053  0.5381657719142793  1.0000
  C   C32       1.0  0.9894001668287089  0.2162393256914827  0.4418307978920878  1.0000
  N   N1        1.0  0.21688442224400722  0.6445099511627462  0.160431402574467  1.0000
  N   N2        1.0  0.7298943394348498  0.7895513935998294  0.8461544376757643  1.0000
  N   N3        1.0  0.05998520011087286  0.6224490744717742  0.20496757916647815  1.0000
  N   N4        1.0  0.5757365182621897  0.8167867200761099  0.7986787452129602  1.0000
  N   N5        1.0  0.772774545141857  0.5322937196751669  0.2900145393834633  1.0000
  N   N6        1.0  0.2789405099177387  0.8164487651436262  0.71392546347095  1.0000
  N   N7        1.0  0.03928923519206507  0.5597065481616071  0.4471846821276983  1.0000
  N   N8        1.0  0.5369729921140731  0.01974469331958763  0.5414084329368762  1.0000
  N   N9        1.0  0.7358872771699225  0.687466396503247  0.42784840646603317  1.0000
  N   N10       1.0  0.21400569035939307  0.12361308106825686  0.560075316714787  1.0000
  N   N11       1.0  0.5702502386698926  0.7377416188987669  0.4318624993108528  1.0000
  N   N12       1.0  0.047191632272991155  0.17608021213222713  0.5486903666309216  1.0000
  O   O1        1.0  0.3951368509950512  0.29916426250658656  0.040738183405444786  1.0000
  O   O2        1.0  0.9083171238966654  0.336060044433502  0.9703911813365592  1.0000
  O   O3        1.0  0.22101808162641134  0.2115146036798025  0.9263349207620022  1.0000
  O   O4        1.0  0.7140730493923896  0.14048396699801913  0.07888640929296287  1.0000
  O   O5        1.0  0.38509566494391123  0.028086136079345212  0.12593609616279616  1.0000
  O   O6        1.0  0.8878739139692868  0.15202019313452556  0.8855076946685115  1.0000
  O   O7        1.0  0.03929583843208211  0.10254917492370912  0.16329720362632827  1.0000
  O   O8        1.0  0.5508416872216558  0.2647727451901289  0.8489765382607924  1.0000
  O   O9        1.0  0.2426509963331823  0.9223715133467538  0.3552979945570554  1.0000
  O   O10       1.0  0.7521128466198093  0.28551956696781405  0.6510421742033826  1.0000
  O   O11       1.0  0.07573666895857654  0.9829783300681287  0.04228726019078972  1.0000
  O   O12       1.0  0.5769613307948873  0.01944751484865054  0.9693216227594873  1.0000
  O   O13       1.0  0.026397151358509032  0.8201124069433521  0.279359071951525  1.0000
  O   O14       1.0  0.514263263941217  0.12301045938350802  0.7259447298556481  1.0000
  O   O15       1.0  0.5404026610587139  0.7607964279758407  0.04670767053391237  1.0000
  O   O16       1.0  0.014983251101746467  0.8096663999088779  0.9628071962474107  1.0000
  O   O17       1.0  0.3584068524630837  0.800361233135476  0.20981108710455473  1.0000
  O   O18       1.0  0.8489357647754691  0.017264739547826483  0.7962138951696925  1.0000
  O   O19       1.0  0.7269469835194183  0.8171002469923182  0.1872395593927152  1.0000
  O   O20       1.0  0.21842929605566025  0.9983296393023554  0.8258413321692544  1.0000
