data_image0
_chemical_formula_structural       Cu2H28C32O12
_chemical_formula_sum              "Cu2 H28 C32 O12"
_cell_length_a       4.861633531000146
_cell_length_b       9.511500617503623
_cell_length_c       15.495325233066978
_cell_angle_alpha    102.88477161375788
_cell_angle_beta     89.99998940527995
_cell_angle_gamma    90.00002848930129

_space_group_name_H-M_alt    "P 1"
_space_group_IT_number       1

loop_
  _space_group_symop_operation_xyz
  'x, y, z'

loop_
  _atom_site_type_symbol
  _atom_site_label
  _atom_site_symmetry_multiplicity
  _atom_site_fract_x
  _atom_site_fract_y
  _atom_site_fract_z
  _atom_site_occupancy
  Cu  Cu1       1.0  2.1697438157e-06  0.5000000197493436  0.5000005612855533  1.0000
  Cu  Cu2       1.0  0.4999984709868599  0.9999994635530952  0.5000001879945729  1.0000
  H   H1        1.0  0.7462555905650704  0.8389628313629133  0.6283003060994619  1.0000
  H   H2        1.0  0.2462528498040797  0.6610368544726484  0.37169973054845684  1.0000
  H   H3        1.0  0.25375007954551887  0.1610373224096904  0.3717001557964111  1.0000
  H   H4        1.0  0.7537445926188013  0.33896222079022204  0.6283005859679349  1.0000
  H   H5        1.0  0.6326188971546858  0.9360069360794017  0.7743663350499193  1.0000
  H   H6        1.0  0.1326223103084487  0.5639948724458463  0.22563270399172106  1.0000
  H   H7        1.0  0.36737854526852237  0.06399322144443428  0.22563477271170035  1.0000
  H   H8        1.0  0.8673771890375904  0.43600635233038815  0.7743666115526227  1.0000
  H   H9        1.0  0.7070979468722244  0.9610501664226024  0.9356435632284603  1.0000
  H   H10       1.0  0.20709936667814327  0.538951655931136  0.06435482774158172  1.0000
  H   H11       1.0  0.2928994955501595  0.0389478303315016  0.0643566079083158  1.0000
  H   H12       1.0  0.7928980757460877  0.4610495688448567  0.9356444878027903  1.0000
  H   H13       1.0  0.0509439128061615  0.8037550403384303  0.9886506193305639  1.0000
  H   H14       1.0  0.5509489067258145  0.6962467526596754  0.011349067995816128  1.0000
  H   H15       1.0  0.9490555865385204  0.19624403492467485  0.01134969718578561  1.0000
  H   H16       1.0  0.44905470646315143  0.30375339736048806  0.9886507480344736  1.0000
  H   H17       1.0  0.3144581606081118  0.6214145897014945  0.8788867717661478  1.0000
  H   H18       1.0  0.8144612197824516  0.8785861869906599  0.12111276237557438  1.0000
  H   H19       1.0  0.6855413387372522  0.37858556031817864  0.12111304426419885  1.0000
  H   H20       1.0  0.1855423934059814  0.1214139742861065  0.8788889912515714  1.0000
  H   H21       1.0  0.23825541018479157  0.5965419639038883  0.7187799903848175  1.0000
  H   H22       1.0  0.7382604631796853  0.9034587948006986  0.28121954601393645  1.0000
  H   H23       1.0  0.7617461460826932  0.40345926837699864  0.28122061689072814  1.0000
  H   H24       1.0  0.26173697924269856  0.096539201953405  0.7187806251228396  1.0000
  H   H25       1.0  0.5756070978289429  0.630443772574786  0.5736399089497939  1.0000
  H   H26       1.0  0.0756045357327224  0.8695569552398582  0.42636092399782666  1.0000
  H   H27       1.0  0.4243944584385416  0.369557459706094  0.4263606983257518  1.0000
  H   H28       1.0  0.924390849768365  0.13044212002276373  0.5736393925185937  1.0000
  C   C1        1.0  0.15867939788333976  0.770706270053722  0.5940866965813856  1.0000
  C   C2        1.0  0.6586883218644745  0.7292858417971216  0.40591167913740384  1.0000
  C   C3        1.0  0.841324215304951  0.2292928052098731  0.405913619934907  1.0000
  C   C4        1.0  0.3413050067158068  0.270715390482792  0.5940889281382697  1.0000
  C   C5        1.0  0.8849846357219848  0.7531470298379335  0.6384437955489235  1.0000
  C   C6        1.0  0.38497992950721743  0.7468526849924401  0.36155559112436464  1.0000
  C   C7        1.0  0.11501897746662589  0.24685312768662732  0.36155731221260373  1.0000
  C   C8        1.0  0.6150133990717351  0.2531453080089677  0.6384439341468566  1.0000
  C   C9        1.0  0.9298069977894843  0.7651282115849868  0.7363361814904935  1.0000
  C   C10       1.0  0.42980644723064654  0.7348747456003791  0.2636629941283389  1.0000
  C   C11       1.0  0.07019661539997911  0.2348730169439364  0.2636637799194049  1.0000
  C   C12       1.0  0.5701889382707818  0.2651243221578384  0.7363360306568368  1.0000
  C   C13       1.0  0.78158113321593  0.8673023146701268  0.7976848627458893  1.0000
  C   C14       1.0  0.28157640026527286  0.6326995215125778  0.20231288015248344  1.0000
  C   C15       1.0  0.2184204230512279  0.13269783534978793  0.20231495328442153  1.0000
  C   C16       1.0  0.7184189852371575  0.36730170326317346  0.7976864353919171  1.0000
  C   C17       1.0  0.8245378702027752  0.881296623072913  0.8883514667348822  1.0000
  C   C18       1.0  0.32453317307696494  0.6187063017585857  0.11164642027075904  1.0000
  C   C19       1.0  0.17546574298601314  0.11870353069944886  0.11164899516101914  1.0000
  C   C20       1.0  0.6754663262689178  0.38129383700447755  0.8883514581627312  1.0000
  C   C21       1.0  0.015900150160526  0.7930850476538042  0.9179697460797203  1.0000
  C   C22       1.0  0.5159010020702867  0.7069178043238225  0.08202815006744402  1.0000
  C   C23       1.0  0.9841014061066389  0.20691510236611071  0.08203006995059783  1.0000
  C   C24       1.0  0.48410261111899894  0.2930834279573061  0.9179724572080732  1.0000
  C   C25       1.0  0.16424943000374984  0.6908671084485222  0.8566809825516091  1.0000
  C   C26       1.0  0.6642524074589958  0.8091347150475342  0.14331934728440396  1.0000
  C   C27       1.0  0.8357521262632305  0.30913304532359837  0.14331947934432784  1.0000
  C   C28       1.0  0.3357450349628905  0.19086220319780267  0.8566806784727634  1.0000
  C   C29       1.0  0.1226831722087098  0.6770622521623936  0.7661625344415343  1.0000
  C   C30       1.0  0.6226819998876465  0.8229384755082023  0.23383635951484655  1.0000
  C   C31       1.0  0.8773204409810731  0.322940058627502  0.23383821821359166  1.0000
  C   C32       1.0  0.3773174994575328  0.17706167826366936  0.7661641023811188  1.0000
  O   O1        1.0  0.2609865320142575  0.6564060984875796  0.5403114547168855  1.0000
  O   O2        1.0  0.760981142395039  0.8435979161166073  0.4596911006100515  1.0000
  O   O3        1.0  0.7390191380964739  0.343595141298195  0.45969044428984074  1.0000
  O   O4        1.0  0.23901218618441084  0.15640115539357421  0.5403085700407717  1.0000
  O   O5        1.0  0.7636344189023205  0.6139839902600671  0.5969025636473193  1.0000
  O   O6        1.0  0.2636298291447901  0.8860167706819412  0.40309632613425367  1.0000
  O   O7        1.0  0.23636713736516415  0.38601724202082005  0.4030980436282335  1.0000
  O   O8        1.0  0.7363676132784464  0.1139822970765252  0.5969026986508936  1.0000
  O   O9        1.0  0.2805109299155006  0.8881324596207848  0.6123780692952254  1.0000
  O   O10       1.0  0.7805012341313926  0.6118801726529809  0.3876230650278886  1.0000
  O   O11       1.0  0.7194926832737849  0.11186877266034402  0.3876225379802919  1.0000
  O   O12       1.0  0.21950032213409543  0.3881167455928463  0.6123769607292148  1.0000
