data_image0
_chemical_formula_structural       Ag4H28C28S4O12
_chemical_formula_sum              "Ag4 H28 C28 S4 O12"
_cell_length_a       5.701849773459485
_cell_length_b       8.692371686751358
_cell_length_c       15.680060803793497
_cell_angle_alpha    92.81494263558807
_cell_angle_beta     89.99893636847577
_cell_angle_gamma    89.99899079778977

_space_group_name_H-M_alt    "P 1"
_space_group_IT_number       1

loop_
  _space_group_symop_operation_xyz
  'x, y, z'

loop_
  _atom_site_type_symbol
  _atom_site_label
  _atom_site_symmetry_multiplicity
  _atom_site_fract_x
  _atom_site_fract_y
  _atom_site_fract_z
  _atom_site_occupancy
  Ag  Ag1       1.0  0.11369758324402571  0.7949191955664646  0.0308082831991925  1.0000
  Ag  Ag2       1.0  0.6136842175843641  0.70508027125387  0.9691888740853686  1.0000
  Ag  Ag3       1.0  0.886273570281965  0.2050784643670056  0.9691950960436274  1.0000
  Ag  Ag4       1.0  0.38631675087494  0.2949220962999632  0.0308095593933189  1.0000
  H   H1        1.0  0.8273312099330214  0.41720395675493194  0.6931738495747626  1.0000
  H   H2        1.0  0.32729914609542027  0.0828088612749056  0.3068258896690068  1.0000
  H   H3        1.0  0.1726855430238174  0.5827845266810882  0.3068273107460229  1.0000
  H   H4        1.0  0.672679022438615  0.9172049231910079  0.6931780261649152  1.0000
  H   H5        1.0  0.5878344789662436  0.3804594141664311  0.8209169737869147  1.0000
  H   H6        1.0  0.0877916750206325  0.11955825125937741  0.1790846160624824  1.0000
  H   H7        1.0  0.4121577205756211  0.6195325876391635  0.17908111475613003  1.0000
  H   H8        1.0  0.912168955350012  0.8804485346058685  0.8209235314589096  1.0000
  H   H9        1.0  0.060592694682675606  0.6836838107854392  0.7267745598681188  1.0000
  H   H10       1.0  0.5605551608724398  0.8162910327486799  0.27321449912893314  1.0000
  H   H11       1.0  0.9394415966521452  0.3163165175732842  0.2732104120237722  1.0000
  H   H12       1.0  0.43940547000190133  0.1836939957204606  0.7267865464103239  1.0000
  H   H13       1.0  0.30994742795084573  0.7305010022159807  0.6010274204070429  1.0000
  H   H14       1.0  0.8099262993653512  0.7694907725293021  0.398960443213099  1.0000
  H   H15       1.0  0.6901044011946312  0.2695071994117271  0.39896738030258666  1.0000
  H   H16       1.0  0.19007466930093392  0.2304977613699393  0.6010381676797039  1.0000
  H   H17       1.0  0.7317424916704596  0.49862840273237213  0.5145823584887381  1.0000
  H   H18       1.0  0.23170078654360543  0.0013614956924214983  0.48540453644019993  1.0000
  H   H19       1.0  0.26828127636184723  0.5013739269158323  0.48541798702034816  1.0000
  H   H20       1.0  0.7682721208414451  0.9986373663661043  0.5145963316394814  1.0000
  H   H21       1.0  0.6712044459730253  0.6985673221186062  0.5249847288297291  1.0000
  H   H22       1.0  0.17118915402662083  0.8014304954980034  0.4750062278454053  1.0000
  H   H23       1.0  0.32885089106528653  0.30142475492077386  0.4750095352498392  1.0000
  H   H24       1.0  0.8288153220729486  0.19856954333754837  0.5249934037039312  1.0000
  H   H25       1.0  0.9185346383779917  0.6201567822340409  0.5774929108970142  1.0000
  H   H26       1.0  0.41849844051466784  0.8798407371606843  0.4224950158446888  1.0000
  H   H27       1.0  0.0814891297449805  0.3798351186451114  0.42251027650199563  1.0000
  H   H28       1.0  0.581507789255504  0.12017318569953517  0.5775018887975989  1.0000
  C   C1        1.0  0.658840975253071  0.4761141538340752  0.6995427156476028  1.0000
  C   C2        1.0  0.15878295713797294  0.023898150452829704  0.30045819500750076  1.0000
  C   C3        1.0  0.34118980811532407  0.5238800631126281  0.3004599110133982  1.0000
  C   C4        1.0  0.8411671502074042  0.9761202033974783  0.6995477863643347  1.0000
  C   C5        1.0  0.5234554276968595  0.4541787733152276  0.7719397326934115  1.0000
  C   C6        1.0  0.0234125115283845  0.045813098147498  0.22806081504285916  1.0000
  C   C7        1.0  0.4765543099172477  0.5458201515219443  0.22805794839181462  1.0000
  C   C8        1.0  0.9765551343786856  0.9541740700613132  0.7719485929609322  1.0000
  C   C9        1.0  0.3065437810650239  0.5281350612281982  0.7805359949931232  1.0000
  C   C10       1.0  0.8065303981454834  0.9718669894743073  0.21945861249271562  1.0000
  C   C11       1.0  0.6934536799363045  0.4718697861820971  0.21945359195559896  1.0000
  C   C12       1.0  0.1934547856657787  0.028143301904869106  0.7805471004406783  1.0000
  C   C13       1.0  0.2275746959390119  0.6248154422368374  0.7183476647823852  1.0000
  C   C14       1.0  0.7275595099604788  0.8751896625961707  0.28165206587981834  1.0000
  C   C15       1.0  0.7724350416261956  0.37518460916561486  0.28165132937585474  1.0000
  C   C16       1.0  0.27243795065772514  0.12481603429274202  0.7183528563173311  1.0000
  C   C17       1.0  0.3682426626614089  0.6492136757743125  0.647585612041425  1.0000
  C   C18       1.0  0.8682353292869464  0.8507739362824794  0.3524061663579232  1.0000
  C   C19       1.0  0.6317758440718891  0.35077827551217683  0.35241502589063606  1.0000
  C   C20       1.0  0.13178493129023391  0.14921920453421936  0.6475925977825983  1.0000
  C   C21       1.0  0.5849211208342524  0.574607474929664  0.6365345500602262  1.0000
  C   C22       1.0  0.0848495518433197  0.9253867657830811  0.3634511562436772  1.0000
  C   C23       1.0  0.4151254470236126  0.4253810209428579  0.3634659727785348  1.0000
  C   C24       1.0  0.9151040634153064  0.07461898171807489  0.636551216629407  1.0000
  C   C25       1.0  0.73447756767834  0.5998891231145721  0.5595578940030921  1.0000
  C   C26       1.0  0.23444163886146194  0.9001011372121753  0.4404310893746414  1.0000
  C   C27       1.0  0.26555146188368894  0.4001121051300985  0.4404398636702781  1.0000
  C   C28       1.0  0.7655575757420935  0.0998988638667697  0.5595704543090108  1.0000
  S   S1        1.0  0.1329140463261851  0.5043556784156707  0.8730642349533826  1.0000
  S   S2        1.0  0.6328868656540011  0.9956389395647489  0.12693453884535444  1.0000
  S   S3        1.0  0.86708867624332  0.49563992973715904  0.1269263200807416  1.0000
  S   S4        1.0  0.36709130283398395  0.0043643027784768  0.8730779552229821  1.0000
  O   O1        1.0  0.9780410246701906  0.6395322678671677  0.8814880125296229  1.0000
  O   O2        1.0  0.4780218469868488  0.8604676464265852  0.11852125902078112  1.0000
  O   O3        1.0  0.0219494211056528  0.36046327737661704  0.11850572940802101  1.0000
  O   O4        1.0  0.5219685983080781  0.1395310014263842  0.8814904443113109  1.0000
  O   O5        1.0  0.006978533349595801  0.35670113573738155  0.860230091249612  1.0000
  O   O6        1.0  0.5069579873187281  0.1433070477814127  0.13977047769046896  1.0000
  O   O7        1.0  0.9930224353014979  0.6432873855670067  0.1397691570148041  1.0000
  O   O8        1.0  0.4930149196300421  0.8567112933529656  0.8602361409685387  1.0000
  O   O9        1.0  0.3019645188415296  0.5001692962666768  0.945479395029743  1.0000
  O   O10       1.0  0.8019266757711352  0.9998236647339032  0.054511115596412224  1.0000
  O   O11       1.0  0.6980522340806631  0.4998366650115925  0.0545121422921611  1.0000
  O   O12       1.0  0.1980427238136571  0.0001855631380606967  0.9454900974643794  1.0000
