data_image0
_chemical_formula_structural       Al2C48N24O60
_chemical_formula_sum              "Al2 C48 N24 O60"
_cell_length_a       4.331962283011498
_cell_length_b       29.289508791227114
_cell_length_c       29.289617566436412
_cell_angle_alpha    119.99871278061634
_cell_angle_beta     89.99973932075041
_cell_angle_gamma    90.00016207172638

_space_group_name_H-M_alt    "P 1"
_space_group_IT_number       1

loop_
  _space_group_symop_operation_xyz
  'x, y, z'

loop_
  _atom_site_type_symbol
  _atom_site_label
  _atom_site_symmetry_multiplicity
  _atom_site_fract_x
  _atom_site_fract_y
  _atom_site_fract_z
  _atom_site_occupancy
  Al  Al1       1.0  1.5549159542200004e-05  0.49999896368928637  0.5000012737843065  1.0000
  Al  Al2       1.0  0.9994550269161241  0.16666220255475392  0.8333407683236159  1.0000
  C   C1        1.0  0.5000115221026392  0.4597158284157032  0.4194225704330847  1.0000
  C   C2        1.0  0.5000073593263608  0.4597047678508944  0.5402888981148166  1.0000
  C   C3        1.0  0.5000085081870297  0.5805784410508182  0.5402911916142514  1.0000
  C   C4        1.0  0.4994562914735285  0.20696704919405556  0.7930602466259771  1.0000
  C   C5        1.0  0.4994482175976815  0.0860769921399226  0.793031319121063  1.0000
  C   C6        1.0  0.4994682875789211  0.20694951204968962  0.9139275882649329  1.0000
  C   C7        1.0  0.49957476862010713  0.2370528740110275  0.7629698654665873  1.0000
  C   C8        1.0  0.49457301747022353  0.21068924122990756  0.7074732762197584  1.0000
  C   C9        1.0  0.503641183766284  0.23810630166722288  0.6800052055031074  1.0000
  C   C10       1.0  0.49986472770540064  0.2936406728855872  0.7063654162438482  1.0000
  C   C11       1.0  0.4959513499180377  0.32000735187633483  0.7618985651992176  1.0000
  C   C12       1.0  0.5047619175728643  0.2925482072551306  0.7893233625924411  1.0000
  C   C13       1.0  0.4999577533658126  0.3213576140145592  0.6786425355435455  1.0000
  C   C14       1.0  0.500011442213797  0.345305868808282  0.6546876303785396  1.0000
  C   C15       1.0  0.5000028971230394  0.37302002186741834  0.626973000323261  1.0000
  C   C16       1.0  0.4960399367629338  0.3466654787355098  0.5714441053080891  1.0000
  C   C17       1.0  0.505124261595448  0.3741414308306973  0.5440400511947701  1.0000
  C   C18       1.0  0.5000066118349481  0.42961868283882165  0.5703727112248416  1.0000
  C   C19       1.0  0.49488362111625883  0.4559503626518622  0.6258479957126966  1.0000
  C   C20       1.0  0.5039619655563287  0.428545819572271  0.6533226635556133  1.0000
  C   C21       1.0  0.4995589115874994  0.02590171668655473  0.7629385418911667  1.0000
  C   C22       1.0  0.49456769161387387  0.9967675456819693  0.7893021457923837  1.0000
  C   C23       1.0  0.5036281496013544  0.9418869399382573  0.7618866741869681  1.0000
  C   C24       1.0  0.4998198268760917  0.9127158733801579  0.7063521813480519  1.0000
  C   C25       1.0  0.49590080685649  0.9418820922106262  0.6799871129530572  1.0000
  C   C26       1.0  0.504732932427956  0.9967625247169353  0.7074457709943545  1.0000
  C   C27       1.0  0.4999305294810626  0.8572822005780767  0.6786355655603914  1.0000
  C   C28       1.0  0.49999046054046664  0.8093750805711012  0.6546856338099188  1.0000
  C   C29       1.0  0.500001900943957  0.7539479474255089  0.6269747692223148  1.0000
  C   C30       1.0  0.4960538165363887  0.7247680716637179  0.6533261835927321  1.0000
  C   C31       1.0  0.5051281259768601  0.669886845358839  0.6258505614476703  1.0000
  C   C32       1.0  0.5000086185603437  0.6407461668027566  0.57037444792973  1.0000
  C   C33       1.0  0.49488229279302964  0.6698886499434806  0.544039260745933  1.0000
  C   C34       1.0  0.5039475698701923  0.7247694049271446  0.5714450190156127  1.0000
  C   C35       1.0  0.49961769796566113  0.23704460191707014  0.9741010104414514  1.0000
  C   C36       1.0  0.49462615106480723  0.2925406583472707  0.003231565607421785  1.0000
  C   C37       1.0  0.5036815123964261  0.3200086332749663  0.05811203708604044  1.0000
  C   C38       1.0  0.4998672999876207  0.2936494391187878  0.08728767417311899  1.0000
  C   C39       1.0  0.4959567515286596  0.2381165650882977  0.05812435255068493  1.0000
  C   C40       1.0  0.5047755074578151  0.2106928604086633  0.0032439899997669173  1.0000
  C   C41       1.0  0.4999636668018894  0.32136553055816114  0.14271825131620366  1.0000
  C   C42       1.0  0.5000024026708659  0.3453233289687462  0.19063030037915502  1.0000
  C   C43       1.0  0.49999719895321  0.37303533764596614  0.24605403513957919  1.0000
  C   C44       1.0  0.4960337174005788  0.42856627473547354  0.2752315864693316  1.0000
  C   C45       1.0  0.5051167792070004  0.4559718390476277  0.3301123313577463  1.0000
  C   C46       1.0  0.5000006171209253  0.4296360003925629  0.3592557367710469  1.0000
  C   C47       1.0  0.49487814696561844  0.3741589081635368  0.3301131100507462  1.0000
  C   C48       1.0  0.5039415952209013  0.34668348625593387  0.27523188704412854  1.0000
  N   N1        1.0  0.49305170503411244  0.15198094413881347  0.6751337500503496  1.0000
  N   N2        1.0  0.5063749118043077  0.3248948025403849  0.8480325886208179  1.0000
  N   N3        1.0  0.4894463284496311  0.378580662182742  0.7907800736843954  1.0000
  N   N4        1.0  0.5102185040105527  0.20922262922255905  0.6214342796320125  1.0000
  N   N5        1.0  0.4893569394838196  0.2880843152107816  0.5425547484400681  1.0000
  N   N6        1.0  0.5106119071519828  0.4574357012573884  0.7119064958715811  1.0000
  N   N7        1.0  0.49350786290353454  0.5146792215938945  0.6582120271225378  1.0000
  N   N8        1.0  0.5065422264957109  0.3417788563543951  0.4853112967638538  1.0000
  N   N9        1.0  0.4930732208418649  0.02313318021549558  0.8480102379527068  1.0000
  N   N10       1.0  0.5063816218358286  0.02312920813097467  0.6750992804517395  1.0000
  N   N11       1.0  0.48942860610699074  0.9121944801160353  0.621410980871957  1.0000
  N   N12       1.0  0.5102087373737663  0.9121944209678149  0.7907677793077994  1.0000
  N   N13       1.0  0.4893610826377711  0.754456193174349  0.7119079549934001  1.0000
  N   N14       1.0  0.5106080947673562  0.7544592887388931  0.5425522064275512  1.0000
  N   N15       1.0  0.49350943165376304  0.6435272433418789  0.48531411393231144  1.0000
  N   N16       1.0  0.5065424420101081  0.6435227486054061  0.6582130468696263  1.0000
  N   N17       1.0  0.4930694953575454  0.3248815615829842  0.9768607475545893  1.0000
  N   N18       1.0  0.5063528241460277  0.1519804485547881  0.9768832021289668  1.0000
  N   N19       1.0  0.4894347273852092  0.20923371693564974  0.08781749669880409  1.0000
  N   N20       1.0  0.5102306088100549  0.3785834987753987  0.0878024959194761  1.0000
  N   N21       1.0  0.48934233013783784  0.4574573444303809  0.24554114933299326  1.0000
  N   N22       1.0  0.5106082185948041  0.2881012649667269  0.24554195237887202  1.0000
  N   N23       1.0  0.4935016149723524  0.34179404259960233  0.3564764194928003  1.0000
  N   N24       1.0  0.5065435381628874  0.5146962262841656  0.35647473787085454  1.0000
  O   O1        1.0  0.7396363571257397  0.5584634603941154  0.5445925060348742  1.0000
  O   O2        1.0  0.7396511011392664  0.48612873033419385  0.44153654561795  1.0000
  O   O3        1.0  0.7396404656854685  0.4554068338209092  0.513874121687472  1.0000
  O   O4        1.0  0.2603851949480855  0.5584642956022281  0.5138764434168621  1.0000
  O   O5        1.0  0.26038403613635813  0.4861213226177696  0.5445906806398924  1.0000
  O   O6        1.0  0.2603968673435873  0.4554118549070267  0.44153659986417887  1.0000
  O   O7        1.0  0.7389995472568601  0.1805088625869403  0.8917900272402122  1.0000
  O   O8        1.0  0.7390078739748206  0.21126368922907088  0.8194932659837448  1.0000
  O   O9        1.0  0.7390027494956329  0.1082155892691788  0.7887376765955167  1.0000
  O   O10       1.0  0.25982900043321416  0.21124561662289676  0.8918133554598384  1.0000
  O   O11       1.0  0.259829131087038  0.10818958675051979  0.8194470569248935  1.0000
  O   O12       1.0  0.2598325980742188  0.18055212195559286  0.788761055114577  1.0000
  O   O13       1.0  0.27768246301937444  0.12905858649141064  0.6824992751998451  1.0000
  O   O14       1.0  0.706516467167667  0.1323669654715901  0.6434458015122716  1.0000
  O   O15       1.0  0.7218149625757564  0.3175297666690966  0.8709426240770455  1.0000
  O   O16       1.0  0.2929635433123822  0.35658998977183404  0.8676558060142625  1.0000
  O   O17       1.0  0.27953029149308156  0.3987442219369017  0.778515593348949  1.0000
  O   O18       1.0  0.6970678905689668  0.40098430319659456  0.823074626727042  1.0000
  O   O19       1.0  0.7201745897937857  0.22147837756053687  0.601270133133866  1.0000
  O   O20       1.0  0.3025713035175174  0.17693083852083896  0.5990305341330995  1.0000
  O   O21       1.0  0.27937550717420123  0.26793307966767815  0.5548206676245756  1.0000
  O   O22       1.0  0.6968890380709355  0.26565879017646665  0.5102491984949893  1.0000
  O   O23       1.0  0.7205740665952192  0.4451688540042867  0.7320597843733623  1.0000
  O   O24       1.0  0.30307774568513685  0.4897420825343843  0.7343285316709682  1.0000
  O   O25       1.0  0.27811619818661637  0.5376067111214127  0.6508640125325442  1.0000
  O   O26       1.0  0.7069789508891305  0.5342903870971512  0.6898985835469276  1.0000
  O   O27       1.0  0.7219646528786046  0.34913254397243787  0.4623913326918512  1.0000
  O   O28       1.0  0.29310546489984557  0.31008862223009004  0.465692794104676  1.0000
  O   O29       1.0  0.2777319469097606  0.053421514183114034  0.8709385417716503  1.0000
  O   O30       1.0  0.7065742024248253  0.011058331916515838  0.8676198750762224  1.0000
  O   O31       1.0  0.7218199603566405  0.05340498348778781  0.6824696601495505  1.0000
  O   O32       1.0  0.2929890920904656  0.01105927599684963  0.6434003339259178  1.0000
  O   O33       1.0  0.27953065792722503  0.8797650034383084  0.601240499363712  1.0000
  O   O34       1.0  0.697083206302594  0.9220888535962928  0.5990128051565904  1.0000
  O   O35       1.0  0.7201504266798441  0.879772751253718  0.7785094282325105  1.0000
  O   O36       1.0  0.30258418287179023  0.9220826620128478  0.8230629965672237  1.0000
  O   O37       1.0  0.2793707953170142  0.7868706526949723  0.7320580533822891  1.0000
  O   O38       1.0  0.6968970776767807  0.7445760197262389  0.7343327947090899  1.0000
  O   O39       1.0  0.720577725238215  0.7868781551512856  0.5548166683432783  1.0000
  O   O40       1.0  0.30306282975866594  0.744576808061261  0.5102479200808716  1.0000
  O   O41       1.0  0.27811519183927663  0.6132508001047086  0.462385636726033  1.0000
  O   O42       1.0  0.7069720013022478  0.6556017353839678  0.46570199344178315  1.0000
  O   O43       1.0  0.721961963468857  0.6132506148168418  0.650863497871896  1.0000
  O   O44       1.0  0.29309145870215764  0.6555921751874649  0.6899009992879711  1.0000
  O   O45       1.0  0.27770328723818954  0.3175098856061142  0.946572099312391  1.0000
  O   O46       1.0  0.7065248401152362  0.3565716353390798  0.9889321871202482  1.0000
  O   O47       1.0  0.7217727672097426  0.12906255729540575  0.9466084090637494  1.0000
  O   O48       1.0  0.29289491531213946  0.1323660482754008  0.9889577984794612  1.0000
  O   O49       1.0  0.27951792971862943  0.2214997328069259  0.12024569116846347  1.0000
  O   O50       1.0  0.6970471830959825  0.17693498730717036  0.077923724914875  1.0000
  O   O51       1.0  0.7201790378237689  0.3987509407452094  0.12022194745308207  1.0000
  O   O52       1.0  0.3025814277745269  0.40098509534762167  0.0779124524653625  1.0000
  O   O53       1.0  0.2793454992854337  0.4451939268651728  0.21312753365558015  1.0000
  O   O54       1.0  0.6968858438980378  0.4897605962563034  0.2554180028300976  1.0000
  O   O55       1.0  0.7205711096238261  0.26794972797545574  0.21312287714845723  1.0000
  O   O56       1.0  0.3030691124377115  0.26567815678973977  0.2554256169544474  1.0000
  O   O57       1.0  0.27810922494845874  0.3491383106302237  0.38675161550085585  1.0000
  O   O58       1.0  0.7069751951664502  0.3101077379153594  0.344401102555878  1.0000
  O   O59       1.0  0.7219652964610506  0.5376163098726537  0.38674722930303324  1.0000
  O   O60       1.0  0.29311407375763576  0.5343169595092051  0.3444034764363267  1.0000
