data_image0
_chemical_formula_structural       Cd2H24C32S4N12
_chemical_formula_sum              "Cd2 H24 C32 S4 N12"
_cell_length_a       5.4128611270616265
_cell_length_b       9.013478262884831
_cell_length_c       18.994935679280566
_cell_angle_alpha    92.05664158352893
_cell_angle_beta     90.00679451814331
_cell_angle_gamma    107.43023714967254

_space_group_name_H-M_alt    "P 1"
_space_group_IT_number       1

loop_
  _space_group_symop_operation_xyz
  'x, y, z'

loop_
  _atom_site_type_symbol
  _atom_site_label
  _atom_site_symmetry_multiplicity
  _atom_site_fract_x
  _atom_site_fract_y
  _atom_site_fract_z
  _atom_site_occupancy
  Cd  Cd1       1.0  0.9999840527900404  7.699196999100088e-06  0.5000006343223546  1.0000
  Cd  Cd2       1.0  1.300894523116363e-05  0.9999959601214811  4.3965449238989185e-07  1.0000
  H   H1        1.0  0.20136713127289588  0.9658432822632433  0.6948108018379813  1.0000
  H   H2        1.0  0.7634311404774291  0.965934935684174  0.1948817335849  1.0000
  H   H3        1.0  0.7986381725820805  0.0341607417807879  0.3051864867405243  1.0000
  H   H4        1.0  0.23659592885378092  0.034060875370038005  0.8051243535285835  1.0000
  H   H5        1.0  0.2601436485324839  0.49786948380503987  0.7048055123421975  1.0000
  H   H6        1.0  0.2372602254813215  0.4981244029541896  0.2046689879278389  1.0000
  H   H7        1.0  0.7398494079941642  0.5021322118355441  0.2951922596164991  1.0000
  H   H8        1.0  0.762730879912361  0.5018807845246868  0.7953288484189399  1.0000
  H   H9        1.0  0.8830640758471163  0.4050161895645842  0.6222537665448797  1.0000
  H   H10       1.0  0.5217558265874729  0.4051465800283438  0.1222103313155358  1.0000
  H   H11       1.0  0.11692898067953188  0.594985506075993  0.3777440054138168  1.0000
  H   H12       1.0  0.4782176101660269  0.5948528250297542  0.8777826600562976  1.0000
  H   H13       1.0  0.6599970928388287  0.5873706497527917  0.5790992436225082  1.0000
  H   H14       1.0  0.9269527580673582  0.5874288933729375  0.0791269459138348  1.0000
  H   H15       1.0  0.3399958531883557  0.4126345228514623  0.420900698304024  1.0000
  H   H16       1.0  0.07303069387953796  0.4125646687263468  0.9208690965396826  1.0000
  H   H17       1.0  0.6065579432492783  0.8450212816871101  0.5939570770529627  1.0000
  H   H18       1.0  0.23774662499634044  0.8447989348330508  0.09417291747082858  1.0000
  H   H19       1.0  0.3934339361788589  0.15497805410897306  0.4060453894925615  1.0000
  H   H20       1.0  0.7622665641575566  0.1551875798616464  0.9058314186433662  1.0000
  H   H21       1.0  0.8137219998983977  0.9906985502797662  0.6412658429101512  1.0000
  H   H22       1.0  0.17626091459033685  0.990604307871422  0.14144381944011997  1.0000
  H   H23       1.0  0.1862673423252161  0.0093031028517387  0.3587382457288868  1.0000
  H   H24       1.0  0.8237527600464533  0.009386879967330196  0.8585579705845277  1.0000
  C   C1        1.0  0.42108342965440937  0.8052154436438173  0.4665391258471132  1.0000
  C   C2        1.0  0.38503313886232593  0.8051971713534058  0.9668920798044596  1.0000
  C   C3        1.0  0.5788748861124376  0.19479437039854727  0.533464060077911  1.0000
  C   C4        1.0  0.6149850059421383  0.19478816756956258  0.0331138140505018  1.0000
  C   C5        1.0  0.9139905898303412  0.7881212892741727  0.6353344041494893  1.0000
  C   C6        1.0  0.8734956600271816  0.7881879183377263  0.1354069092014996  1.0000
  C   C7        1.0  0.08601160231118138  0.21188390289280784  0.3646623794840025  1.0000
  C   C8        1.0  0.1265155895563552  0.21180211348567465  0.8645938065568258  1.0000
  C   C9        1.0  0.1293087986336089  0.8424174173208385  0.6802605795862463  1.0000
  C   C10       1.0  0.7123066282386574  0.8425208815280598  0.1802866756895938  1.0000
  C   C11       1.0  0.8707019447030293  0.15759010048258665  0.3197362470354861  1.0000
  C   C12       1.0  0.28770567142591125  0.15747495097436828  0.8197167793696706  1.0000
  C   C13       1.0  0.2511269490695014  0.7371537545278387  0.7057039749754068  1.0000
  C   C14       1.0  0.48526827924871446  0.7373528456022456  0.2056375854339692  1.0000
  C   C15       1.0  0.7488770853573216  0.26285142637744485  0.2942943878458451  1.0000
  C   C16       1.0  0.5147444053100826  0.2626511586853937  0.7943623351516322  1.0000
  C   C17       1.0  0.16407631660792518  0.5783749618997119  0.6849352433334346  1.0000
  C   C18       1.0  0.41377168904149636  0.5785636570007994  0.1848472421350991  1.0000
  C   C19       1.0  0.835921017168083  0.4216279001720053  0.3150620237273856  1.0000
  C   C20       1.0  0.5862207863690047  0.4214368749756545  0.8151505083530495  1.0000
  C   C21       1.0  0.9525347231007543  0.5272803682166864  0.6389352228822389  1.0000
  C   C22       1.0  0.5743642514784  0.5274133943203195  0.1389006072891874  1.0000
  C   C23       1.0  0.04746445791596427  0.472722493432073  0.361062044190362  1.0000
  C   C24       1.0  0.42561666656757774  0.47258249234022287  0.8610960044738575  1.0000
  C   C25       1.0  0.8264316319785794  0.6299152666053371  0.6147362755877168  1.0000
  C   C26       1.0  0.8030546763125058  0.6299956825225904  0.1147728907864831  1.0000
  C   C27       1.0  0.17356802295842033  0.37009224289706566  0.3852621301392887  1.0000
  C   C28       1.0  0.19693732187410257  0.37000019437439136  0.88522477383124  1.0000
  C   C29       1.0  0.4634153480275955  0.7921771089989065  0.7538729027493503  1.0000
  C   C30       1.0  0.32803109073336123  0.7924351869891308  0.2538063157639243  1.0000
  C   C31       1.0  0.5365996676030066  0.20783156439690492  0.24612499815047784  1.0000
  C   C32       1.0  0.6719852949140588  0.20756883090425762  0.7461914992772662  1.0000
  S   S1        1.0  0.6551907353075492  0.7638242549329916  0.4241631488663131  1.0000
  S   S2        1.0  0.10960117586093074  0.7634674276808368  0.924530252241908  1.0000
  S   S3        1.0  0.3447841000815828  0.23618904310520608  0.5758406279566229  1.0000
  S   S4        1.0  0.8904170678803852  0.23651440898804302  0.0754771563891623  1.0000
  N   N1        1.0  0.2565545347930254  0.83615646592024  0.4998517270207259  1.0000
  N   N2        1.0  0.580537049308205  0.8363693012271368  0.00021297502041759515  1.0000
  N   N3        1.0  0.7434234205685754  0.16385568205958378  0.5001499227872513  1.0000
  N   N4        1.0  0.4194932422359372  0.163621864740449  0.999791447070244  1.0000
  N   N5        1.0  0.7963082976056838  0.894427906643372  0.6083877720269584  1.0000
  N   N6        1.0  0.09747689868162007  0.8943932521397288  0.108544612222147  1.0000
  N   N7        1.0  0.2036833789933397  0.10557842282214118  0.3916132441423272  1.0000
  N   N8        1.0  0.9025337631785606  0.10559560156788449  0.891458187633603  1.0000
  N   N9        1.0  0.6372240860220373  0.8378919882193543  0.7933805771317283  1.0000
  N   N10       1.0  0.19996749072452497  0.8381933569241582  0.29334422859369613  1.0000
  N   N11       1.0  0.3627795734213635  0.16210504257819738  0.2066181618112353  1.0000
  N   N12       1.0  0.8000455688177012  0.1618187974711985  0.7066553158702008  1.0000
