data_image0
_chemical_formula_structural       Zn6H56C88N8O24
_chemical_formula_sum              "Zn6 H56 C88 N8 O24"
_cell_length_a       21.22629512706939
_cell_length_b       21.2264888610868
_cell_length_c       21.226352610610384
_cell_angle_alpha    62.54387250522543
_cell_angle_beta     85.53410796851271
_cell_angle_gamma    117.45568415682128

_space_group_name_H-M_alt    "P 1"
_space_group_IT_number       1

loop_
  _space_group_symop_operation_xyz
  'x, y, z'

loop_
  _atom_site_type_symbol
  _atom_site_label
  _atom_site_symmetry_multiplicity
  _atom_site_fract_x
  _atom_site_fract_y
  _atom_site_fract_z
  _atom_site_occupancy
  Zn  Zn1       1.0  0.5000130737729407  0.44160374515442413  0.05838060155544159  1.0000
  Zn  Zn2       1.0  0.04443628200099439  1.3583492304331858e-06  0.955562557362157  1.0000
  Zn  Zn3       1.0  0.9555524236871731  0.9999983498405669  0.044447055338629415  1.0000
  Zn  Zn4       1.0  0.05840836805756298  0.5583928640876505  0.49998661162850055  1.0000
  Zn  Zn5       1.0  0.5000145040691277  0.5583949473723208  0.9415919142241906  1.0000
  Zn  Zn6       1.0  0.9416213846571038  0.44160800799891575  0.4999863748450863  1.0000
  H   H1        1.0  0.6106654203702033  0.5307356674827304  0.26696572291304205  1.0000
  H   H2        1.0  0.07992680250090699  0.8776319577641728  0.38933407189945524  1.0000
  H   H3        1.0  0.2909447121947861  0.5584887163284121  0.9437426293676906  1.0000
  H   H4        1.0  0.9638243963230761  0.6541697029219408  0.4590056136099248  1.0000
  H   H5        1.0  0.963624922983868  0.6692558477574052  0.5573374617525245  1.0000
  H   H6        1.0  0.9746833645854025  0.769155690619222  0.49515843653661307  1.0000
  H   H7        1.0  0.05625704906807978  0.7653107795818314  0.5022325558127109  1.0000
  H   H8        1.0  0.5409919725465996  0.5771710374110199  0.11317474122848363  1.0000
  H   H9        1.0  0.4426623703186506  0.479037995251943  0.22659419270019027  1.0000
  H   H10       1.0  0.5048420891791209  0.5301570368233541  0.2643140404511541  1.0000
  H   H11       1.0  0.4977646098675805  0.44150806919819985  0.267544819511663  1.0000
  H   H12       1.0  0.8868237335549836  0.34582813954774133  0.69035000544757  1.0000
  H   H13       1.0  0.20229541336465928  0.46926221334467033  0.9200701824913082  1.0000
  H   H14       1.0  0.7734058474517977  0.33073999695753287  0.7056351059545775  1.0000
  H   H15       1.0  0.7356874106884985  0.2308440052633428  0.7944750746193633  1.0000
  H   H16       1.0  0.7324532798951607  0.2346870344915997  0.7090570608481314  1.0000
  H   H17       1.0  0.7330312502578804  0.12236664251782504  0.7977082559297201  1.0000
  H   H18       1.0  0.38932589074720164  0.1223635945421009  0.07993887012733578  1.0000
  H   H19       1.0  0.920058223022728  0.5307334751321306  0.20230300917988586  1.0000
  H   H20       1.0  0.7976998731093018  0.8776424721726811  0.7330371104918215  1.0000
  H   H21       1.0  0.2669616156533861  0.4692667097688881  0.6106773092869561  1.0000
  H   H22       1.0  0.8853344809491974  0.9972904153552876  0.7420354302600884  1.0000
  H   H23       1.0  0.8880451490142888  0.627367176010857  0.11466517134802955  1.0000
  H   H24       1.0  0.2606814282300718  0.002715127757014113  0.11194975980868795  1.0000
  H   H25       1.0  0.25796493303300144  0.3726337416628027  0.7393256487059928  1.0000
  H   H26       1.0  0.11465693629489247  0.3726348403013731  0.8880551300197581  1.0000
  H   H27       1.0  0.11194100462810035  0.9972863520567469  0.26069055942483743  1.0000
  H   H28       1.0  0.7393062182343613  0.6273590038127426  0.2579825752949174  1.0000
  H   H29       1.0  0.7420213782458872  0.0027135941104318934  0.8853472637252793  1.0000
  H   H30       1.0  0.9016794750508479  0.9665097151824538  0.8648430963937057  1.0000
  H   H31       1.0  0.9351711322324618  0.7665187858464506  0.09831824532299281  1.0000
  H   H32       1.0  0.16865251663836034  0.03349151447815762  0.06482765155981697  1.0000
  H   H33       1.0  0.1351602856516719  0.23348126966601496  0.831349735773493  1.0000
  H   H34       1.0  0.09830817564712666  0.2334821325976009  0.935184234984888  1.0000
  H   H35       1.0  0.0648159093638298  0.9665050208266804  0.1686647378872905  1.0000
  H   H36       1.0  0.8313327938822251  0.7665134455371498  0.1351765981609602  1.0000
  H   H37       1.0  0.864827977548977  0.03349170657254773  0.9016910925913494  1.0000
  H   H38       1.0  0.6903494795276472  0.6541809249678893  0.8868223722066516  1.0000
  H   H39       1.0  0.7056326119582649  0.6692686468569635  0.7734063038711836  1.0000
  H   H40       1.0  0.794477513284441  0.769173787391189  0.7356841263464915  1.0000
  H   H41       1.0  0.7090519417823061  0.7653209182673635  0.7324570009968452  1.0000
  H   H42       1.0  0.036167316261106905  0.5771646736219083  0.309658952287812  1.0000
  H   H43       1.0  0.03636492894277397  0.4790372413717136  0.29436877403986733  1.0000
  H   H44       1.0  0.025307630813600185  0.5301634759043949  0.20552196645245857  1.0000
  H   H45       1.0  0.9437348298260276  0.44151263601270346  0.2909463981825979  1.0000
  H   H46       1.0  0.45900086158752623  0.3458243414241052  0.9638314743608732  1.0000
  H   H47       1.0  0.5573281232507696  0.3307345511212958  0.9636341563896096  1.0000
  H   H48       1.0  0.49514724784383896  0.23083067220186138  0.9746890460898571  1.0000
  H   H49       1.0  0.5022245851752557  0.23468258853700513  0.056263121912628784  1.0000
  H   H50       1.0  0.1131757614592743  0.4228305984192104  0.5409993346226543  1.0000
  H   H51       1.0  0.22659276893593014  0.5209595822826428  0.44267279274169613  1.0000
  H   H52       1.0  0.2643134612485412  0.46983802566160904  0.5048562225509485  1.0000
  H   H53       1.0  0.26754162471546994  0.5584890971341281  0.4977754156617848  1.0000
  H   H54       1.0  0.30965656580652723  0.4228312507540081  0.03617487601310639  1.0000
  H   H55       1.0  0.29436713080659865  0.5209600650587162  0.036374414114021564  1.0000
  H   H56       1.0  0.20552564016065844  0.46983738267452685  0.02531668487564074  1.0000
  C   C1        1.0  0.6184248951718486  0.6184262060949307  0.999993631063383  1.0000
  C   C2        1.0  0.9733028516147613  0.7358046923728025  0.19429882339212384  1.0000
  C   C3        1.0  0.1468775326535335  0.39544643891019143  0.6330434454941952  1.0000
  C   C4        1.0  0.248569659683632  0.3954508893098278  0.9715125792273085  1.0000
  C   C5        1.0  0.02848851504474937  0.7799189049809243  0.3669631484362341  1.0000
  C   C6        1.0  0.6330324984664131  0.604545024575998  0.14688483891618634  1.0000
  C   C7        1.0  0.8531179885485967  0.22008191699416088  0.7514332649201805  1.0000
  C   C8        1.0  0.7514261787692503  0.779923306326161  0.8531267479972227  1.0000
  C   C9        1.0  0.9715073639362827  0.6045529208510418  0.24857425893926421  1.0000
  C   C10       1.0  0.36695656585804665  0.22008191657379683  0.028490670083286266  1.0000
  C   C11       1.0  0.23749673857293627  0.16760195149672802  0.02669802585349861  1.0000
  C   C12       1.0  0.7979907881595949  0.8646523428768588  0.788895737201841  1.0000
  C   C13       1.0  0.9333411744530193  0.5868859465854541  0.20200962926544727  1.0000
  C   C14       1.0  0.34645739545224064  0.13535262091747308  0.06665760042410082  1.0000
  C   C15       1.0  0.21110511315627906  0.4131102371661656  0.6535425543891051  1.0000
  C   C16       1.0  0.20200796560712297  0.4131163656615653  0.9333499481788367  1.0000
  C   C17       1.0  0.06664460461213643  0.8646410134367385  0.34646830012896856  1.0000
  C   C18       1.0  0.6535297945163379  0.5868819971902752  0.21111189964577884  1.0000
  C   C19       1.0  0.06989431516003448  0.264194126590702  0.7625003390073247  1.0000
  C   C20       1.0  0.7888887435334907  0.13535812971005595  0.7979973370361008  1.0000
  C   C21       1.0  0.8491162664119329  0.9324783547607608  0.7937177589666219  1.0000
  C   C22       1.0  0.19429188500809164  0.26419453194268533  0.9733130417323749  1.0000
  C   C23       1.0  0.9166410093394292  0.6428332501381037  0.15088168042569805  1.0000
  C   C24       1.0  0.2738111340207253  0.0675269059137236  0.08335691791149456  1.0000
  C   C25       1.0  0.20628123914774923  0.3571680376809211  0.7261963639081372  1.0000
  C   C26       1.0  0.150868877083937  0.35716221288924277  0.916659749909101  1.0000
  C   C27       1.0  0.08334282062870808  0.9324706984843658  0.2738193819439089  1.0000
  C   C28       1.0  0.726177248903255  0.6428316063189925  0.2062960288192457  1.0000
  C   C29       1.0  0.7937062618907402  0.0675288878380087  0.8491310954589932  1.0000
  C   C30       1.0  0.02668835701780378  0.8323957815678539  0.23750419268662173  1.0000
  C   C31       1.0  0.8567511002593091  0.9160256252537735  0.8621911241886623  1.0000
  C   C32       1.0  0.9407315833941752  0.7189422729918958  0.14324391835728514  1.0000
  C   C33       1.0  0.22178998976620073  0.08397813969074258  0.0592662577692025  1.0000
  C   C34       1.0  0.1378109798952705  0.2810595307060024  0.7782136400298255  1.0000
  C   C35       1.0  0.14323458407053363  0.28105987366973273  0.9407436798315418  1.0000
  C   C36       1.0  0.7624920537238892  0.7358045692209033  0.06990342066382019  1.0000
  C   C37       1.0  0.05925610755589616  0.9160205382348393  0.2218011778087217  1.0000
  C   C38       1.0  0.7781948453166903  0.718934714224879  0.13782830271926358  1.0000
  C   C39       1.0  0.8621742134762158  0.08397601770990823  0.8567638956860789  1.0000
  C   C40       1.0  0.9300978656031376  0.1676026506809197  0.805703335667779  1.0000
  C   C41       1.0  0.7323323590159841  0.7308712910979336  0.7671365938478302  1.0000
  C   C42       1.0  0.0014641566957394544  0.4994698735159134  0.267666918704009  1.0000
  C   C43       1.0  0.5019980002528683  0.26913342789323025  0.9985347607951808  1.0000
  C   C44       1.0  0.23286123755261912  0.5005305463121204  0.49800492820856596  1.0000
  C   C45       1.0  0.26766671363233735  0.5005294403526293  0.0014712054354859942  1.0000
  C   C46       1.0  0.9985272869042774  0.7308594464133337  0.5020043634419125  1.0000
  C   C47       1.0  0.4979965182142436  0.4994675536386737  0.23286285142873436  1.0000
  C   C48       1.0  0.7671364801666128  0.26913804087359244  0.732334326048928  1.0000
  C   C49       1.0  0.8056979490059175  0.8323990291370434  0.930107060034331  1.0000
  C   C50       1.0  9.50151420649999e-06  0.6184285408060858  0.3815753167832839  1.0000
  C   C51       1.0  0.7448676414614254  0.7635654313849329  0.9288971199388029  1.0000
  C   C52       1.0  0.981309164635128  0.673766109374199  0.25512881412552696  1.0000
  C   C53       1.0  0.3075387490883017  0.23643700884177582  0.018691328951440784  1.0000
  C   C54       1.0  0.07110218957724605  0.32623268751284207  0.6924580016620538  1.0000
  C   C55       1.0  0.2551268516460964  0.32623155118394437  0.9813161530556584  1.0000
  C   C56       1.0  0.38158226573971626  0.3815782375699682  0.9999921057870225  1.0000
  C   C57       1.0  0.018683723230829122  0.7635570625128237  0.3075458349539559  1.0000
  C   C58       1.0  0.6924493841484461  0.673768263915477  0.07110609899334712  1.0000
  C   C59       1.0  0.9288943165731424  0.23643993833314153  0.7448727561361962  1.0000
  C   C60       1.0  0.9999979867897508  0.381572041409015  0.6184188337448404  1.0000
  C   C61       1.0  0.8145589399968285  0.8145669106981898  1.2474919706996839e-05  1.0000
  C   C62       1.0  0.9999962853903099  0.8145752897085501  0.18543119429777002  1.0000
  C   C63       1.0  0.185418202431535  0.18542912555697202  1.0874524363682476e-05  1.0000
  C   C64       1.0  0.9999928664892083  0.18542732965561715  0.8145737665506588  1.0000
  C   C65       1.0  0.6866870372535914  0.6866912233771814  8.568026402027622e-06  1.0000
  C   C66       1.0  1.2041566465147556e-06  0.6866984481335265  0.3133087083294939  1.0000
  C   C67       1.0  0.31330275968834087  0.3133084111376902  0.9999990923467762  1.0000
  C   C68       1.0  0.9999942537546997  0.313302232817726  0.6866956670307403  1.0000
  C   C69       1.0  0.9999965859049451  0.882764031617789  0.11723717340421286  1.0000
  C   C70       1.0  0.11722728356355819  0.11723633797633677  8.495963122399917e-06  1.0000
  C   C71       1.0  0.9999974315888166  0.11723368803159681  0.8827648622039772  1.0000
  C   C72       1.0  0.8827537326742884  0.8827669161606693  5.6261720044983765e-06  1.0000
  C   C73       1.0  0.5899743085290865  0.5000001130963553  0.910029888648431  1.0000
  C   C74       1.0  0.08997625366408371  0.5000020438671059  0.4100240367995482  1.0000
  C   C75       1.0  0.41006866388035224  0.500001842954255  0.08993221280300638  1.0000
  C   C76       1.0  0.9100675976635981  0.5000007506072348  0.5899340110483422  1.0000
  C   C77       1.0  0.6395506276029506  0.500000787209423  0.8604546468529434  1.0000
  C   C78       1.0  0.13955920224925927  0.5000041806194133  0.3604475501525641  1.0000
  C   C79       1.0  0.3605058586464621  0.5000060219305665  0.13950044598907846  1.0000
  C   C80       1.0  0.8604936896715072  0.49999559219675377  0.6395069664653334  1.0000
  C   C81       1.0  0.6822731681208578  0.499996446279894  0.8177272709938777  1.0000
  C   C82       1.0  0.18227588236791087  0.4999980584433458  0.31772719655543813  1.0000
  C   C83       1.0  0.3177739015805868  0.5000049341689135  0.1822257015286155  1.0000
  C   C84       1.0  0.8177719640805208  0.5000006764884762  0.6822271780283343  1.0000
  C   C85       1.0  0.7285444795552962  0.5000010412751195  0.7714561535922186  1.0000
  C   C86       1.0  0.22854734135673738  0.4999976407726762  0.27145549601545577  1.0000
  C   C87       1.0  0.27150572065495027  0.5000045818451965  0.2284934912607426  1.0000
  C   C88       1.0  0.7714961085627648  0.4999944440995208  0.7285026111878136  1.0000
  N   N1        1.0  0.7158218880261058  0.7153841432694036  0.8421127360172705  1.0000
  N   N2        1.0  0.000442034387205643  0.5579357495721594  0.2841779061892283  1.0000
  N   N3        1.0  0.4425092619812997  0.2846196422036867  0.9995551536133718  1.0000
  N   N4        1.0  0.15788706465012578  0.4420666639423557  0.557491794567916  1.0000
  N   N5        1.0  0.28417686817329  0.4420649000005382  0.00044847591918535114  1.0000
  N   N6        1.0  0.9995493641350135  0.7153768126488629  0.44251164868501297  1.0000
  N   N7        1.0  0.5574829657561651  0.5579349990560304  0.15788874806074188  1.0000
  N   N8        1.0  0.8421098838307515  0.28462471963028707  0.7158272310016895  1.0000
  O   O1        1.0  0.6017054564888581  0.541471320218065  0.03847836324592175  1.0000
  O   O2        1.0  0.06024718167041229  0.6401948965722467  0.3982933294633995  1.0000
  O   O3        1.0  0.4200541462915622  0.4585339875930075  0.9397564210913529  1.0000
  O   O4        1.0  0.9615149261173311  0.3598049557509167  0.5799472084353711  1.0000
  O   O5        1.0  0.3983099216779492  0.35982252194382613  0.0602255208286734  1.0000
  O   O6        1.0  0.9397778177173206  0.5414680436180531  0.42005100592835726  1.0000
  O   O7        1.0  0.5799507955318292  0.6401859223210451  0.961507878579965  1.0000
  O   O8        1.0  0.038481853621838924  0.45853197771512544  0.6016892183343997  1.0000
  O   O9        1.0  0.5617194071142817  0.4403033542775744  0.9812201471984352  1.0000
  O   O10       1.0  0.12141879611332478  0.5429419673825321  0.43827663562895935  1.0000
  O   O11       1.0  0.5784847752705672  0.5596994954045441  0.8785863398755607  1.0000
  O   O12       1.0  0.018783917352223574  0.4570651396203829  0.4215209338237642  1.0000
  O   O13       1.0  0.4383318105129632  0.4570743608220695  0.1213872362538879  1.0000
  O   O14       1.0  0.8786124775346591  0.4402796943703676  0.5784650441758076  1.0000
  O   O15       1.0  0.42153878693023467  0.5429225036248297  0.0187399325342668  1.0000
  O   O16       1.0  0.9812595434447005  0.5597214093623534  0.5616661697071094  1.0000
  O   O17       1.0  0.9483289291949858  0.8955824416983302  0.12878631312796773  1.0000
  O   O18       1.0  0.052739318961222595  0.07711256224250458  0.05167885674327269  1.0000
  O   O19       1.0  0.9756335853091117  0.10441508076490226  0.9472508373699353  1.0000
  O   O20       1.0  0.8712051225715169  0.9228831920655337  0.024376375430584348  1.0000
  O   O21       1.0  0.05166827894884561  0.9228843724193396  0.05275250423971296  1.0000
  O   O22       1.0  0.9472379127125164  0.895579333024578  0.9756426449890436  1.0000
  O   O23       1.0  0.02436669982656527  0.07711795871834677  0.8712123112646425  1.0000
  O   O24       1.0  0.12877936175243576  0.10442085227791134  0.9483405292024258  1.0000
