data_image0
_chemical_formula_structural       Ag4H40C32S4N8O12
_chemical_formula_sum              "Ag4 H40 C32 S4 N8 O12"
_cell_length_a       7.121164023224248
_cell_length_b       9.338894767098784
_cell_length_c       15.815011770009981
_cell_angle_alpha    90.0001181107627
_cell_angle_beta     90.00001802357639
_cell_angle_gamma    104.64353481018821

_space_group_name_H-M_alt    "P 1"
_space_group_IT_number       1

loop_
  _space_group_symop_operation_xyz
  'x, y, z'

loop_
  _atom_site_type_symbol
  _atom_site_label
  _atom_site_symmetry_multiplicity
  _atom_site_fract_x
  _atom_site_fract_y
  _atom_site_fract_z
  _atom_site_occupancy
  Ag  Ag1       1.0  0.29564974241175435  9.851242916170014e-05  0.023776165117823198  1.0000
  Ag  Ag2       1.0  0.7043504041081621  0.4999023796138716  0.5237767567165645  1.0000
  Ag  Ag3       1.0  0.7043497918068411  0.9999020739933827  0.9762212373504436  1.0000
  Ag  Ag4       1.0  0.29564631278602604  0.5000981796416399  0.4762219103727431  1.0000
  H   H1        1.0  0.17006612571076124  0.032254423769508406  0.20778994960782166  1.0000
  H   H2        1.0  0.8299382636017116  0.46774611890977996  0.7077905200177167  1.0000
  H   H3        1.0  0.829935876174659  0.9677450831655324  0.7922074528599622  1.0000
  H   H4        1.0  0.17005635534010824  0.5322478004050099  0.2922087793780434  1.0000
  H   H5        1.0  0.2802462968234282  0.9962434226270889  0.3542064926375587  1.0000
  H   H6        1.0  0.7197555490869192  0.503757516884207  0.854206485768408  1.0000
  H   H7        1.0  0.7197504300982658  0.0037527235852011023  0.6457921744490773  1.0000
  H   H8        1.0  0.2802453937970242  0.4962430831280004  0.14579344594248056  1.0000
  H   H9        1.0  0.5445633005013945  0.8597366259015828  0.37348557967819557  1.0000
  H   H10       1.0  0.4554399924667863  0.6402644022675902  0.8734863330410004  1.0000
  H   H11       1.0  0.455438701384658  0.14026288103468693  0.6265124551002186  1.0000
  H   H12       1.0  0.5445669246998293  0.3597417717838097  0.12651359867367518  1.0000
  H   H13       1.0  0.683171499907232  0.7695732450034074  0.24830320630404396  1.0000
  H   H14       1.0  0.3168301350978737  0.7304272821282539  0.7483040492406585  1.0000
  H   H15       1.0  0.3168329596175283  0.23042959548735104  0.7516941961659354  1.0000
  H   H16       1.0  0.6831722164489024  0.26957333146869905  0.2516958824703365  1.0000
  H   H17       1.0  0.727726066771851  0.6320325278294519  0.15084572164801094  1.0000
  H   H18       1.0  0.27227537414712105  0.8679676198087026  0.6508467248004874  1.0000
  H   H19       1.0  0.2722780330690995  0.3679736190524637  0.8491542100664513  1.0000
  H   H20       1.0  0.7277259284256773  0.13202967382220274  0.3491557361509264  1.0000
  H   H21       1.0  0.8912114674134132  0.79592434331132  0.11068778451291188  1.0000
  H   H22       1.0  0.10878989353092551  0.7040756479537152  0.6106885661606112  1.0000
  H   H23       1.0  0.10879193310861272  0.20407959025414613  0.8893108825789038  1.0000
  H   H24       1.0  0.8912106996954493  0.29592384540396927  0.3893126301708277  1.0000
  H   H25       1.0  0.6798831960691344  0.5242995672507078  0.0052441174091696985  1.0000
  H   H26       1.0  0.32011407855576846  0.9757010793274576  0.505245890054361  1.0000
  H   H27       1.0  0.3201142201446104  0.47570320532247495  0.9947564466134008  1.0000
  H   H28       1.0  0.6798847463239568  0.024301706836631402  0.4947578355214544  1.0000
  H   H29       1.0  0.8401523664664623  0.6856115062315952  0.9637544203869479  1.0000
  H   H30       1.0  0.1598479392882624  0.8143887396145288  0.46375608702398796  1.0000
  H   H31       1.0  0.15984822675802235  0.3143879871223875  0.036244879012613786  1.0000
  H   H32       1.0  0.8401519445948368  0.18561295347608112  0.5362470062406144  1.0000
  H   H33       1.0  0.11128610279314445  0.6364065841102972  0.049834058177673085  1.0000
  H   H34       1.0  0.888711620318773  0.8635909297121884  0.5498357754207885  1.0000
  H   H35       1.0  0.8887127321096744  0.3635917890019585  0.9501652412210856  1.0000
  H   H36       1.0  0.11128686492961751  0.13640633675168348  0.450167950151659  1.0000
  H   H37       1.0  0.9499304776547607  0.4775342030987703  0.09436386480206237  1.0000
  H   H38       1.0  0.050067701461074414  0.022464736912347412  0.5943656829147272  1.0000
  H   H39       1.0  0.050067298245316645  0.5224652630881862  0.9056366992185398  1.0000
  H   H40       1.0  0.9499297247839423  0.9775336226250034  0.4056386749689337  1.0000
  C   C1        1.0  0.28152392376543395  0.9731162866293704  0.2194010147173272  1.0000
  C   C2        1.0  0.7184797616613566  0.5268863548571903  0.7194016679776991  1.0000
  C   C3        1.0  0.7184798364416596  0.02688434054740441  0.7805963877512664  1.0000
  C   C4        1.0  0.281517314919796  0.47311089801332423  0.2805976314202566  1.0000
  C   C5        1.0  0.3445159844420474  0.9529115539476152  0.300749033653524  1.0000
  C   C6        1.0  0.6554871636720634  0.5470891909907111  0.8007503347854904  1.0000
  C   C7        1.0  0.6554856677845464  0.04708684633042991  0.6992483688135707  1.0000
  C   C8        1.0  0.3445120208908463  0.4529102887809913  0.19925022923521135  1.0000
  C   C9        1.0  0.49008742301926134  0.8790526324009916  0.3112055200575128  1.0000
  C   C10       1.0  0.5099143372561415  0.620948139669679  0.8112068900414611  1.0000
  C   C11       1.0  0.509915637870165  0.1209457814617991  0.6887918824096884  1.0000
  C   C12       1.0  0.49008695528726787  0.3790535670007528  0.18879367398074004  1.0000
  C   C13       1.0  0.5683390113395461  0.826297809989363  0.24049040242880435  1.0000
  C   C14       1.0  0.43166119944349657  0.6737026731348479  0.7404911929143194  1.0000
  C   C15       1.0  0.4316650985263807  0.17370392384440694  0.7595070000404787  1.0000
  C   C16       1.0  0.5683362267964897  0.3262956863926549  0.2595081064843327  1.0000
  C   C17       1.0  0.49461804825570255  0.8486464717119591  0.16122331830430164  1.0000
  C   C18       1.0  0.5053823543259953  0.6513548094077565  0.6612240921482238  1.0000
  C   C19       1.0  0.5053853522656909  0.1513574618522782  0.8387747164768908  1.0000
  C   C20       1.0  0.494612963934749  0.34864132322347535  0.338776471870183  1.0000
  C   C21       1.0  0.7676370045013597  0.7029139098291993  0.09499693128874746  1.0000
  C   C22       1.0  0.23236256687377488  0.7970849000963087  0.5949984753026027  1.0000
  C   C23       1.0  0.23236710536582456  0.29708782400702916  0.9050017358017965  1.0000
  C   C24       1.0  0.7676352090281855  0.20291456609434283  0.405003985649877  1.0000
  C   C25       1.0  0.8097497348334884  0.6138357525744383  0.01986257015224169  1.0000
  C   C26       1.0  0.19024651992613437  0.8861616309534527  0.5198629514349518  1.0000
  C   C27       1.0  0.19024804106722126  0.3861637136137476  0.9801386261789842  1.0000
  C   C28       1.0  0.8097519653216242  0.11383563550919014  0.4801401418268723  1.0000
  C   C29       1.0  0.9804366750930317  0.5466876107406267  0.037072772193596386  1.0000
  C   C30       1.0  0.019562081608178492  0.9533087603166378  0.5370738429665776  1.0000
  C   C31       1.0  0.01956040149001135  0.4533096421335758  0.9629284241362367  1.0000
  C   C32       1.0  0.9804349949767543  0.04668849256125901  0.4629292502951328  1.0000
  S   S1        1.0  0.562943160236621  0.7760934108170617  0.06616106731798507  1.0000
  S   S2        1.0  0.43705952069641535  0.7239064206496194  0.5661625516546563  1.0000
  S   S3        1.0  0.4370627079516042  0.2239094432596715  0.9338369674627243  1.0000
  S   S4        1.0  0.5629393142076609  0.2760919524650945  0.43383801236535635  1.0000
  N   N1        1.0  0.355227715652383  0.9221468568096399  0.15062392991827514  1.0000
  N   N2        1.0  0.6447754831468872  0.5778544102072588  0.6506252667818584  1.0000
  N   N3        1.0  0.6447781525352099  0.07785599726586415  0.8493734725518107  1.0000
  N   N4        1.0  0.3552226524395223  0.42214174959347167  0.3493752972367615  1.0000
  N   N5        1.0  0.10801925998706713  0.8554923689501523  0.8665632697335606  1.0000
  N   N6        1.0  0.8919829601909016  0.644509725335311  0.366563569508905  1.0000
  N   N7        1.0  0.8919785058836213  0.14451151027633813  0.13343539735782875  1.0000
  N   N8        1.0  0.10802185902459632  0.3554898087778327  0.6334382591334842  1.0000
  O   O1        1.0  0.03239594061058432  0.941714158771781  0.9115092205344548  1.0000
  O   O2        1.0  0.9676063690776576  0.5582881105316632  0.41151005892096026  1.0000
  O   O3        1.0  0.9676060512498666  0.05828976121140531  0.08849071117851537  1.0000
  O   O4        1.0  0.03240301575957011  0.44171698403962273  0.5884936666569942  1.0000
  O   O5        1.0  0.2493533786033595  0.8129369504030421  0.89777410647941  1.0000
  O   O6        1.0  0.7506471454086354  0.6870641451727054  0.39777380549732994  1.0000
  O   O7        1.0  0.7506429886301121  0.18706250219178605  0.10222266367731686  1.0000
  O   O8        1.0  0.24935380750343947  0.31293204179750944  0.6022267585215102  1.0000
  O   O9        1.0  0.04314300962515465  0.8157474052249541  0.794313531980421  1.0000
  O   O10       1.0  0.9568594163259336  0.6842555143800696  0.29431325672608466  1.0000
  O   O11       1.0  0.9568512295747099  0.18425864656127544  0.20568513511203423  1.0000
  O   O12       1.0  0.043139778263842715  0.3157395523471821  0.7056866749813293  1.0000
