data_image0
_chemical_formula_structural       Al4H12C60I8N8O20
_chemical_formula_sum              "Al4 H12 C60 I8 N8 O20"
_cell_length_a       6.691950615454538
_cell_length_b       20.28202501279401
_cell_length_c       20.209726809993537
_cell_angle_alpha    100.80585037054426
_cell_angle_beta     90.05206960003282
_cell_angle_gamma    89.90901279170679

_space_group_name_H-M_alt    "P 1"
_space_group_IT_number       1

loop_
  _space_group_symop_operation_xyz
  'x, y, z'

loop_
  _atom_site_type_symbol
  _atom_site_label
  _atom_site_symmetry_multiplicity
  _atom_site_fract_x
  _atom_site_fract_y
  _atom_site_fract_z
  _atom_site_occupancy
  Al  Al1       1.0  0.7227531608792717  0.7496325739965783  0.24825741486846198  1.0000
  Al  Al2       1.0  0.2772553103371465  0.25037228365943065  0.7517556002224525  1.0000
  Al  Al3       1.0  0.22274930101127668  0.7504649533256895  0.25168037512390384  1.0000
  Al  Al4       1.0  0.7772606547932028  0.2495394557068309  0.7483255720323784  1.0000
  H   H1        1.0  0.9331447786350752  0.386834001438217  0.43651721879525957  1.0000
  H   H2        1.0  0.06685922244695061  0.6131545647632424  0.563473833656559  1.0000
  H   H3        1.0  0.4349637470698085  0.11336287794611621  0.0633382994490148  1.0000
  H   H4        1.0  0.5650417455983359  0.8866187919291378  0.9366382130602988  1.0000
  H   H5        1.0  0.6535945532474159  0.4932853040843169  0.4582524302607923  1.0000
  H   H6        1.0  0.3464109450777499  0.5067030770877992  0.5417401416679368  1.0000
  H   H7        1.0  0.15360489498107907  0.007685924768395602  0.041608531027947  1.0000
  H   H8        1.0  0.8463961242478106  0.9922922037393461  0.9583675355692877  1.0000
  H   H9        1.0  0.4755488102108957  0.6725974422476853  0.2729371865598367  1.0000
  H   H10       1.0  0.5244536686475669  0.3273979648071474  0.7270486960124174  1.0000
  H   H11       1.0  0.9747154118595703  0.8275083899050982  0.2270127316406914  1.0000
  H   H12       1.0  0.025288576919052702  0.17249816706107876  0.7730037921323502  1.0000
  C   C1        1.0  0.46923780247414026  0.8213433740398912  0.1677323296963635  1.0000
  C   C2        1.0  0.530775123510324  0.17867141354849286  0.8322810232530815  1.0000
  C   C3        1.0  0.9705884801864004  0.6787681609291456  0.33221301073857756  1.0000
  C   C4        1.0  0.029425982215613503  0.32122060772874766  0.6677790500427037  1.0000
  C   C5        1.0  0.4769106979674334  0.8401408360423234  0.34665512189478426  1.0000
  C   C6        1.0  0.52310082925937  0.15984800470736366  0.6533713048765294  1.0000
  C   C7        1.0  0.9770623648754792  0.6599758681219896  0.15325502074632166  1.0000
  C   C8        1.0  0.0229385518009551  0.3400457265594099  0.8467359782093027  1.0000
  C   C9        1.0  0.0142156172593886  0.3936816323467555  0.9094791182971776  1.0000
  C   C10       1.0  0.9857792937371244  0.6063474999294274  0.0905077093974924  1.0000
  C   C11       1.0  0.5145223310199398  0.10622421294525713  0.5906213419859939  1.0000
  C   C12       1.0  0.4854652806634192  0.893767293972111  0.4094060483379138  1.0000
  C   C13       1.0  0.0293090144271204  0.5814140416530337  0.9680722470768615  1.0000
  C   C14       1.0  0.9706664860992762  0.4186112848533909  0.0319176756557553  1.0000
  C   C15       1.0  0.5279568521188124  0.9185196104867259  0.5319262290236608  1.0000
  C   C16       1.0  0.47200981254502494  0.08148064390738341  0.4681005060538936  1.0000
  C   C17       1.0  0.006142391454474701  0.6280462471200039  0.0283787181192992  1.0000
  C   C18       1.0  0.9938570006901273  0.37198486972399536  0.9716106034349749  1.0000
  C   C19       1.0  0.5048067044434817  0.8719933520452089  0.47155008585390595  1.0000
  C   C20       1.0  0.4951868807581334  0.12799973024173283  0.5284777837692474  1.0000
  C   C21       1.0  0.991424701716454  0.5385950260537058  0.09296263038255151  1.0000
  C   C22       1.0  0.0085492914397989  0.46143232925356165  0.9070227092636999  1.0000
  C   C23       1.0  0.4919479955498005  0.9615091196572224  0.4070059765364534  1.0000
  C   C24       1.0  0.5080007654864644  0.03848439982564862  0.5930264302769714  1.0000
  C   C25       1.0  0.9905081384009264  0.4889624140554433  0.03218566663249331  1.0000
  C   C26       1.0  0.0094613813893432  0.5110629961092599  0.9678022325284273  1.0000
  C   C27       1.0  0.49095067876633186  0.011088832008375998  0.4678180087532198  1.0000
  C   C28       1.0  0.5089876031873928  0.9889094818142469  0.5322112836005318  1.0000
  C   C29       1.0  0.12524504109326529  0.48629362168429685  0.44739760631809833  1.0000
  C   C30       1.0  0.8747664335860178  0.5136945538887759  0.5525939588201184  1.0000
  C   C31       1.0  0.6253740718584241  0.0133645725657203  0.05263863992870909  1.0000
  C   C32       1.0  0.3746209638351203  0.986616218681391  0.9473383918999686  1.0000
  C   C33       1.0  0.9613650261437955  0.4375169975740505  0.46432199304953764  1.0000
  C   C34       1.0  0.03864196262433239  0.5624713635997481  0.5356680523319568  1.0000
  C   C35       1.0  0.46233314704556255  0.0625698577045313  0.035624813282360904  1.0000
  C   C36       1.0  0.5376693598270564  0.9374108298859767  0.9643517155707786  1.0000
  C   C37       1.0  0.035122484749116695  0.36611997248876094  0.6210051512403397  1.0000
  C   C38       1.0  0.9648830169395097  0.6338675280553545  0.3789879409870807  1.0000
  C   C39       1.0  0.5368629427976117  0.13375794607269145  0.8790365150047633  1.0000
  C   C40       1.0  0.46315747550663394  0.8662405872008491  0.12095992979910619  1.0000
  C   C41       1.0  0.1932612776622449  0.5036421408285676  0.5227005828421909  1.0000
  C   C42       1.0  0.8067457144693365  0.4963453397172445  0.47728998283799484  1.0000
  C   C43       1.0  0.6932644346901427  0.9957992748183812  0.9773516478858253  1.0000
  C   C44       1.0  0.3067365773941475  0.004182108942160299  0.022625879865728397  1.0000
  C   C45       1.0  0.0305943060362495  0.45336541643286676  0.5405365016636666  1.0000
  C   C46       1.0  0.9694156757086388  0.5466214698853521  0.4594535689330783  1.0000
  C   C47       1.0  0.5314014571321337  0.04649943991816496  0.9594498989064277  1.0000
  C   C48       1.0  0.468596568138075  0.9534799589888789  0.040525135125427915  1.0000
  C   C49       1.0  0.045241025882973  0.40570007416329196  0.5827391228435204  1.0000
  C   C50       1.0  0.9547689468267394  0.5942912547201402  0.41725339963404917  1.0000
  C   C51       1.0  0.5466295677543654  0.09413666206272354  0.9172757239146279  1.0000
  C   C52       1.0  0.45337293495605724  0.9058486922618983  0.08270679085661209  1.0000
  C   C53       1.0  0.9842891045917312  0.30157508979878866  0.9713728357064186  1.0000
  C   C54       1.0  0.0157506393341578  0.6984538491629733  0.02861551552239661  1.0000
  C   C55       1.0  0.486535883653879  0.1984296872213989  0.5287620822215474  1.0000
  C   C56       1.0  0.5134950823502963  0.8015546247335551  0.47126391749977614  1.0000
  C   C57       1.0  0.09161532831448942  0.6099696860262612  0.912042412267418  1.0000
  C   C58       1.0  0.9083781118555693  0.3900524840271801  0.0879465546647964  1.0000
  C   C59       1.0  0.5890472988282269  0.8897493990657352  0.5880203762852504  1.0000
  C   C60       1.0  0.41092830031550426  0.11026326125662682  0.41200918219861654  1.0000
  I   I1        1.0  0.9682786863206518  0.48391057529028814  0.8100353764117114  1.0000
  I   I2        1.0  0.031674405285024  0.5161096995674798  0.1899490702911137  1.0000
  I   I3        1.0  0.4665164907243807  0.01597859470006574  0.689917810844591  1.0000
  I   I4        1.0  0.5333725188763125  0.984005272680214  0.31011071058474465  1.0000
  I   I5        1.0  0.31167950731813937  0.4661620709656944  0.3613065994971478  1.0000
  I   I6        1.0  0.6883200174154992  0.5338231386119007  0.6386824877055731  1.0000
  I   I7        1.0  0.8121136056508292  0.03293725875899161  0.13878243282385233  1.0000
  I   I8        1.0  0.18790083998523244  0.9670464379172754  0.8611894975784224  1.0000
  N   N1        1.0  0.9788197810844322  0.24364728367005747  0.9691604666658764  1.0000
  N   N2        1.0  0.0212498384493287  0.7563840870055714  0.030825319114825306  1.0000
  N   N3        1.0  0.48182127700943067  0.2563779692911581  0.5309797546744762  1.0000
  N   N4        1.0  0.5182216003229456  0.7436154964328949  0.46903547781801086  1.0000
  N   N5        1.0  0.15534785257091946  0.6420843233865554  0.8744796132299584  1.0000
  N   N6        1.0  0.8446725067739321  0.3579327622127337  0.1255134853628164  1.0000
  N   N7        1.0  0.6515942157315918  0.8573746205838829  0.6256348732399887  1.0000
  N   N8        1.0  0.34837394988326054  0.14262147793111524  0.37438839443469624  1.0000
  O   O1        1.0  0.3040571396233602  0.8211504052345192  0.32606981307075245  1.0000
  O   O2        1.0  0.6959588310427451  0.1788452160879075  0.673943864319199  1.0000
  O   O3        1.0  0.8041298855462531  0.6790489694019328  0.17375107053918984  1.0000
  O   O4        1.0  0.1958770249024369  0.32097051310602615  0.8262465349345973  1.0000
  O   O5        1.0  0.6408751141413235  0.8028319323385702  0.18488583446441004  1.0000
  O   O6        1.0  0.3591333296251663  0.1971893432348537  0.8151400434474638  1.0000
  O   O7        1.0  0.1419825846080158  0.697358157061231  0.315179223307645  1.0000
  O   O8        1.0  0.858033373109926  0.3026308157672375  0.6848138449636707  1.0000
  O   O9        1.0  0.6453192505072424  0.8195736490940675  0.3230180822413899  1.0000
  O   O10       1.0  0.35469979804268803  0.18040576691335994  0.6770226559266065  1.0000
  O   O11       1.0  0.1453766681629389  0.6804437117089608  0.17701067852203783  1.0000
  O   O12       1.0  0.8546272708526956  0.31956987423358646  0.8229870264136921  1.0000
  O   O13       1.0  0.8026331536490119  0.695405601708366  0.3105969762527537  1.0000
  O   O14       1.0  0.19737832299411198  0.30458298277725504  0.6893966035857274  1.0000
  O   O15       1.0  0.3014987420362091  0.8046236963610554  0.18922237414268042  1.0000
  O   O16       1.0  0.6985066993886305  0.19539631362086143  0.8107924060143149  1.0000
  O   O17       1.0  0.47264339457106525  0.7098419718528177  0.24892801505085774  1.0000
  O   O18       1.0  0.5273665494869846  0.29016078181688704  0.7510673466172335  1.0000
  O   O19       1.0  0.9722741098710729  0.7902589459449344  0.2510164489383868  1.0000
  O   O20       1.0  0.0277328689751783  0.20974632090931786  0.748998580712886  1.0000
