data_image0
_chemical_formula_structural       Zn4P4H20C20N4Cl4O12
_chemical_formula_sum              "Zn4 P4 H20 C20 N4 Cl4 O12"
_cell_length_a       4.9344901627148605
_cell_length_b       8.287082959282241
_cell_length_c       20.88683163100307
_cell_angle_alpha    89.99994038758764
_cell_angle_beta     89.9999963215532
_cell_angle_gamma    103.78607452862529

_space_group_name_H-M_alt    "P 1"
_space_group_IT_number       1

loop_
  _space_group_symop_operation_xyz
  'x, y, z'

loop_
  _atom_site_type_symbol
  _atom_site_label
  _atom_site_symmetry_multiplicity
  _atom_site_fract_x
  _atom_site_fract_y
  _atom_site_fract_z
  _atom_site_occupancy
  Zn  Zn1       1.0  0.7002133086287331  0.6696715782724142  0.8208443143464877  1.0000
  Zn  Zn2       1.0  0.7997869827621571  0.8303284877314001  0.32084360116805755  1.0000
  Zn  Zn3       1.0  0.2997850205621191  0.3303289564555598  0.17915635018695045  1.0000
  Zn  Zn4       1.0  0.20021337385031762  0.16967204917760637  0.6791565845948001  1.0000
  P   P1        1.0  0.10224900613908972  0.42309978077181404  0.8023896801334588  1.0000
  P   P2        1.0  0.39775327104097613  0.07690088314252821  0.30239002811336496  1.0000
  P   P3        1.0  0.8977533778949933  0.5769007583182315  0.1976100268588326  1.0000
  P   P4        1.0  0.6022496066820582  0.9231008984348678  0.6976106364197749  1.0000
  H   H1        1.0  0.04712865011614301  0.4447708386581795  0.9440535747406287  1.0000
  H   H2        1.0  0.4528703617898771  0.055231908033050614  0.44405488841454144  1.0000
  H   H3        1.0  0.952876801382267  0.5552272198171979  0.05594469594048232  1.0000
  H   H4        1.0  0.5471294484691712  0.9447723541596817  0.5559467336592194  1.0000
  H   H5        1.0  0.6698049055518213  0.2916464280888462  0.019344180016773307  1.0000
  H   H6        1.0  0.8301916184551388  0.20835616595354625  0.5193443964157538  1.0000
  H   H7        1.0  0.3301939173293249  0.7083553491291782  0.9806555269752837  1.0000
  H   H8        1.0  0.1698072044253395  0.7916456112631283  0.48065626811742146  1.0000
  H   H9        1.0  0.27708440785796284  0.073693838771284  0.9746231499678188  1.0000
  H   H10       1.0  0.22291713513720168  0.4263050989667789  0.4746233556906887  1.0000
  H   H11       1.0  0.7229139213338982  0.9263066959587081  0.0253760782539487  1.0000
  H   H12       1.0  0.7770888100494915  0.5736942019946057  0.5253768300723821  1.0000
  H   H13       1.0  0.27792206542089554  0.008023903898532601  0.8569021016463199  1.0000
  H   H14       1.0  0.22207914826286418  0.4919741219506549  0.356901801377461  1.0000
  H   H15       1.0  0.7220712215488377  0.9919741414926694  0.1430976053465542  1.0000
  H   H16       1.0  0.7779237821233097  0.5080226918529719  0.6430983843861569  1.0000
  H   H17       1.0  0.6211050570966279  0.1578254249381956  0.7919113588187445  1.0000
  H   H18       1.0  0.8788956875105711  0.34217268272158924  0.2919115970722572  1.0000
  H   H19       1.0  0.37888926991547583  0.8421701376566375  0.20808786940408203  1.0000
  H   H20       1.0  0.12110417541194358  0.657826611698049  0.7080890674614224  1.0000
  C   C1        1.0  0.8563052044792913  0.31136069694868956  0.8619817899752321  1.0000
  C   C2        1.0  0.6436944022444564  0.18863969672808886  0.36198161668887974  1.0000
  C   C3        1.0  0.14369213733299807  0.6886373528032339  0.13801791701761354  1.0000
  C   C4        1.0  0.35630798178929274  0.8113608423612818  0.6380185690739709  1.0000
  C   C5        1.0  0.8715261173425262  0.3488058560821018  0.9269993024161564  1.0000
  C   C6        1.0  0.6284693437521796  0.15119435064286793  0.4269996236596328  1.0000
  C   C7        1.0  0.12847122447043094  0.6511921936711644  0.07299944703557772  1.0000
  C   C8        1.0  0.37152849174839286  0.8488049415950627  0.5730019984151725  1.0000
  C   C9        1.0  0.662927750896415  0.2640004142368113  0.9682401385309305  1.0000
  C   C10       1.0  0.8370726948341486  0.23600216600861762  0.46824042144820777  1.0000
  C   C11       1.0  0.33707260571672754  0.7360001226735449  0.03175908969082291  1.0000
  C   C12       1.0  0.16293018288888564  0.7639996155687855  0.5317602430849392  1.0000
  C   C13       1.0  0.44358986988375193  0.14105789527004486  0.9438463270672344  1.0000
  C   C14       1.0  0.05640766124287214  0.35894112453727445  0.4438475207869388  1.0000
  C   C15       1.0  0.5564079656191582  0.8589413969725966  0.0561519436136777  1.0000
  C   C16       1.0  0.9435937354109711  0.6410569295733524  0.5561536225175416  1.0000
  C   C17       1.0  0.43972906530584055  0.10420246313747582  0.8791304398685752  1.0000
  C   C18       1.0  0.06027513214056068  0.39579798744565425  0.37912970316294553  1.0000
  C   C19       1.0  0.5602707976166742  0.8957968312821623  0.1208702246651043  1.0000
  C   C20       1.0  0.9397308130464597  0.6042013135164056  0.6208700038295731  1.0000
  N   N1        1.0  0.6419507618473546  0.1892804838136257  0.8407191377334443  1.0000
  N   N2        1.0  0.858052435718797  0.3107187314470323  0.3407193893468516  1.0000
  N   N3        1.0  0.3580486073862161  0.8107175681186547  0.1592805692593799  1.0000
  N   N4        1.0  0.1419514820466149  0.6892805673339951  0.6592807964162405  1.0000
  Cl  Cl1       1.0  0.858745489772872  0.8042863568716145  0.9098242718991189  1.0000
  Cl  Cl2       1.0  0.6412581858617374  0.6957171888924878  0.40982457448574655  1.0000
  Cl  Cl3       1.0  0.14125738795083012  0.1957154247071315  0.0901754350929096  1.0000
  Cl  Cl4       1.0  0.3587446918616309  0.3042845926855833  0.590175611276834  1.0000
  O   O1        1.0  0.972063085400059  0.5624874556468243  0.7767371182425792  1.0000
  O   O2        1.0  0.527937761268838  0.9375139767131417  0.27673636472628266  1.0000
  O   O3        1.0  0.02793524379080037  0.43751307908114984  0.22326354629085907  1.0000
  O   O4        1.0  0.4720651164548641  0.06248780486559721  0.723263342265753  1.0000
  O   O5        1.0  0.37220359959617616  0.48765763604932744  0.8394996492968404  1.0000
  O   O6        1.0  0.1277970920353155  0.0123441639584243  0.3394985918218936  1.0000
  O   O7        1.0  0.6277947295950099  0.5123428986793213  0.1605005364660386  1.0000
  O   O8        1.0  0.872203264577486  0.987656372951257  0.6605011151704119  1.0000
  O   O9        1.0  0.10866780411346608  0.2943033152494293  0.7513302632703545  1.0000
  O   O10       1.0  0.3913355317418592  0.20569997703388052  0.2513305579335068  1.0000
  O   O11       1.0  0.8913350736109037  0.7056984663306595  0.24866848618056286  1.0000
  O   O12       1.0  0.6086653185598935  0.7943018023631511  0.7486701065996542  1.0000
