data_image0
_chemical_formula_structural       Fe2H16C24N8
_chemical_formula_sum              "Fe2 H16 C24 N8"
_cell_length_a       7.055695175000876
_cell_length_b       13.465050413372493
_cell_length_c       13.465066808379156
_cell_angle_alpha    90.04868761963942
_cell_angle_beta     90.00000149671106
_cell_angle_gamma    90.00006613478939

_space_group_name_H-M_alt    "P 1"
_space_group_IT_number       1

loop_
  _space_group_symop_operation_xyz
  'x, y, z'

loop_
  _atom_site_type_symbol
  _atom_site_label
  _atom_site_symmetry_multiplicity
  _atom_site_fract_x
  _atom_site_fract_y
  _atom_site_fract_z
  _atom_site_occupancy
  Fe  Fe1       1.0  0.25000087550139943  2.3703703818000245e-06  0.9999995893678462  1.0000
  Fe  Fe2       1.0  0.7500040561235579  2.423502778e-06  1.2225392300000005e-08  1.0000
  H   H1        1.0  0.6932539905572668  0.9998990796284347  0.23734608315895406  1.0000
  H   H2        1.0  0.693248483311919  0.0001014189250697001  0.7626543404958074  1.0000
  H   H3        1.0  0.3066529863941128  0.0003823692722946  0.23728976491870676  1.0000
  H   H4        1.0  0.8067506608105433  0.7626539820755415  9.753519444190007e-05  1.0000
  H   H5        1.0  0.19335255883589042  0.7627138528709951  0.9996210894076117  1.0000
  H   H6        1.0  0.19335190435134564  0.23729306997285704  0.0003815500398616001  1.0000
  H   H7        1.0  0.8067485809597346  0.23734880269591235  0.9999006648325237  1.0000
  H   H8        1.0  0.3066514021367084  0.9996134711103154  0.762709159889866  1.0000
  H   H9        1.0  0.6945012091364973  0.9997968340327578  0.4092122652669021  1.0000
  H   H10       1.0  0.6945013727282402  0.00019475320937090002  0.5907881546389576  1.0000
  H   H11       1.0  0.3055388273816035  0.9997737100662009  0.4092122496357861  1.0000
  H   H12       1.0  0.8054961394983168  0.5907898180710944  0.0001990394987672  1.0000
  H   H13       1.0  0.19445783738200362  0.5907918959263867  0.00022056847438280003  1.0000
  H   H14       1.0  0.19445902297085382  0.4092157692111584  0.9997798433338334  1.0000
  H   H15       1.0  0.8054944904992996  0.40921519435272563  0.9997999040997886  1.0000
  H   H16       1.0  0.30553615643589893  0.00021321871876980002  0.5907888993408223  1.0000
  C   C1        1.0  0.8437522723446379  0.9999179975341835  0.22060128084344655  1.0000
  C   C2        1.0  0.8437524340925436  8.183587473810007e-05  0.7793969190342696  1.0000
  C   C3        1.0  0.15615186991434635  0.00017174364914040001  0.22058719234749455  1.0000
  C   C4        1.0  0.6562509828061068  0.7793957987335745  8.236630810639999e-05  1.0000
  C   C5        1.0  0.343842357696218  0.7794157378736913  0.9998264788266699  1.0000
  C   C6        1.0  0.343845913223042  0.22058754821977541  0.00017170759323900003  1.0000
  C   C7        1.0  0.656254530164908  0.22060765150021672  0.9999188001587245  1.0000
  C   C8        1.0  0.15615028604756281  0.9998240185833682  0.7794124705972155  1.0000
  C   C9        1.0  0.999966503638362  0.9999055425572367  0.2855797953631766  1.0000
  C   C10       1.0  0.9999624140580538  8.69466055349001e-05  0.714420634045503  1.0000
  C   C11       1.0  0.5000423389675036  0.714422364423314  9.263395543970011e-05  1.0000
  C   C12       1.0  0.5000375454448333  0.28558471705385113  0.9999070440653883  1.0000
  C   C13       1.0  4.086263402299999e-06  0.9998703775081667  0.3939535413170321  1.0000
  C   C14       1.0  2.832244526000001e-06  0.00011639103617970012  0.6060453704821075  1.0000
  C   C15       1.0  0.49999259780791766  0.6060484702011877  0.00012456779224119999  1.0000
  C   C16       1.0  0.49999799703088144  0.3939571259255104  0.9998751095961612  1.0000
  C   C17       1.0  0.8297168011172219  0.999916765248777  0.4484367836815296  1.0000
  C   C18       1.0  0.8297169647261812  7.117885619580008e-05  0.5515628960507544  1.0000
  C   C19       1.0  0.17030906245253163  0.9999106526758796  0.4484382565662133  1.0000
  C   C20       1.0  0.67028049834277  0.5515667033780078  7.765700465970004e-05  1.0000
  C   C21       1.0  0.3296861358592055  0.5515658738211044  8.210754329239994e-05  1.0000
  C   C22       1.0  0.329680333309213  0.4484418618175853  0.9999183083320208  1.0000
  C   C23       1.0  0.6702761130828777  0.44843898152787187  0.9999220255052708  1.0000
  C   C24       1.0  0.17030922607267476  7.397698423260008e-05  0.5515614020711939  1.0000
  N   N1        1.0  0.9027671748281706  0.00036392609373340015  0.12534675392599587  1.0000
  N   N2        1.0  0.9027641724107766  0.9996389090524364  0.8746521916514924  1.0000
  N   N3        1.0  0.09708469314192311  0.0005204133521914001  0.125335668448912  1.0000
  N   N4        1.0  0.5972391950003059  0.8746578567633778  0.9996389515276934  1.0000
  N   N5        1.0  0.4029209930496904  0.874666651176213  0.9994815079021608  1.0000
  N   N6        1.0  0.40292005790843893  0.1253403796665182  0.0005181671976473002  1.0000
  N   N7        1.0  0.597238259879724  0.12534704834543933  0.0003629564579768001  1.0000
  N   N8        1.0  0.09708310762546553  0.9994812593936403  0.8746639952435945  1.0000
