data_image0
_chemical_formula_structural       Ag2H12C22N2O8
_chemical_formula_sum              "Ag2 H12 C22 N2 O8"
_cell_length_a       6.5930936091878545
_cell_length_b       8.83171582983775
_cell_length_c       9.202123468457179
_cell_angle_alpha    78.51636061431742
_cell_angle_beta     72.79754551476371
_cell_angle_gamma    67.74299068453402

_space_group_name_H-M_alt    "P 1"
_space_group_IT_number       1

loop_
  _space_group_symop_operation_xyz
  'x, y, z'

loop_
  _atom_site_type_symbol
  _atom_site_label
  _atom_site_symmetry_multiplicity
  _atom_site_fract_x
  _atom_site_fract_y
  _atom_site_fract_z
  _atom_site_occupancy
  Ag  Ag1       1.0  0.40495276380789136  0.09119870133825711  0.21588382687676952  1.0000
  Ag  Ag2       1.0  0.5950493882386493  0.9088070568559632  0.784118980287687  1.0000
  H   H1        1.0  0.1137939955469065  0.0933978903056882  0.8025243982150059  1.0000
  H   H2        1.0  0.8862124195052132  0.9066053829790947  0.1974725347371731  1.0000
  H   H3        1.0  0.016750596256251454  0.8510114792133763  0.9510590077988397  1.0000
  H   H4        1.0  0.9832488282108118  0.1489967603782887  0.04894065071279384  1.0000
  H   H5        1.0  0.0671250245918529  0.6161883527304254  0.8180360998241412  1.0000
  H   H6        1.0  0.9328739131320846  0.38381744584741995  0.1819641298953769  1.0000
  H   H7        1.0  0.2745141977400322  0.09811905889480951  0.521220308499288  1.0000
  H   H8        1.0  0.7254874900596062  0.9018805985204069  0.4787772443918072  1.0000
  H   H9        1.0  0.1665455724747105  0.4936895916743111  0.5706643023904762  1.0000
  H   H10       1.0  0.833459906846521  0.5063087908039847  0.42933920012884397  1.0000
  H   H11       1.0  0.28754503596208275  0.4491637372251774  0.06143501771720139  1.0000
  H   H12       1.0  0.7124590056260087  0.550823662446476  0.9385643729445406  1.0000
  C   C1        1.0  0.25989200030070936  0.8605246764227986  0.5088544904293641  1.0000
  C   C2        1.0  0.7401117851788895  0.1394774009365349  0.4911443226914401  1.0000
  C   C3        1.0  0.14240974250193245  0.988862827355405  0.7435255653251076  1.0000
  C   C4        1.0  0.8575955710096893  0.0111429027455756  0.2564722212723892  1.0000
  C   C5        1.0  0.081886580055041  0.853034728251629  0.8278270152170394  1.0000
  C   C6        1.0  0.9181144929472252  0.14696982699360459  0.17217082011147514  1.0000
  C   C7        1.0  0.1074242712254331  0.7231526838133462  0.754041095861588  1.0000
  C   C8        1.0  0.8925773638736914  0.27685064039013  0.2459579407896726  1.0000
  C   C9        1.0  0.37010461923841126  0.743078470634707  0.27907450495512637  1.0000
  C   C10       1.0  0.6298880707521022  0.25692005757616  0.7209284566568924  1.0000
  C   C11       1.0  0.22978629102991024  0.9930454955541351  0.5869239080155566  1.0000
  C   C12       1.0  0.7702212331137731  0.006955319158670599  0.4130732567215746  1.0000
  C   C13       1.0  0.4861703685551431  0.7506651639592762  0.11011423567613585  1.0000
  C   C14       1.0  0.5138292442177601  0.24933206824450596  0.8898853132760607  1.0000
  C   C15       1.0  0.21728584557871494  0.5982348870600874  0.5110377010755798  1.0000
  C   C16       1.0  0.7827163440661876  0.40176720785740383  0.48896145146816394  1.0000
  C   C17       1.0  0.29848484887023125  0.6079639897306847  0.35402342916914625  1.0000
  C   C18       1.0  0.7015131002653162  0.39203693033105946  0.6459757721056221  1.0000
  C   C19       1.0  0.19553046779634523  0.7243877060157901  0.5932765814971505  1.0000
  C   C20       1.0  0.8044701486670929  0.2756144011925485  0.4067261667603432  1.0000
  C   C21       1.0  0.2997910260656553  0.48086211031360904  0.26827866164956754  1.0000
  C   C22       1.0  0.7002059495836548  0.5191339277205034  0.731721682040984  1.0000
  N   N1        1.0  0.34874611621624735  0.8648081513444981  0.3537407824445112  1.0000
  N   N2        1.0  0.6512534212029236  0.13519275291486116  0.6462569939770404  1.0000
  O   O1        1.0  0.3180022914424754  0.3390906442647577  0.3294267332182343  1.0000
  O   O2        1.0  0.6819920321380908  0.6609078576091035  0.6705813161222025  1.0000
  O   O3        1.0  0.3868694401138625  0.8692410449230651  0.025260984377688093  1.0000
  O   O4        1.0  0.6131333416752014  0.13075615743171204  0.974734629437819  1.0000
  O   O5        1.0  0.6762959072660236  0.6385905407868934  0.07091580076383504  1.0000
  O   O6        1.0  0.32370277732707103  0.3614017988546365  0.9290914031857724  1.0000
  O   O7        1.0  0.2689332849292753  0.5377844165157697  0.1300499924300595  1.0000
  O   O8        1.0  0.7310696853226164  0.4622054329490055  0.8699545935980809  1.0000
