data_image0
_chemical_formula_structural       Zn2H60C64N8O12
_chemical_formula_sum              "Zn2 H60 C64 N8 O12"
_cell_length_a       7.83661146
_cell_length_b       11.46366674537736
_cell_length_c       17.078
_cell_angle_alpha    96.34564191137596
_cell_angle_beta     90.0
_cell_angle_gamma    90.0

_space_group_name_H-M_alt    "P 1"
_space_group_IT_number       1

loop_
  _space_group_symop_operation_xyz
  'x, y, z'

loop_
  _atom_site_type_symbol
  _atom_site_label
  _atom_site_symmetry_multiplicity
  _atom_site_fract_x
  _atom_site_fract_y
  _atom_site_fract_z
  _atom_site_occupancy
  Zn  Zn1       1.0  0.030476182367728206  0.9999981177751351  0.7499989234779889  1.0000
  Zn  Zn2       1.0  0.9695223552655252  8.776987031e-07  0.2500012362146649  1.0000
  H   H1        1.0  0.4028131311744262  0.12410922967553972  0.774826713532775  1.0000
  H   H2        1.0  0.402818235421357  0.8758906434970017  0.7251740968258886  1.0000
  H   H3        1.0  0.5971841303970964  0.8758915211957047  0.22517474749189859  1.0000
  H   H4        1.0  0.5971841303970964  0.12410747427813361  0.274827168846734  1.0000
  H   H5        1.0  0.050172195215608915  0.1168611937876136  0.5877729889805323  1.0000
  H   H6        1.0  0.05017474733907792  0.8831395570836307  0.9122267153981696  1.0000
  H   H7        1.0  0.9498288945411135  0.8831342908914125  0.41222573914541266  1.0000
  H   H8        1.0  0.9498276184793752  0.1168638268837157  0.0877743554299002  1.0000
  H   H9        1.0  0.3387178263907416  0.247460127671836  0.5521372757585539  1.0000
  H   H10       1.0  0.3387165503290107  0.7525406231994085  0.9478641852661197  1.0000
  H   H11       1.0  0.6612832633659738  0.7525379901032994  0.44786223326809693  1.0000
  H   H12       1.0  0.6612807112425116  0.247460127671836  0.05213786130720879  1.0000
  H   H13       1.0  0.6391627332255183  0.2550100919135332  0.6155484516218266  1.0000
  H   H14       1.0  0.6391614571637805  0.7449845150667898  0.8844507969354183  1.0000
  H   H15       1.0  0.3608383565312039  0.7449880258615948  0.3844516429534792  1.0000
  H   H16       1.0  0.3608358044077349  0.25501272500964234  0.1155504036198565  1.0000
  H   H17       1.0  0.666458969754764  0.20550612967680595  0.7079507702019541  1.0000
  H   H18       1.0  0.6664627979399642  0.7944946211944313  0.7920506908227194  1.0000
  H   H19       1.0  0.3335382918167512  0.7944954988931343  0.2920495848427578  1.0000
  H   H20       1.0  0.3335395678784892  0.20550612967680595  0.20795252684792587  1.0000
  H   H21       1.0  0.2997226558939303  0.3982136568690251  0.7178469517810838  1.0000
  H   H22       1.0  0.29972520801739233  0.601786216303509  0.7821526874802629  1.0000
  H   H23       1.0  0.7002784338627919  0.6017888493996182  0.2821528828323139  1.0000
  H   H24       1.0  0.7002784338627919  0.3982145345677282  0.2178481879957559  1.0000
  H   H25       1.0  0.8492586411831626  0.3972122026491007  0.7182375785203945  1.0000
  H   H26       1.0  0.8492624693683626  0.6027850374273243  0.7817606942915843  1.0000
  H   H27       1.0  0.1507411725118217  0.6027885482221366  0.28176271140696224  1.0000
  H   H28       1.0  0.1507411725118217  0.3972157134439129  0.21823901008711027  1.0000
  H   H29       1.0  0.7791237362174928  0.696954208952107  0.6306203700190522  1.0000
  H   H30       1.0  0.7791237362174928  0.3030465419191374  0.8693781632623255  1.0000
  H   H31       1.0  0.22087735353922974  0.3030474196178403  0.3693793994769904  1.0000
  H   H32       1.0  0.22087352535402976  0.6969559643495132  0.1306205002537553  1.0000
  H   H33       1.0  0.5550766453336422  0.558141770606845  0.5718576297095126  1.0000
  H   H34       1.0  0.5550766453336422  0.4418554694695871  0.9281406431024664  1.0000
  H   H35       1.0  0.4449257204848109  0.4418563471682902  0.42814246486579316  1.0000
  H   H36       1.0  0.4449231683613419  0.5581452814016572  0.0718578901789115  1.0000
  H   H37       1.0  0.47891872898851073  0.9889987976313321  0.573751323489752  1.0000
  H   H38       1.0  0.47892000505024174  0.0110001978425061  0.9262476651055848  1.0000
  H   H39       1.0  0.5210810847064735  0.011001075541209101  0.4262489013202497  1.0000
  H   H40       1.0  0.5210823607682116  0.9890014307274413  0.073750933293141  1.0000
  H   H41       1.0  0.24991286221047204  0.8549215437878104  0.5201665688787713  1.0000
  H   H42       1.0  0.24991413827221012  0.1450774516860207  0.9798318341679105  1.0000
  H   H43       1.0  0.7500869514845123  0.1450774516860207  0.47983241971656554  1.0000
  H   H44       1.0  0.7500869514845123  0.8549232991852166  0.020166699113467215  1.0000
  H   H45       1.0  0.11382598263969612  0.7073259745233856  0.44388488457689584  1.0000
  H   H46       1.0  0.11382725870142713  0.2926730209504527  0.056114689567103006  1.0000
  H   H47       1.0  0.8861725549935573  0.2926721432517496  0.5561152099984099  1.0000
  H   H48       1.0  0.8861751071170261  0.7073277299207916  0.9438850148115988  1.0000
  H   H49       1.0  0.049723021485618815  0.7032850496955804  0.5439791585464349  1.0000
  H   H50       1.0  0.049723021485618815  0.296714823476961  0.956021066263574  1.0000
  H   H51       1.0  0.9502755161476417  0.29671306807955494  0.4560221071261949  1.0000
  H   H52       1.0  0.9502767922093727  0.7032859273942833  0.04397805256646589  1.0000
  H   H53       1.0  0.8763404993412822  0.567002139011862  0.4510464333177637  1.0000
  H   H54       1.0  0.8763392232795439  0.4329968564619763  0.04895489747221401  1.0000
  H   H55       1.0  0.12366059041544022  0.43299597876327317  0.5489548323548659  1.0000
  H   H56       1.0  0.12365803829197122  0.567002139011862  0.9510452622204466  1.0000
  H   H57       1.0  0.0635414939915862  0.4941522689786951  0.4143651320982045  1.0000
  H   H58       1.0  0.0635440461150552  0.5058484818925422  0.0856345722804903  1.0000
  H   H59       1.0  0.9364583197033982  0.505845848796433  0.5856349624771013  1.0000
  H   H60       1.0  0.9364557675799363  0.4941522689786951  0.9143645465495495  1.0000
  C   C1        1.0  0.3437939999643689  0.13849734451094523  0.7192089732055889  1.0000
  C   C2        1.0  0.3437939999643689  0.861504284058995  0.7807896251931367  1.0000
  C   C3        1.0  0.6562083658540843  0.861504284058995  0.28079021074179866  1.0000
  C   C4        1.0  0.6562045376688845  0.1384982222096482  0.219210209420261  1.0000
  C   C5        1.0  0.1663869654193633  0.1389511147403084  0.6205741765261691  1.0000
  C   C6        1.0  0.1663907936045632  0.8610487584322329  0.8794254627351845  1.0000
  C   C7        1.0  0.8336179525225589  0.8610470030348267  0.3794247469518197  1.0000
  C   C8        1.0  0.8336128482756282  0.1389528701377145  0.120576063406844  1.0000
  C   C9        1.0  0.306604456819656  0.2031152784103156  0.6029724770854514  1.0000
  C   C10       1.0  0.306604456819656  0.7968854724609288  0.8970278128419054  1.0000
  C   C11       1.0  0.6933940808135972  0.796887227858335  0.3970291141739253  1.0000
  C   C12       1.0  0.6933928047518664  0.2031144007116126  0.10297299751675838  1.0000
  C   C13       1.0  0.5828450247040851  0.2589948440243576  0.6745910102590216  1.0000
  C   C14       1.0  0.5828437486423468  0.7410032737507706  0.8254073276703124  1.0000
  C   C15       1.0  0.4171560650526374  0.7410050291481768  0.32540804345367036  1.0000
  C   C16       1.0  0.4171535129291684  0.2589965994217636  0.1745940682370133  1.0000
  C   C17       1.0  0.5743502817479254  0.38380447726475353  0.7130854504067585  1.0000
  C   C18       1.0  0.5743528338713872  0.6161945182090848  0.7869135381885783  1.0000
  C   C19       1.0  0.4256495319470659  0.6161945182090848  0.28691588038321203  1.0000
  C   C20       1.0  0.4256495319470659  0.3838062326621596  0.2130861661901164  1.0000
  C   C21       1.0  0.4211131324864752  0.44241105274847575  0.7316360139248201  1.0000
  C   C22       1.0  0.4211131324864752  0.5575853096292535  0.7683616082211485  1.0000
  C   C23       1.0  0.5788879572702472  0.5575888204240655  0.2683636253365265  1.0000
  C   C24       1.0  0.5788892333319782  0.44241368584457774  0.23163913702016709  1.0000
  C   C25       1.0  0.7284768460372251  0.4426576860839688  0.731820607719271  1.0000
  C   C26       1.0  0.7284781220989631  0.5573413093898694  0.7681760386814318  1.0000
  C   C27       1.0  0.2715242437194903  0.5573430647872756  0.2681790966594235  1.0000
  C   C28       1.0  0.2715255197812212  0.442659441481375  0.231824251245925  1.0000
  C   C29       1.0  0.7806715990995414  0.9342330316711696  0.6383063013848513  1.0000
  C   C30       1.0  0.7806767033464723  0.0657677192000676  0.8616922318965266  1.0000
  C   C31       1.0  0.21932311034851185  0.06576859689877071  0.3616946392085154  1.0000
  C   C32       1.0  0.21932566247198082  0.9342347870685757  0.13830643161954728  1.0000
  C   C33       1.0  0.643926271674566  0.851777627034295  0.6052922598601569  1.0000
  C   C34       1.0  0.6439249956128352  0.1482196130421372  0.8947054274031669  1.0000
  C   C35       1.0  0.3560722659586873  0.14822136843954334  0.39470731428384187  1.0000
  C   C36       1.0  0.3560735420204183  0.8517811378291071  0.1052919347808938  1.0000
  C   C37       1.0  0.6638277304614493  0.7298933635704188  0.6050638077068766  1.0000
  C   C38       1.0  0.6638290065231871  0.2701056319034194  0.894933424242481  1.0000
  C   C39       1.0  0.3361746353570041  0.27010650960212257  0.39493583155447  1.0000
  C   C40       1.0  0.3361708071718042  0.7298968743652311  0.1050640681762758  1.0000
  C   C41       1.0  0.539192228882051  0.6528173742831527  0.5733980447949135  1.0000
  C   C42       1.0  0.5391909528203129  0.3471807434919825  0.9265991220371034  1.0000
  C   C43       1.0  0.4608114129981403  0.3471816211906856  0.42660152934908513  1.0000
  C   C44       1.0  0.4608063087512093  0.6528208850779649  0.0733983052643126  1.0000
  C   C45       1.0  0.4938358906465439  0.8946400431867403  0.5744536451855637  1.0000
  C   C46       1.0  0.49383461458481304  0.1053580745883878  0.9255452782924252  1.0000
  C   C47       1.0  0.5061651991101785  0.1053580745883878  0.4255464493897421  1.0000
  C   C48       1.0  0.5061626469867095  0.8946426762828494  0.07445325498895271  1.0000
  C   C49       1.0  0.3646308120014936  0.8187849327951113  0.5442258079716069  1.0000
  C   C50       1.0  0.3646295359397627  0.18121406267872692  0.955770838429096  1.0000
  C   C51       1.0  0.6353677256317596  0.18121494037742994  0.4557732457410778  1.0000
  C   C52       1.0  0.6353690016934979  0.8187866881925174  0.04422593820630989  1.0000
  C   C53       1.0  0.38878410848251843  0.6971701228330006  0.5430084465050697  1.0000
  C   C54       1.0  0.3887815563590564  0.3028297503395407  0.9569906072076149  1.0000
  C   C55       1.0  0.611219533397666  0.3028288726408377  0.456992298736246  1.0000
  C   C56       1.0  0.6112157052124659  0.6971727559291098  0.043008056308458706  1.0000
  C   C57       1.0  0.10674256396016092  0.6512743799635886  0.49222313987251437  1.0000
  C   C58       1.0  0.10674384002189903  0.34872549320895274  0.0077770849374943045  1.0000
  C   C59       1.0  0.8932559736730925  0.34872549320895274  0.507777670486149  1.0000
  C   C60       1.0  0.8932559736730925  0.6512743799635886  0.9922225543238524  1.0000
  C   C61       1.0  0.0052484419075682  0.5409028903846647  0.4675917761339504  1.0000
  C   C62       1.0  0.005247165845837302  0.4590961050891735  0.0324089691073652  1.0000
  C   C63       1.0  0.9947526478491542  0.4590952273904706  0.5324094895386722  1.0000
  C   C64       1.0  0.9947500957256852  0.5409046457820709  0.9675907352713367  1.0000
  N   N1        1.0  0.1914488178542442  0.0993142413207337  0.6932471320082882  1.0000
  N   N2        1.0  0.19145264603943707  0.9006865095505036  0.8067531579190685  1.0000
  N   N3        1.0  0.8085522719024782  0.9006847541530973  0.3067524421357105  1.0000
  N   N4        1.0  0.8085497197790164  0.09931511901943682  0.19324836822296018  1.0000
  N   N5        1.0  0.4176218275851582  0.2012247154044289  0.6657582009636798  1.0000
  N   N6        1.0  0.4176218275851582  0.7987734023706992  0.8342418936116258  1.0000
  N   N7        1.0  0.5823779861098259  0.7987751577681055  0.3342420238463291  1.0000
  N   N8        1.0  0.582376710048095  0.201226470801835  0.16575950229569966  1.0000
  O   O1        1.0  0.8923448655957742  0.8874639785924501  0.682024653627586  1.0000
  O   O2        1.0  0.8923499698427053  0.11253238378527902  0.8179747251643618  1.0000
  O   O3        1.0  0.1076485677905481  0.11253677227879423  0.31797739294574967  1.0000
  O   O4        1.0  0.10765494809920993  0.8874683670859654  0.182024393665678  1.0000
  O   O5        1.0  0.7811284291999316  0.0390874340316003  0.6241108506786972  1.0000
  O   O6        1.0  0.7811284291999316  0.9609080506474257  0.8758896340932196  1.0000
  O   O7        1.0  0.21886628024812185  0.9609098060448319  0.37589034987657743  1.0000
  O   O8        1.0  0.2188726605567837  0.0390944556212247  0.12410961497151618  1.0000
  O   O9        1.0  0.275199301510348  0.6143495955357494  0.512306583055981  1.0000
  O   O10       1.0  0.275201853633817  0.3856493999380889  0.9876918199907009  1.0000
  O   O11       1.0  0.7247992361229054  0.3856502776367918  0.4876930562053658  1.0000
  O   O12       1.0  0.7247992361229054  0.6143513509331485  0.0123067132906769  1.0000
