data_image0
_chemical_formula_structural       Cd2H38C34S2N10O10
_chemical_formula_sum              "Cd2 H38 C34 S2 N10 O10"
_cell_length_a       8.641124129352777
_cell_length_b       8.931425815143218
_cell_length_c       13.176872459577858
_cell_angle_alpha    105.96633241275234
_cell_angle_beta     91.97587270603934
_cell_angle_gamma    100.48584059048167

_space_group_name_H-M_alt    "P 1"
_space_group_IT_number       1

loop_
  _space_group_symop_operation_xyz
  'x, y, z'

loop_
  _atom_site_type_symbol
  _atom_site_label
  _atom_site_symmetry_multiplicity
  _atom_site_fract_x
  _atom_site_fract_y
  _atom_site_fract_z
  _atom_site_occupancy
  Cd  Cd1       1.0  0.6854812901802491  0.5290477309975403  0.30898804031159705  1.0000
  Cd  Cd2       1.0  0.3145193816912625  0.4709523939030547  0.6910122554625744  1.0000
  H   H1        1.0  0.9963973648482206  0.3568972067841544  0.3679380483953096  1.0000
  H   H2        1.0  0.0036007534788638023  0.6431017377929821  0.632061952826355  1.0000
  H   H3        1.0  0.0969536083526776  0.09224947112365811  0.0585700222274284  1.0000
  H   H4        1.0  0.9030475322253012  0.9077530205277924  0.9414314970317292  1.0000
  H   H5        1.0  0.3754934580274211  0.13199717069053926  0.12355499161407833  1.0000
  H   H6        1.0  0.6245049095302379  0.8680029721985818  0.8764444861799632  1.0000
  H   H7        1.0  0.8612799287869422  0.8974423153327324  0.2689628540905957  1.0000
  H   H8        1.0  0.1387207728392355  0.10255783944097632  0.7310351713433434  1.0000
  H   H9        1.0  0.1463871908693335  0.07021525980685081  0.37703992533577246  1.0000
  H   H10       1.0  0.8536160543830391  0.9297860653326212  0.6229591514307558  1.0000
  H   H11       1.0  0.053557179115728104  0.6257142650516486  0.44073723126937386  1.0000
  H   H12       1.0  0.9464393329981178  0.37428824266144295  0.5592641655896672  1.0000
  H   H13       1.0  0.25897882491977947  0.00028495624352590083  0.5715695038803261  1.0000
  H   H14       1.0  0.7410180966183691  0.9997139525181997  0.42843349386162544  1.0000
  H   H15       1.0  0.290788531542205  0.8030512241171053  0.5301512283886964  1.0000
  H   H16       1.0  0.7092075019469348  0.19694890688742822  0.4698497017654475  1.0000
  H   H17       1.0  0.41181011109219406  0.05949631197893981  0.42104225429689285  1.0000
  H   H18       1.0  0.5881884461866917  0.9405049694759386  0.5789612407499903  1.0000
  H   H19       1.0  0.4610349583550786  0.868743338178135  0.39356603873259394  1.0000
  H   H20       1.0  0.5389647659580703  0.13125794921903386  0.6064367301342415  1.0000
  H   H21       1.0  0.697273176336587  0.7315766635766607  0.1163381049175243  1.0000
  H   H22       1.0  0.30272842325683064  0.26842227891195597  0.8836612313241474  1.0000
  H   H23       1.0  0.3013919390741151  0.5453694853266811  0.2557765396794593  1.0000
  H   H24       1.0  0.6986089525004715  0.4546259020567973  0.7442213397247812  1.0000
  H   H25       1.0  0.42371660890421475  0.787684377026345  0.02737757721731532  1.0000
  H   H26       1.0  0.57628382365494  0.21231455951996742  0.9726224852044112  1.0000
  H   H27       1.0  0.13755015664260387  0.7613973837101967  0.08353051946880903  1.0000
  H   H28       1.0  0.8624535277887517  0.2386003723510157  0.9164678878403905  1.0000
  H   H29       1.0  0.08642439693843329  0.654372790186919  0.17773278682410174  1.0000
  H   H30       1.0  0.9135772026549844  0.3456261523016906  0.8222665494175702  1.0000
  H   H31       1.0  0.09946437519828781  0.40019253657606413  0.04232926499861379  1.0000
  H   H32       1.0  0.9005358279667419  0.599805221573682  0.9576698072905857  1.0000
  H   H33       1.0  0.15720379414177904  0.5071268283675681  0.9492301598235928  1.0000
  H   H34       1.0  0.8427973367451642  0.4928697473701931  0.050767952933107124  1.0000
  H   H35       1.0  0.5676762557168403  0.20670680096770874  0.2806764304229858  1.0000
  H   H36       1.0  0.4323220920043696  0.7932933220060011  0.7193245609312129  1.0000
  H   H37       1.0  0.515920486777219  0.3081892116367372  0.4006439703219087  1.0000
  H   H38       1.0  0.4840787886659044  0.6918097289249873  0.5993560614997904  1.0000
  C   C1        1.0  0.2797085715482694  0.40476042367702564  0.4688931513608665  1.0000
  C   C2        1.0  0.7202911924377774  0.5952409035509663  0.5311065903856473  1.0000
  C   C3        1.0  0.23708317802825013  0.33031712187086976  0.3522425388069337  1.0000
  C   C4        1.0  0.7629168252701464  0.6696853937114045  0.6477574362920393  1.0000
  C   C5        1.0  0.07954968787245062  0.3101217710326197  0.31333602088216145  1.0000
  C   C6        1.0  0.9204489090793331  0.6898795502530748  0.6866644470444072  1.0000
  C   C7        1.0  0.02815669049637391  0.22451265922836686  0.2084113256541897  1.0000
  C   C8        1.0  0.9718430635714482  0.7754886580419227  0.7915891728724064  1.0000
  C   C9        1.0  0.13541936375062852  0.16119697956112594  0.140242917831074  1.0000
  C   C10       1.0  0.8645790531709778  0.8388091190725151  0.8597569393451111  1.0000
  C   C11       1.0  0.29310422713913914  0.18281400717404492  0.1772619399992053  1.0000
  C   C12       1.0  0.7068948682737926  0.817189710735626  0.8227374810721102  1.0000
  C   C13       1.0  0.3461484980016323  0.26546016815519374  0.2831798539882229  1.0000
  C   C14       1.0  0.6538503481807254  0.7345423514424924  0.7168200905107156  1.0000
  C   C15       1.0  0.942639549044891  0.8638289563357519  0.3192590706125458  1.0000
  C   C16       1.0  0.057360673729412816  0.1361747276853933  0.6807426513990293  1.0000
  C   C17       1.0  0.0837608731979884  0.9520131851327988  0.3727075259855255  1.0000
  C   C18       1.0  0.9162398085917404  0.0479869497255052  0.6272920130085708  1.0000
  C   C19       1.0  0.03605810594341823  0.7194972976388743  0.40638963878397766  1.0000
  C   C20       1.0  0.9639395632864591  0.2805052060588126  0.5936117886750907  1.0000
  C   C21       1.0  0.2813851906722818  0.9068720189925374  0.5029522359553981  1.0000
  C   C22       1.0  0.7186133765248358  0.09312927242004322  0.4970505023114029  1.0000
  C   C23       1.0  0.43150048364107363  0.9661362110246762  0.4567307263349393  1.0000
  C   C24       1.0  0.5684992307538509  0.0338650664147906  0.5432727993119714  1.0000
  C   C25       1.0  0.5754192890964377  0.7001057289348439  0.13239709603166014  1.0000
  C   C26       1.0  0.4245818417905057  0.29989084680291006  0.8676010167250326  1.0000
  C   C27       1.0  0.3753371158764338  0.6036193685817539  0.20731633756015813  1.0000
  C   C28       1.0  0.6246626185821142  0.39637602281712964  0.792681511244062  1.0000
  C   C29       1.0  0.44240849897697393  0.7295313114672981  0.08760384862345211  1.0000
  C   C30       1.0  0.5575928613040873  0.27046644266703623  0.9123952542657747  1.0000
  C   C31       1.0  0.14988997036719806  0.6551586249740211  0.10707111918583223  1.0000
  C   C32       1.0  0.8501088462876679  0.34483795879455675  0.8929269323708057  1.0000
  C   C33       1.0  0.08632198883077541  0.5049797949434308  0.01667667636402831  1.0000
  C   C34       1.0  0.9136768278240907  0.4950167888251474  0.9833213751926096  1.0000
  S   S1        1.0  0.8241206410402812  0.1922371775954375  0.1643140519889954  1.0000
  S   S2        1.0  0.17587839509049275  0.8077605746120045  0.8356857464802518  1.0000
  N   N1        1.0  0.5052341248725297  0.29003656163616404  0.320020092982098  1.0000
  N   N2        1.0  0.4947653799647115  0.7099635573221407  0.6799809289721281  1.0000
  N   N3        1.0  0.9139061515137925  0.7185822185359213  0.34093634942332335  1.0000
  N   N4        1.0  0.08609478942474172  0.2814191245920767  0.6590619093630679  1.0000
  N   N5        1.0  0.14124467871115345  0.8589168574819371  0.42704500757151465  1.0000
  N   N6        1.0  0.8587559931603581  0.14108326741865806  0.5729552882026638  1.0000
  N   N7        1.0  0.5322086492654705  0.6212970120438472  0.20716505284612202  1.0000
  N   N8        1.0  0.4677915638177836  0.3787007560636013  0.7928332626629883  1.0000
  N   N9        1.0  0.3173791147667941  0.6681315240314732  0.13632367599182524  1.0000
  N   N10       1.0  0.6826220062019174  0.33186504174857845  0.8636751935449497  1.0000
  O   O1        1.0  0.2071629668370889  0.509941728163284  0.5191123340003827  1.0000
  O   O2        1.0  0.7928370364613073  0.49006078741899034  0.48088764109858323  1.0000
  O   O3        1.0  0.3820152424909794  0.350992779820956  0.5145419674861387  1.0000
  O   O4        1.0  0.6179819580324234  0.6490073571258749  0.4854582364879505  1.0000
  O   O5        1.0  0.790004909694005  0.3541361127747323  0.1779263644496822  1.0000
  O   O6        1.0  0.20999041577631058  0.6458604631246628  0.8220731088670234  1.0000
  O   O7        1.0  0.7366355633176838  0.11173651280130062  0.23475678852559412  1.0000
  O   O8        1.0  0.26336348273130744  0.8882612493638508  0.7652422531635709  1.0000
  O   O9        1.0  0.804759845482259  0.09994261699150543  0.05296593492725071  1.0000
  O   O10       1.0  0.19524035768277062  0.9000551411582337  0.9470331373619487  1.0000
