data_image0
_chemical_formula_structural       Pr2H24C24N2O12
_chemical_formula_sum              "Pr2 H24 C24 N2 O12"
_cell_length_a       7.754983676157453
_cell_length_b       9.607221474041697
_cell_length_c       11.437061096323276
_cell_angle_alpha    95.5944088367383
_cell_angle_beta     105.48206596464887
_cell_angle_gamma    103.57574415037371

_space_group_name_H-M_alt    "P 1"
_space_group_IT_number       1

loop_
  _space_group_symop_operation_xyz
  'x, y, z'

loop_
  _atom_site_type_symbol
  _atom_site_label
  _atom_site_symmetry_multiplicity
  _atom_site_fract_x
  _atom_site_fract_y
  _atom_site_fract_z
  _atom_site_occupancy
  Pr  Pr1       1.0  0.29015435363722025  0.5840909012809449  0.5211272428771068  1.0000
  Pr  Pr2       1.0  0.7098431064392443  0.4159092262372113  0.47887147428860294  1.0000
  H   H1        1.0  0.04179345742907981  0.7321253340738353  0.6929121175308737  1.0000
  H   H2        1.0  0.9581976805592586  0.2678759570401822  0.3070890017775909  1.0000
  H   H3        1.0  0.9557036928165984  0.9557575793266792  0.7599049163931682  1.0000
  H   H4        1.0  0.044293807854295195  0.0442427587026657  0.2400990686837474  1.0000
  H   H5        1.0  0.0858499205646197  0.18745049887157708  0.6905845537235749  1.0000
  H   H6        1.0  0.9141448819293672  0.8125497438253716  0.309417180950213  1.0000
  H   H7        1.0  0.3664832277702246  0.9516206819279204  0.49975207391123905  1.0000
  H   H8        1.0  0.633514178904811  0.0483753942125986  0.500253409217379  1.0000
  H   H9        1.0  0.7184092287467364  0.5849121916293782  0.1997110048532775  1.0000
  H   H10       1.0  0.2815950301734489  0.4150922255973768  0.8002865723573506  1.0000
  H   H11       1.0  0.7734885904575036  0.4319743671408816  0.142388503220559  1.0000
  H   H12       1.0  0.22651423214409053  0.5680257756160643  0.8576103248254014  1.0000
  H   H13       1.0  0.013555165720902146  0.6015586112249807  0.06293614961695229  1.0000
  H   H14       1.0  0.9864541000276432  0.39844477016571733  0.9370622901753622  1.0000
  H   H15       1.0  0.9313471241155183  0.7468309944826217  0.10791802536722629  1.0000
  H   H16       1.0  0.06865433586614242  0.25316903043773203  0.8920779215067685  1.0000
  H   H17       1.0  0.6846382420751524  0.46974311313377365  0.9268275552437973  1.0000
  H   H18       1.0  0.3153675133413074  0.5302537738008014  0.07317075761475418  1.0000
  H   H19       1.0  0.6116125568095471  0.6234787896894857  0.9677591573271443  1.0000
  H   H20       1.0  0.38839284291014314  0.3765170461702354  0.03223990723284231  1.0000
  H   H21       1.0  0.8411220166349268  0.7764473707354329  0.8798822717646716  1.0000
  H   H22       1.0  0.1588881552751644  0.22355078044297733  0.12012042096754531  1.0000
  H   H23       1.0  0.9006816196601191  0.6175589952091515  0.8301283057394712  1.0000
  H   H24       1.0  0.09931434997184851  0.3824365771576055  0.1698646383799556  1.0000
  C   C1        1.0  0.09620139999162103  0.8353482120591665  0.6665464294176289  1.0000
  C   C2        1.0  0.9037895432392489  0.16464452019200587  0.33345680800903216  1.0000
  C   C3        1.0  0.05019981894675159  0.9602324424869269  0.704064634090969  1.0000
  C   C4        1.0  0.9497958227653454  0.039774339674543996  0.295938489054258  1.0000
  C   C5        1.0  0.12329472954566259  0.088813684673795  0.6665211322019289  1.0000
  C   C6        1.0  0.8767063078063161  0.9111811676236741  0.33348057636600714  1.0000
  C   C7        1.0  0.24317279636429834  0.08916463798534828  0.5945010740197958  1.0000
  C   C8        1.0  0.7568179926930085  0.9108356371390088  0.4055016749753052  1.0000
  C   C9        1.0  0.27867701295397757  0.9575569501483374  0.559103236425834  1.0000
  C   C10       1.0  0.7213200041955828  0.0424378994913397  0.44089860847821444  1.0000
  C   C11       1.0  0.33036698648376017  0.22678530522163237  0.5551337265596601  1.0000
  C   C12       1.0  0.6696369430886476  0.7732060807422839  0.44486219890965384  1.0000
  C   C13       1.0  0.9848398627649926  0.5705604099200414  0.29458853306803695  1.0000
  C   C14       1.0  0.015159563797610132  0.4294376055251945  0.7054113039480683  1.0000
  C   C15       1.0  0.8318288653257396  0.5497686153176814  0.17538618043361956  1.0000
  C   C16       1.0  0.16817771577736812  0.45023474091102145  0.824611764925969  1.0000
  C   C17       1.0  0.8890923012886915  0.6284405392213586  0.07651990447246246  1.0000
  C   C18       1.0  0.11091148764162995  0.37155845978613666  0.9234772885356933  1.0000
  C   C19       1.0  0.7320471783437552  0.588911054535174  0.9552241014015197  1.0000
  C   C20       1.0  0.2679575836810315  0.4110868358080637  0.04477233455403249  1.0000
  C   C21       1.0  0.7891061496139643  0.657635095421341  0.8510204904672919  1.0000
  C   C22       1.0  0.21089459897415  0.3423628273493051  0.14897695980957346  1.0000
  C   C23       1.0  0.6251623739659777  0.6269665645805845  0.7361599227998996  1.0000
  C   C24       1.0  0.37484384467460785  0.3730357054880571  0.26383789627591636  1.0000
  N   N1        1.0  0.20653175888375594  0.8324221241181816  0.5935147704577447  1.0000
  N   N2        1.0  0.7934626879134471  0.1675770675039132  0.40648771591747856  1.0000
  O   O1        1.0  0.9563871079552938  0.4846201163415527  0.37270127448010026  1.0000
  O   O2        1.0  0.043615352183792304  0.5153789402553385  0.6272974272820947  1.0000
  O   O3        1.0  0.13744258119354671  0.6664241657468679  0.3184482664008357  1.0000
  O   O4        1.0  0.8625590336756302  0.3335804368290809  0.6815540842882726  1.0000
  O   O5        1.0  0.6270585853977906  0.5535527473875632  0.6364375563121598  1.0000
  O   O6        1.0  0.372939431898665  0.4464570251534782  0.36355916901911206  1.0000
  O   O7        1.0  0.4860887423519245  0.6728038049344177  0.7406022842493413  1.0000
  O   O8        1.0  0.5139075972222428  0.3272050092063735  0.2593975795226058  1.0000
  O   O9        1.0  0.4633219316266093  0.22489846971855335  0.5101145109696787  1.0000
  O   O10       1.0  0.5366682467987473  0.7751040002301154  0.4898891213617915  1.0000
  O   O11       1.0  0.2653326234923696  0.3347249386104778  0.5708703148424945  1.0000
  O   O12       1.0  0.7346589844858329  0.6652817707228066  0.4291311886684356  1.0000
