data_image0
_chemical_formula_structural       Cd3H14C22S6N16
_chemical_formula_sum              "Cd3 H14 C22 S6 N16"
_cell_length_a       8.595429969433862
_cell_length_b       8.683537356246335
_cell_length_c       11.694082987115818
_cell_angle_alpha    77.90870338493218
_cell_angle_beta     76.06320210212508
_cell_angle_gamma    87.42484299547333

_space_group_name_H-M_alt    "P 1"
_space_group_IT_number       1

loop_
  _space_group_symop_operation_xyz
  'x, y, z'

loop_
  _atom_site_type_symbol
  _atom_site_label
  _atom_site_symmetry_multiplicity
  _atom_site_fract_x
  _atom_site_fract_y
  _atom_site_fract_z
  _atom_site_occupancy
  Cd  Cd1       1.0  0.9639291971818551  0.7269127720826348  0.3140671364361863  1.0000
  Cd  Cd2       1.0  0.0360708886386334  0.27309413262774024  0.6859327006125043  1.0000
  Cd  Cd3       1.0  0.4999978078433431  0.49999908062039106  3.140645005946479e-07  1.0000
  H   H1        1.0  0.5925291239296158  0.672231901808786  0.4345180879526537  1.0000
  H   H2        1.0  0.4074709026273381  0.32776911498010014  0.5654835334166461  1.0000
  H   H3        1.0  0.3295747947915899  0.8156416855816959  0.45095339016921066  1.0000
  H   H4        1.0  0.6704251314983977  0.18435226014161538  0.5490442214866819  1.0000
  H   H5        1.0  0.3312182043513019  0.10376641493096632  0.35722998889790597  1.0000
  H   H6        1.0  0.6687805187309406  0.8962263601898001  0.6427697315567967  1.0000
  H   H7        1.0  0.5941013920330677  0.23621443244147863  0.24891122388642364  1.0000
  H   H8        1.0  0.40589500060837475  0.7637830679066369  0.7510915981308343  1.0000
  H   H9        1.0  0.8822247280557177  0.22768107876559904  0.1922354463700414  1.0000
  H   H10       1.0  0.1177729052645091  0.7723199499791066  0.8077674577109589  1.0000
  H   H11       1.0  0.295898510254105  0.9070692157293295  0.08425900632698807  1.0000
  H   H12       1.0  0.7041002832051858  0.0929270987851893  0.9157469904414552  1.0000
  H   H13       1.0  0.1190265570948341  0.3355340070681265  0.18853194269099297  1.0000
  H   H14       1.0  0.8809722247346271  0.6644634805519729  0.8114687423231569  1.0000
  C   C1        1.0  0.1303558640615634  0.6550814322310855  0.042574959964674995  1.0000
  C   C2        1.0  0.8696454553728968  0.3449313501758198  0.957417752804801  1.0000
  C   C3        1.0  0.07666629381188979  0.6351587103780503  0.5685462335693998  1.0000
  C   C4        1.0  0.9233611581920369  0.3648292219007915  0.43145165273944025  1.0000
  C   C5        1.0  0.3505910661244798  0.6185239088613984  0.257597912996374  1.0000
  C   C6        1.0  0.6494004899100219  0.381470079865572  0.7424054695875667  1.0000
  C   C7        1.0  0.587035576603121  0.7971326309011174  0.39466241574269384  1.0000
  C   C8        1.0  0.4129608074245823  0.20286369248045594  0.6053414465718133  1.0000
  C   C9        1.0  0.44122504751793196  0.8777623851097474  0.40381982857749665  1.0000
  C   C10       1.0  0.5587701262372277  0.12223511696922167  0.5961789361928567  1.0000
  C   C11       1.0  0.44252440239556273  0.03703819411274619  0.35122986142746276  1.0000
  C   C12       1.0  0.5574743627227434  0.9629581149964322  0.6487701553011218  1.0000
  C   C13       1.0  0.5887174545179831  0.11171872333723337  0.2916671776064277  1.0000
  C   C14       1.0  0.4112813227464542  0.8882775880885133  0.7083354019963862  1.0000
  C   C15       1.0  0.7294092092430375  0.0236617053898343  0.2867068512603126  1.0000
  C   C16       1.0  0.2705907833752832  0.9763357789550257  0.7132961824179204  1.0000
  C   C17       1.0  0.8835473909326552  0.1000658942733068  0.2253598164291475  1.0000
  C   C18       1.0  0.1164466631705636  0.8999363297577716  0.774644398567858  1.0000
  C   C19       1.0  0.2898600071008773  0.028480152154699602  0.09499164789694696  1.0000
  C   C20       1.0  0.7101375583420831  0.9715138117019679  0.905014080801912  1.0000
  C   C21       1.0  0.1966674157690065  0.24952581664590678  0.14848147619235158  1.0000
  C   C22       1.0  0.8033313913853489  0.7504740264516697  0.851518836810115  1.0000
  S   S1        1.0  0.9382854184886112  0.665965474230326  0.09977268950532188  1.0000
  S   S2        1.0  0.0617195607025636  0.33405435551697593  0.9002157017244554  1.0000
  S   S3        1.0  0.9899562021342587  0.8032456456075324  0.5329209658237487  1.0000
  S   S4        1.0  0.010053561981443698  0.19677063396164135  0.4670731066228413  1.0000
  S   S5        1.0  0.5273219071001662  0.54182081488225  0.22365557064454572  1.0000
  S   S6        1.0  0.4726768281282148  0.4581719625550917  0.7763467126843792  1.0000
  N   N1        1.0  0.2693245905056614  0.6483083850577531  0.9988292159391178  1.0000
  N   N2        1.0  0.7306826294565596  0.3516961244467183  0.0011628735291182566  1.0000
  N   N3        1.0  0.14386873379648793  0.5148869952082719  0.5936146818482939  1.0000
  N   N4        1.0  0.8561302572624144  0.4851352141146209  0.40637013696347396  1.0000
  N   N5        1.0  0.22443295339947159  0.679392935793544  0.281781163351205  1.0000
  N   N6        1.0  0.7755717588476757  0.32059981059595793  0.7182166317613647  1.0000
  N   N7        1.0  0.7271817972943069  0.8683488643243109  0.3376367921783654  1.0000
  N   N8        1.0  0.27281702148987813  0.13164980566768492  0.6623688325784015  1.0000
  N   N9        1.0  0.012769957441463498  0.017541133755855802  0.2098101893511952  1.0000
  N   N10       1.0  0.9872300726478969  0.982458708383056  0.7901950351895906  1.0000
  N   N11       1.0  0.15525642925547337  0.0960497013909105  0.15602517214082917  1.0000
  N   N12       1.0  0.8447411787398521  0.9039489718763178  0.8439781039518548  1.0000
  N   N13       1.0  0.40578150509404765  0.13334127582525207  0.052315474267871254  1.0000
  N   N14       1.0  0.5942172635566578  0.8666538586339527  0.9476881456321917  1.0000
  N   N15       1.0  0.3467771680912364  0.27124126580108054  0.08747422243096982  1.0000
  N   N16       1.0  0.6532216096895169  0.7287562210468295  0.9125256082917726  1.0000
