data_image0
_chemical_formula_structural       Ag2H34C30O22
_chemical_formula_sum              "Ag2 H34 C30 O22"
_cell_length_a       8.148683381079353
_cell_length_b       10.669730091033479
_cell_length_c       11.150564271189507
_cell_angle_alpha    109.69856230333409
_cell_angle_beta     100.38336085964507
_cell_angle_gamma    102.71680331896145

_space_group_name_H-M_alt    "P 1"
_space_group_IT_number       1

loop_
  _space_group_symop_operation_xyz
  'x, y, z'

loop_
  _atom_site_type_symbol
  _atom_site_label
  _atom_site_symmetry_multiplicity
  _atom_site_fract_x
  _atom_site_fract_y
  _atom_site_fract_z
  _atom_site_occupancy
  Ag  Ag1       1.0  0.8895810421978182  0.44194750407523015  0.28286416557259036  1.0000
  Ag  Ag2       1.0  0.11042011672097361  0.5580575331180879  0.7171330134384775  1.0000
  H   H1        1.0  0.890174102543092  0.19929456197927914  0.2994958665003153  1.0000
  H   H2        1.0  0.10981599614627403  0.800701058718978  0.700494157618465  1.0000
  H   H3        1.0  0.942994708291536  0.19129418615484178  0.16705875962829705  1.0000
  H   H4        1.0  0.05700360949199976  0.808706664573094  0.8329358263462012  1.0000
  H   H5        1.0  0.666748434508925  0.019779069725529994  0.2962714602258743  1.0000
  H   H6        1.0  0.3332543971723608  0.9802269764275447  0.7037235741695014  1.0000
  H   H7        1.0  0.5746703511733812  0.9164861111947143  0.37906032419676444  1.0000
  H   H8        1.0  0.4253338248478968  0.08351056480415756  0.6209355723685235  1.0000
  H   H9        1.0  0.8095912333955437  0.9831901353795229  0.4147963784206611  1.0000
  H   H10       1.0  0.1904150247091181  0.01680858332380099  0.5851968548142069  1.0000
  H   H11       1.0  0.7976825643687419  0.9508040335048801  0.7261889007088983  1.0000
  H   H12       1.0  0.202316101718182  0.04920100967457589  0.2738079336490173  1.0000
  H   H13       1.0  0.958697879226868  0.053981468867398484  0.8817916118750162  1.0000
  H   H14       1.0  0.041301309703086805  0.946018301539034  0.11820006868567394  1.0000
  H   H15       1.0  0.02514175677379169  0.0048073379557749  0.7316990705442734  1.0000
  H   H16       1.0  0.9748649730968424  0.9951861733501343  0.26829440357602863  1.0000
  H   H17       1.0  0.6141811699348307  0.5446105159465515  0.1917223886166042  1.0000
  H   H18       1.0  0.3858290196346488  0.45539874722648926  0.8082827406328051  1.0000
  H   H19       1.0  0.6243258014348213  0.7168280251601328  0.19860125752200022  1.0000
  H   H20       1.0  0.37568441510078526  0.283178122889815  0.8014047010843726  1.0000
  H   H21       1.0  0.8237986404373602  0.6785460186429685  0.2498493415544374  1.0000
  H   H22       1.0  0.17620580584412684  0.32145803030612524  0.7501533687199711  1.0000
  H   H23       1.0  0.616209161351385  0.909076274907022  0.8673895037907756  1.0000
  H   H24       1.0  0.3837983431691968  0.09092244080322587  0.1326039017706719  1.0000
  H   H25       1.0  0.6487389228412467  0.8872718611229043  0.02094949036397517  1.0000
  H   H26       1.0  0.3512656099962611  0.11272899643155647  0.9790477554709582  1.0000
  H   H27       1.0  0.43112973025458945  0.823427443433388  0.9090016213317895  1.0000
  H   H28       1.0  0.5688821505306764  0.17657972447224776  0.0910030917726701  1.0000
  H   H29       1.0  0.5732469702307199  0.6149293329600167  0.399918522896705  1.0000
  H   H30       1.0  0.42673586063338576  0.38507375491842294  0.6000835747681705  1.0000
  H   H31       1.0  0.7787517558053452  0.7514745453487701  0.46332466102787606  1.0000
  H   H32       1.0  0.22123059763514868  0.24852759595245277  0.536685148261931  1.0000
  H   H33       1.0  0.5969260568092378  0.7788325511015369  0.5292690845138567  1.0000
  H   H34       1.0  0.40305762817560253  0.22116947824726893  0.4707319059647617  1.0000
  C   C1        1.0  0.7873776031979316  0.48896173221032746  0.6660543543813445  1.0000
  C   C2        1.0  0.21262194683105654  0.5110329724458466  0.33394925554387106  1.0000
  C   C3        1.0  0.7591954240327111  0.5530720229666243  0.7928234371441932  1.0000
  C   C4        1.0  0.2407925443514357  0.4469154555322346  0.2071816983842538  1.0000
  C   C5        1.0  0.7572121318348121  0.4597210979941692  0.8572622618943984  1.0000
  C   C6        1.0  0.24279532731912912  0.5402653533505697  0.14275064514287544  1.0000
  C   C7        1.0  0.7786021497595711  0.33447733953494196  0.7702393162599606  1.0000
  C   C8        1.0  0.22140779794342783  0.6655183531294993  0.2297633553355922  1.0000
  C   C9        1.0  0.797761205129106  0.3513617578021878  0.6534609560174189  1.0000
  C   C10       1.0  0.20223454606220045  0.64863303210474  0.3465484307244964  1.0000
  C   C11       1.0  0.8087909181447231  0.24181276238678606  0.535077646264547  1.0000
  C   C12       1.0  0.19120320142069144  0.7581840465159927  0.4649258628258935  1.0000
  C   C13       1.0  0.68394975819713  0.002842252053881101  0.38880274828401445  1.0000
  C   C14       1.0  0.31605551523896475  0.9971638534886647  0.6111980254471732  1.0000
  C   C15       1.0  0.7795426843549292  0.20750697219708056  0.795450722554861  1.0000
  C   C16       1.0  0.22047500924865904  0.7925022403297388  0.20455274331268922  1.0000
  C   C17       1.0  0.9228252708568192  0.0337495021566383  0.7760973047117972  1.0000
  C   C18       1.0  0.07717556672470469  0.9662482274620666  0.22389845527281693  1.0000
  C   C19       1.0  0.7587875845620428  0.490366499050914  0.9955298547721017  1.0000
  C   C20       1.0  0.24121405463556295  0.509633319849051  0.004466666010621582  1.0000
  C   C21       1.0  0.6914531754996601  0.6367094792232136  0.1814717302884433  1.0000
  C   C22       1.0  0.3085582789390385  0.3632966767295968  0.8185352997582883  1.0000
  C   C23       1.0  0.7490145441607368  0.6978030416015882  0.8507337512484483  1.0000
  C   C24       1.0  0.2509735334627478  0.3021873776853922  0.1492561691026069  1.0000
  C   C25       1.0  0.5704855316662856  0.8408992143050394  0.9170568318914576  1.0000
  C   C26       1.0  0.4295164302961894  0.15910482973425383  0.08294463461601961  1.0000
  C   C27       1.0  0.7455765630621514  0.5291857516901998  0.5537186801248524  1.0000
  C   C28       1.0  0.2544101752272637  0.47080015126027036  0.4462418461029074  1.0000
  C   C29       1.0  0.6635514990102745  0.7027967981781627  0.4880360181734602  1.0000
  C   C30       1.0  0.3364292483428456  0.297207329431103  0.5119652161235351  1.0000
  O   O1        1.0  0.9253794169262263  0.25326722795411877  0.4788434750161911  1.0000
  O   O2        1.0  0.07463092730201022  0.7467387566568032  0.5211489968835323  1.0000
  O   O3        1.0  0.6761767322918074  0.12274549559231214  0.49577809840035764  1.0000
  O   O4        1.0  0.3238236448917886  0.8772512656573067  0.5042235749816371  1.0000
  O   O5        1.0  0.911969267769308  0.15994132612629383  0.758030238538332  1.0000
  O   O6        1.0  0.08802490430075924  0.8400523349655836  0.241971402567735  1.0000
  O   O7        1.0  0.6744567715548299  0.1480744866884578  0.8394856975665091  1.0000
  O   O8        1.0  0.32557112750573913  0.8519251603977119  0.16050545093656854  1.0000
  O   O9        1.0  0.8065917486416936  0.4230050893861798  0.05849755085317547  1.0000
  O   O10       1.0  0.19338871142554126  0.5769916870647407  0.9414986679622572  1.0000
  O   O11       1.0  0.7013902757754594  0.6010867509381868  0.04706839684418907  1.0000
  O   O12       1.0  0.2986300000712204  0.39891309933729235  0.9529370026336252  1.0000
  O   O13       1.0  0.5874967219328581  0.702597941826532  0.852178147405084  1.0000
  O   O14       1.0  0.41249439047051345  0.29740413493946954  0.14782927171565774  1.0000
  O   O15       1.0  0.8775014519971692  0.8031615894588027  0.8949168046353648  1.0000
  O   O16       1.0  0.12249810368945896  0.19683926917199554  0.10507885277948502  1.0000
  O   O17       1.0  0.7200178984980778  0.6562458329314607  0.5912755370553455  1.0000
  O   O18       1.0  0.279956010231551  0.34376060894025057  0.4087425072420602  1.0000
  O   O19       1.0  0.7256679463048382  0.45406839958648226  0.43646628222926864  1.0000
  O   O20       1.0  0.2743306445941157  0.5459336592211058  0.5635421708509298  1.0000
  O   O21       1.0  0.846146842976509  0.19564629675814152  0.20978182084128602  1.0000
  O   O22       1.0  0.15384978359125498  0.804356649237185  0.7902131812781619  1.0000
