data_image0
_chemical_formula_structural       Cd2H12C16I4N8Cl4
_chemical_formula_sum              "Cd2 H12 C16 I4 N8 Cl4"
_cell_length_a       4.123861228286314
_cell_length_b       10.530051022000595
_cell_length_c       17.023291457556688
_cell_angle_alpha    90.00001486345701
_cell_angle_beta     91.9999343672692
_cell_angle_gamma    90.00003048584871

_space_group_name_H-M_alt    "P 1"
_space_group_IT_number       1

loop_
  _space_group_symop_operation_xyz
  'x, y, z'

loop_
  _atom_site_type_symbol
  _atom_site_label
  _atom_site_symmetry_multiplicity
  _atom_site_fract_x
  _atom_site_fract_y
  _atom_site_fract_z
  _atom_site_occupancy
  Cd  Cd1       1.0  0.5000019166137335  0.9999991210871572  0.5000004636480853  1.0000
  Cd  Cd2       1.0  0.49999996790209167  0.5000007195121017  0.9999996924277567  1.0000
  H   H1        1.0  0.35318343124617974  0.3047878488883741  0.4862882975942497  1.0000
  H   H2        1.0  0.646811476119012  0.804786282241324  0.0137085240393517  1.0000
  H   H3        1.0  0.6468098546051237  0.6952133393287315  0.5137089556273368  1.0000
  H   H4        1.0  0.3531988116658055  0.19521205698880106  0.9862912153341201  1.0000
  H   H5        1.0  0.5821719905545704  0.052936242217441504  0.3073014204542305  1.0000
  H   H6        1.0  0.41783710720183354  0.5529404244944445  0.1927013566934761  1.0000
  H   H7        1.0  0.4178359010015455  0.9470601976874777  0.6927024117110889  1.0000
  H   H8        1.0  0.58216834935763  0.4470636127140892  0.8073012810707142  1.0000
  H   H9        1.0  0.5539715187684138  0.23437503221612838  0.2093230387686162  1.0000
  H   H10       1.0  0.44602086454231227  0.7343849663990909  0.2906761032049516  1.0000
  H   H11       1.0  0.44601936222960586  0.7656147600453311  0.7906771323122115  1.0000
  H   H12       1.0  0.5539772913201091  0.2656228694601238  0.7093235388204562  1.0000
  C   C1        1.0  0.36679750279140677  0.38545694514645124  0.3679008845280833  1.0000
  C   C2        1.0  0.633197506068221  0.8854601838889309  0.1320918363636778  1.0000
  C   C3        1.0  0.6331884909734808  0.6145404444175213  0.6320945478860979  1.0000
  C   C4        1.0  0.36680790740713576  0.1145438533181249  0.8679049267408914  1.0000
  C   C5        1.0  0.39599761976013775  0.2886578106375596  0.424190238101275  1.0000
  C   C6        1.0  0.6040045792151502  0.7886562678798941  0.0758119268318609  1.0000
  C   C7        1.0  0.6039957091744909  0.7113424279180125  0.5758128897798613  1.0000
  C   C8        1.0  0.39600328218440944  0.211343021013036  0.9241877930719298  1.0000
  C   C9        1.0  0.5254033134327116  0.1498683458252543  0.3252319199501272  1.0000
  C   C10       1.0  0.4746010983577662  0.6498715790734977  0.1747720070318408  1.0000
  C   C11       1.0  0.47459972535288836  0.8501299934052755  0.6747718732758301  1.0000
  C   C12       1.0  0.5254092152813854  0.3501315084725861  0.8252312571377376  1.0000
  C   C13       1.0  0.5055660312692681  0.24951362176308586  0.27125287203707427  1.0000
  C   C14       1.0  0.4944312122847803  0.749522583428167  0.22874396117386914  1.0000
  C   C15       1.0  0.4944296852671712  0.7504761704982033  0.7287449881194095  1.0000
  C   C16       1.0  0.5055693785781726  0.25048240344251144  0.7712568752530089  1.0000
  I   I1        1.0  0.9966468936811734  0.8656455649605166  0.4074201252555127  1.0000
  I   I2        1.0  0.0033578530179382993  0.36564972377265553  0.09258148267567631  1.0000
  I   I3        1.0  0.0033609677168441993  0.13435182460639084  0.5925795946481429  1.0000
  I   I4        1.0  0.9966475906170729  0.6343552630984491  0.9074193926906988  1.0000
  N   N1        1.0  0.42535838387641417  0.3678986117506114  0.29262092103616066  1.0000
  N   N2        1.0  0.574634213027444  0.8679028279861929  0.20737765253820586  1.0000
  N   N3        1.0  0.5746276357381531  0.6320978281512311  0.7073780361737222  1.0000
  N   N4        1.0  0.42536879560393703  0.13210120922138913  0.7926220284264218  1.0000
  N   N5        1.0  0.47345503310463494  0.17125002336565132  0.401652279866724  1.0000
  N   N6        1.0  0.5265493704974773  0.6712551264160213  0.0983457755090669  1.0000
  N   N7        1.0  0.5265455534437037  0.8287473662007657  0.5983479690936448  1.0000
  N   N8        1.0  0.47346092159884984  0.3287470114663123  0.9016545513306369  1.0000
  Cl  Cl1       1.0  0.24249086632855918  0.5351751147443766  0.396599267513821  1.0000
  Cl  Cl2       1.0  0.7574987224187806  0.03517845723025201  0.1033939518841507  1.0000
  Cl  Cl3       1.0  0.757495118819513  0.4648222748192978  0.6033949899684361  1.0000
  Cl  Cl4       1.0  0.24249456343329706  0.9648236806498716  0.8966033013374997  1.0000
