data_image0
_chemical_formula_structural       Hg2H28C26N8Cl4O2
_chemical_formula_sum              "Hg2 H28 C26 N8 Cl4 O2"
_cell_length_a       4.445125624000966
_cell_length_b       14.41445205985496
_cell_length_c       15.133806289216793
_cell_angle_alpha    106.26909469068224
_cell_angle_beta     90.00005301433406
_cell_angle_gamma    89.9999342379567

_space_group_name_H-M_alt    "P 1"
_space_group_IT_number       1

loop_
  _space_group_symop_operation_xyz
  'x, y, z'

loop_
  _atom_site_type_symbol
  _atom_site_label
  _atom_site_symmetry_multiplicity
  _atom_site_fract_x
  _atom_site_fract_y
  _atom_site_fract_z
  _atom_site_occupancy
  Hg  Hg1       1.0  0.30026815587455497  0.250000089488168  0.24999999425998704  1.0000
  Hg  Hg2       1.0  0.6997347846489745  0.7500002984600157  0.7499999631626861  1.0000
  H   H1        1.0  0.9409748384848411  0.16015299753414072  0.3876025110339966  1.0000
  H   H2        1.0  0.9409740770485087  0.3398469948683172  0.11239694297141505  1.0000
  H   H3        1.0  0.05902810203972558  0.8398466677415186  0.6123972493621395  1.0000
  H   H4        1.0  0.059026613815682076  0.660154129513387  0.8876012328723915  1.0000
  H   H5        1.0  0.7729820065793191  0.20672462892267157  0.5524448165702012  1.0000
  H   H6        1.0  0.7729779625604605  0.293275831547028  0.9475559437639091  1.0000
  H   H7        1.0  0.22701868429004424  0.7932750363533289  0.4475549438257217  1.0000
  H   H8        1.0  0.22702497796100826  0.7067252836605672  0.052443551150240325  1.0000
  H   H9        1.0  0.2102033060334776  0.48170544473195775  0.5871963497746717  1.0000
  H   H10       1.0  0.21020242162686736  0.018295901733232298  0.9128051573067919  1.0000
  H   H11       1.0  0.7897996344921268  0.5182942159568141  0.41280407015652537  1.0000
  H   H12       1.0  0.7897960195872995  0.9817051997143764  0.08719631621210051  1.0000
  H   H13       1.0  0.36460823932443986  0.42310114599160203  0.42013935139819836  1.0000
  H   H14       1.0  0.36459710191756756  0.0768982819436346  0.07986177171890319  1.0000
  H   H15       1.0  0.6353969508563679  0.5768985146968433  0.5798610685332191  1.0000
  H   H16       1.0  0.6353923406768088  0.9231020968327925  0.920139504772571  1.0000
  H   H17       1.0  0.06588825946252541  0.41698838954598466  0.7252378468686655  1.0000
  H   H18       1.0  0.0658934542736631  0.08301155921790129  0.7747625784651787  1.0000
  H   H19       1.0  0.9341101817505899  0.5830112803172368  0.27476125399196855  1.0000
  H   H20       1.0  0.9341072365967378  0.916988101471219  0.22523784146580536  1.0000
  H   H21       1.0  0.7137708509465169  0.4455886415695788  0.6882889752131688  1.0000
  H   H22       1.0  0.7137717674747959  0.054411123066842  0.8117102574709419  1.0000
  H   H23       1.0  0.28623208957804985  0.5544103056204507  0.3117099286213757  1.0000
  H   H24       1.0  0.2862289233945603  0.9455885422091584  0.18828950292498087  1.0000
  H   H25       1.0  0.49685939844192006  0.3092296494251768  0.7203609263032147  1.0000
  H   H26       1.0  0.49685971011400903  0.19076945725638686  0.7796380670285428  1.0000
  H   H27       1.0  0.5031435420816094  0.6907700204373768  0.27963817455786705  1.0000
  H   H28       1.0  0.5031409807563847  0.8092294853470888  0.22036149634083554  1.0000
  C   C1        1.0  0.9987459284792664  0.2300143198379629  0.43488327721232867  1.0000
  C   C2        1.0  0.9987452784206922  0.2699849280685243  0.0651166505744456  1.0000
  C   C3        1.0  0.0012592617005112  0.7699853454373694  0.5651164831840275  1.0000
  C   C4        1.0  0.0012509131392874997  0.7300147326212567  0.9348837693560907  1.0000
  C   C5        1.0  0.9044787184875884  0.2571266131304667  0.5262186118601518  1.0000
  C   C6        1.0  0.9044726931615941  0.24287309919439076  0.9737799985008875  1.0000
  C   C7        1.0  0.0955264716921818  0.7428723340592286  0.4737802919746058  1.0000
  C   C8        1.0  0.09552349839631799  0.7571265706691718  0.02621910235953342  1.0000
  C   C9        1.0  0.9755609925192769  0.34898511808878413  0.5830714536571477  1.0000
  C   C10       1.0  0.9755618791611763  0.15101602295889896  0.9169269050928077  1.0000
  C   C11       1.0  0.0244419480063272  0.6510145425999951  0.41692896627404946  1.0000
  C   C12       1.0  0.0244343123977728  0.8489836423177763  0.08307285530266735  1.0000
  C   C13       1.0  0.1466866081779514  0.4097845077426072  0.5448716175647661  1.0000
  C   C14       1.0  0.1466788403615311  0.0902161395887759  0.9551290205604629  1.0000
  C   C15       1.0  0.8533185820028563  0.5902151529458307  0.4551288023666513  1.0000
  C   C16       1.0  0.8533173511943204  0.9097849756198214  0.044870474353025665  1.0000
  C   C17       1.0  0.2329900463350612  0.3783881164630074  0.4533191530221642  1.0000
  C   C18       1.0  0.23298088963324654  0.12161135074146048  0.046681944412583186  1.0000
  C   C19       1.0  0.7670128941895057  0.6216115488126589  0.5466806073739717  1.0000
  C   C20       1.0  0.7670108026152959  0.8783890326215128  0.953318672544057  1.0000
  C   C21       1.0  0.8719082162803601  0.38507099613352835  0.6820358506951152  1.0000
  C   C22       1.0  0.8719111778555797  0.11492871673392807  0.8179640723814714  1.0000
  C   C23       1.0  0.12809247459003356  0.6149286645555846  0.3179645692358618  1.0000
  C   C24       1.0  0.12808951301274618  0.8850709531289594  0.1820350284793902  1.0000
  C   C25       1.0  0.8882995600685532  0.2500002153249525  0.7500000616506312  1.0000
  C   C26       1.0  0.11170113080080307  0.749999449951048  0.24999969874528458  1.0000
  N   N1        1.0  0.15820258756409797  0.2902236471582711  0.3991776038624408  1.0000
  N   N2        1.0  0.15819102343372285  0.20977583777321482  0.10082413851391439  1.0000
  N   N3        1.0  0.8418003529614992  0.7097760135305079  0.6008228160687563  1.0000
  N   N4        1.0  0.8418029184689997  0.7902252682619488  0.8991766754694763  1.0000
  N   N5        1.0  0.7271183451431327  0.3138272878345774  0.7177580950008817  1.0000
  N   N6        1.0  0.727118681950003  0.18617246823269076  0.7822417998227206  1.0000
  N   N7        1.0  0.2728823457262237  0.6861723774414231  0.2822416653950412  1.0000
  N   N8        1.0  0.2728820089203978  0.8138271924564222  0.21775862010825617  1.0000
  Cl  Cl1       1.0  0.6432908245073604  0.39953846346747923  0.26222430642392414  1.0000
  Cl  Cl2       1.0  0.6432890904947824  0.10046233125070357  0.23777660559121463  1.0000
  Cl  Cl3       1.0  0.356712116016169  0.6004619244807047  0.7377756509987492  1.0000
  Cl  Cl4       1.0  0.35670935072040777  0.8995373294387433  0.7622238143395419  1.0000
  O   O1        1.0  0.17181587222725617  0.2500003222097789  0.7499999917471881  1.0000
  O   O2        1.0  0.8281848186421  0.7499993430662215  0.24999976864872758  1.0000
