data_image0
_chemical_formula_structural       Ag4H24C24N4O16
_chemical_formula_sum              "Ag4 H24 C24 N4 O16"
_cell_length_a       5.574899674428423
_cell_length_b       9.8112688588475
_cell_length_c       13.094953286935132
_cell_angle_alpha    89.9989137720746
_cell_angle_beta     89.9996439312266
_cell_angle_gamma    96.38400465478517

_space_group_name_H-M_alt    "P 1"
_space_group_IT_number       1

loop_
  _space_group_symop_operation_xyz
  'x, y, z'

loop_
  _atom_site_type_symbol
  _atom_site_label
  _atom_site_symmetry_multiplicity
  _atom_site_fract_x
  _atom_site_fract_y
  _atom_site_fract_z
  _atom_site_occupancy
  Ag  Ag1       1.0  0.6093863993624922  0.24414409465835962  0.3778689999222848  1.0000
  Ag  Ag2       1.0  0.8906181074784312  0.7558508309977796  0.8778656412651671  1.0000
  Ag  Ag3       1.0  0.39059403386837477  0.7558557429504732  0.6221312840066419  1.0000
  Ag  Ag4       1.0  0.1094194110195588  0.24414678270812828  0.12213616998062093  1.0000
  H   H1        1.0  0.6702295509037413  0.9918860984957191  0.3155931918751307  1.0000
  H   H2        1.0  0.8297606122820936  0.0081205400217499  0.8156056861489064  1.0000
  H   H3        1.0  0.32973855135550406  0.008103326767873398  0.6844154923105921  1.0000
  H   H4        1.0  0.17028656466788306  0.9918935841201559  0.18439994324505454  1.0000
  H   H5        1.0  0.7509700569526601  0.7483175572056098  0.3026166126793584  1.0000
  H   H6        1.0  0.7490359584135716  0.25168455429919584  0.802640973903486  1.0000
  H   H7        1.0  0.24902111613767627  0.2516701638727099  0.6973745074980684  1.0000
  H   H8        1.0  0.250985991018254  0.748316920735114  0.1973669465402494  1.0000
  H   H9        1.0  0.07854447259863656  0.6200756227802415  0.4574291169927633  1.0000
  H   H10       1.0  0.4214740580316913  0.37993114696364216  0.9574325581279766  1.0000
  H   H11       1.0  0.9214670453918501  0.3799400195181519  0.5425711668226683  1.0000
  H   H12       1.0  0.5785324767361287  0.6200752149246611  0.0425616165292269  1.0000
  H   H13       1.0  0.9987210777621555  0.8651159613570271  0.47254001359431197  1.0000
  H   H14       1.0  0.5012901534877229  0.134882623772711  0.9725431457208914  1.0000
  H   H15       1.0  0.0012801655450899983  0.1348790695358204  0.5274541611428633  1.0000
  H   H16       1.0  0.49873770402210477  0.8651342835442224  0.027444155983779705  1.0000
  H   H17       1.0  0.10469385386682008  0.3258234855520498  0.338429610330401  1.0000
  H   H18       1.0  0.39531892661720747  0.6741813245493091  0.8384266338625538  1.0000
  H   H19       1.0  0.8952913579530271  0.6741723307382159  0.6615836557268936  1.0000
  H   H20       1.0  0.6047163816021736  0.3258254630301067  0.1615851048076564  1.0000
  H   H21       1.0  0.09358453861531049  0.16738093876823257  0.3483559211011382  1.0000
  H   H22       1.0  0.4064297056414432  0.8326236227688072  0.8483491911514704  1.0000
  H   H23       1.0  0.9064009814681951  0.8326169281285728  0.6516497084120019  1.0000
  H   H24       1.0  0.5936160848815604  0.167381274268358  0.1516457471657517  1.0000
  C   C1        1.0  0.3296646826306073  0.946990808873672  0.39582520726092  1.0000
  C   C2        1.0  0.17032725478475902  0.0530059919904886  0.8958264064096612  1.0000
  C   C3        1.0  0.6703015177810343  0.0530098410075936  0.6041758403164508  1.0000
  C   C4        1.0  0.8296879130265608  0.9469861759810455  0.1041776958351051  1.0000
  C   C5        1.0  0.5426026276202052  0.9097761662650186  0.34681954877662957  1.0000
  C   C6        1.0  0.9573930600184114  0.09022561191553538  0.8468301057091452  1.0000
  C   C7        1.0  0.45736984193941044  0.09021843869320631  0.6531746259659031  1.0000
  C   C8        1.0  0.04263161220318064  0.9097820412628365  0.1531762873850653  1.0000
  C   C9        1.0  0.587958474325866  0.7753941852728726  0.3393061430819202  1.0000
  C   C10       1.0  0.9120295028340807  0.2246025684987885  0.8393171119022753  1.0000
  C   C11       1.0  0.4119995578966922  0.224587930324418  0.660688795402436  1.0000
  C   C12       1.0  0.08800118087665246  0.7754092656601016  0.1606808809793918  1.0000
  C   C13       1.0  0.4221947010895732  0.6704935202976331  0.3804326602316693  1.0000
  C   C14       1.0  0.07778172407051188  0.3295044930134949  0.8804353384621635  1.0000
  C   C15       1.0  0.5777458602578421  0.32950368127748664  0.6195584598833719  1.0000
  C   C16       1.0  0.9222333404068974  0.670498926323674  0.11955196333824603  1.0000
  C   C17       1.0  0.20890522816902285  0.7026106153175035  0.4295017377234133  1.0000
  C   C18       1.0  0.2910789966709899  0.2973892462322211  0.9295063590489362  1.0000
  C   C19       1.0  0.7910629750939291  0.29740336279687085  0.5705008370661773  1.0000
  C   C20       1.0  0.708929131848123  0.702603840569509  0.07049316127212531  1.0000
  C   C21       1.0  0.16345681608107296  0.8381318438970241  0.4365286884854669  1.0000
  C   C22       1.0  0.336542894855171  0.16186498661999588  0.9365352049164671  1.0000
  C   C23       1.0  0.8365509007761106  0.16187044361087288  0.5634654862002364  1.0000
  C   C24       1.0  0.6634537236859687  0.8381350906405846  0.0634604970916044  1.0000
  N   N1        1.0  0.4720595034625246  0.5338530621728736  0.3738455810748178  1.0000
  N   N2        1.0  0.027937233850465756  0.4661474771105673  0.8738486401731222  1.0000
  N   N3        1.0  0.5278858365639819  0.4661401181577888  0.6261531755977786  1.0000
  N   N4        1.0  0.9720962762671447  0.5338592840596803  0.1261478254379753  1.0000
  O   O1        1.0  0.28791970667959527  0.07381233784924039  0.40447436424357625  1.0000
  O   O2        1.0  0.21209367358655123  0.9261855679455022  0.9044716982829187  1.0000
  O   O3        1.0  0.7120484461716144  0.9261893639138491  0.5955259196732712  1.0000
  O   O4        1.0  0.7879483156358091  0.0738059741635197  0.09552705839323042  1.0000
  O   O5        1.0  0.6644189672167896  0.5048969713690427  0.33265814544395766  1.0000
  O   O6        1.0  0.8355737552826101  0.49510617155610975  0.8326638020221253  1.0000
  O   O7        1.0  0.3355369556407553  0.4951188708784215  0.667345956639501  1.0000
  O   O8        1.0  0.1644468075677636  0.5048860762464074  0.1673425911805566  1.0000
  O   O9        1.0  0.32356484918260253  0.4394254875944909  0.4123053471096796  1.0000
  O   O10       1.0  0.17643326385699956  0.5605678870330593  0.9123070561782073  1.0000
  O   O11       1.0  0.6764074156403481  0.56055581555038  0.5877018098267683  1.0000
  O   O12       1.0  0.8235797443320364  0.4394457313644224  0.0876947549572549  1.0000
  O   O13       1.0  0.008002329235630188  0.24085881652044344  0.3161315478922546  1.0000
  O   O14       1.0  0.4920072981848164  0.7591445081582362  0.8161258354185819  1.0000
  O   O15       1.0  0.991987403900552  0.7591432046724407  0.6838702633265257  1.0000
  O   O16       1.0  0.5080230269921131  0.24085299915930147  0.18386910295178896  1.0000
