data_image0
_chemical_formula_structural       Zn4P8H48C32N16O32
_chemical_formula_sum              "Zn4 P8 H48 C32 N16 O32"
_cell_length_a       7.074720624011247
_cell_length_b       12.400213089020296
_cell_length_c       15.593756005012732
_cell_angle_alpha    90.00010847229291
_cell_angle_beta     90.00009848411786
_cell_angle_gamma    89.99982217175314

_space_group_name_H-M_alt    "P 1"
_space_group_IT_number       1

loop_
  _space_group_symop_operation_xyz
  'x, y, z'

loop_
  _atom_site_type_symbol
  _atom_site_label
  _atom_site_symmetry_multiplicity
  _atom_site_fract_x
  _atom_site_fract_y
  _atom_site_fract_z
  _atom_site_occupancy
  Zn  Zn1       1.0  0.9999995077527614  0.5000007886162192  0.5000002534672348  1.0000
  Zn  Zn2       1.0  1.4134845897999995e-06  0.9999999999995023  6.412828667999996e-07  1.0000
  Zn  Zn3       1.0  0.4999994893086636  1.4915150359999998e-07  0.5000003231100081  1.0000
  Zn  Zn4       1.0  0.5000004987461607  0.5000002161646576  0.999999545267066  1.0000
  P   P1        1.0  0.7546247156945964  0.6409643152627993  0.8427778473756077  1.0000
  P   P2        1.0  0.24537056151969233  0.8590346204571658  0.3427789674822748  1.0000
  P   P3        1.0  0.7453735196248488  0.1409664550724301  0.15722101771809346  1.0000
  P   P4        1.0  0.25462517013199454  0.35903309472087114  0.6572204773851098  1.0000
  P   P5        1.0  0.2453743880144685  0.3590357339300779  0.1572216282475267  1.0000
  P   P6        1.0  0.7546285421896216  0.14096623517499293  0.6572217907061031  1.0000
  P   P7        1.0  0.2546241706039821  0.8590319812454364  0.8427778166209592  1.0000
  P   P8        1.0  0.7453711066124951  0.6409661480367744  0.34277899823631935  1.0000
  H   H1        1.0  0.9721385319128686  0.5615733694418095  0.6908183317305472  1.0000
  H   H2        1.0  0.0278604101822992  0.9384308498057476  0.1908206843368347  1.0000
  H   H3        1.0  0.5278587189467173  0.06156900057500539  0.3091791311907386  1.0000
  H   H4        1.0  0.4721419598530829  0.4384292978751957  0.8091808039905217  1.0000
  H   H5        1.0  0.027860571790625992  0.438428292625815  0.3091805026114827  1.0000
  H   H6        1.0  0.9721443474564138  0.06157242513615558  0.8091813564202042  1.0000
  H   H7        1.0  0.47213897128089843  0.9384294357421014  0.6908190618660015  1.0000
  H   H8        1.0  0.5278571438513707  0.5615715577539075  0.19081738906858448  1.0000
  H   H9        1.0  0.40341197469641793  0.6743486091339433  0.7394780558803831  1.0000
  H   H10       1.0  0.5965814977828144  0.8256500808234506  0.23948068222287588  1.0000
  H   H11       1.0  0.09658192798214321  0.1743488406227627  0.2605223933226952  1.0000
  H   H12       1.0  0.9034185665136575  0.3256517613746792  0.760520384947327  1.0000
  H   H13       1.0  0.596587129011681  0.3256522464974551  0.2605220610256822  1.0000
  H   H14       1.0  0.40341760593764764  0.1743475490592203  0.7605213585277042  1.0000
  H   H15       1.0  0.9034185892115117  0.8256512085696169  0.739477723583306  1.0000
  H   H16       1.0  0.09658195068339379  0.6743474813807064  0.2394803732403901  1.0000
  H   H17       1.0  0.5791911291427425  0.5865811221230856  0.4955278516699053  1.0000
  H   H18       1.0  0.42080896706858073  0.9134197898842373  0.9955294467485132  1.0000
  H   H19       1.0  0.9208045730991044  0.08657813031373247  0.5044722140552764  1.0000
  H   H20       1.0  0.07919495159350019  0.4134210560649691  0.004470721337760599  1.0000
  H   H21       1.0  0.4208079745631821  0.41342053994606676  0.5044722652367639  1.0000
  H   H22       1.0  0.5791915501262891  0.08658025930890288  0.0044713114398078  1.0000
  H   H23       1.0  0.07919311712997511  0.9134211124434157  0.4955279028490196  1.0000
  H   H24       1.0  0.920811219532446  0.5865789931216127  0.9955287542881308  1.0000
  H   H25       1.0  0.7350932214909276  0.3553913480957716  0.4454358938947465  1.0000
  H   H26       1.0  0.2649079733811348  0.14460969384138878  0.9454363211165173  1.0000
  H   H27       1.0  0.7649024416410766  0.855391730007504  0.5545632942310448  1.0000
  H   H28       1.0  0.23509739786956627  0.6446081328763285  0.05456344200568  1.0000
  H   H29       1.0  0.26490588221595596  0.6446095075348595  0.5545635817289991  1.0000
  H   H30       1.0  0.7350939572971171  0.8553903553504937  0.0545644370723579  1.0000
  H   H31       1.0  0.23509383510244672  0.14460831918866288  0.44543682267330814  1.0000
  H   H32       1.0  0.7649045328040741  0.35539272275178746  0.9454360336191668  1.0000
  H   H33       1.0  0.80973248684473  0.3188000859250337  0.53877197172541  1.0000
  H   H34       1.0  0.19027423517727726  0.18120079492985738  0.0387727809412013  1.0000
  H   H35       1.0  0.6902676144674659  0.8188003788201851  0.4612271612772929  1.0000
  H   H36       1.0  0.30972952486094835  0.6811988387048797  0.9612263960222549  1.0000
  H   H37       1.0  0.19026944382986946  0.6811999632645604  0.46122686261651313  1.0000
  H   H38       1.0  0.8097276954975783  0.8188000606990186  0.9612273359659583  1.0000
  H   H39       1.0  0.30973007575725836  0.18120047681247087  0.5387729556282181  1.0000
  H   H40       1.0  0.6902709923314987  0.31880121048673965  0.0387730796014338  1.0000
  H   H41       1.0  0.07060471799478311  0.6685797856323672  0.8534446914706635  1.0000
  H   H42       1.0  0.9293920131083125  0.8314175625886618  0.3534456622654433  1.0000
  H   H43       1.0  0.42939769674629946  0.16858318491123467  0.1465544664827476  1.0000
  H   H44       1.0  0.5706023660860706  0.33141795237695243  0.6465522071787008  1.0000
  H   H45       1.0  0.9293957992032347  0.3314186506845047  0.1465554254341228  1.0000
  H   H46       1.0  0.07060709060389309  0.1685808737279402  0.6465531720741636  1.0000
  H   H47       1.0  0.5706014069651886  0.8314168642831703  0.8534462917050262  1.0000
  H   H48       1.0  0.42939249717382916  0.6685812903811904  0.3534466271598546  1.0000
  C   C1        1.0  0.8295674337293661  0.5840545388027251  0.6714887614232481  1.0000
  C   C2        1.0  0.17043143516486478  0.9159456022682165  0.1714911913719561  1.0000
  C   C3        1.0  0.6704296956407916  0.08405318753573707  0.328509376650473  1.0000
  C   C4        1.0  0.3295682293994773  0.4159459633410518  0.8285083392348015  1.0000
  C   C5        1.0  0.17043308345993322  0.4159471232651625  0.3285113554839755  1.0000
  C   C6        1.0  0.8295704955080582  0.0840568662376953  0.8285102081010578  1.0000
  C   C7        1.0  0.32957223503720456  0.915946055216864  0.6714900989731589  1.0000
  C   C8        1.0  0.6704322877871435  0.5840548922860334  0.1714892125425393  1.0000
  C   C9        1.0  0.6974731753882749  0.6237459796304846  0.7300724446952884  1.0000
  C   C10       1.0  0.3025202614641387  0.8762534943871214  0.2300749178870944  1.0000
  C   C11       1.0  0.8025237394954344  0.12374747927292157  0.2699276770226291  1.0000
  C   C12       1.0  0.1974796175941904  0.3762531451010672  0.769927759334621  1.0000
  C   C13       1.0  0.30252592831885744  0.376255682439428  0.2699283134937005  1.0000
  C   C14       1.0  0.6974802557300207  0.12374816768382149  0.7699277641494007  1.0000
  C   C15       1.0  0.19747677769700536  0.8762525699186977  0.7300717986010596  1.0000
  C   C16       1.0  0.8025223130852694  0.6237469040915825  0.23007364013656684  1.0000
  C   C17       1.0  0.5172539209225632  0.6467061907196052  0.6974163722109168  1.0000
  C   C18       1.0  0.4827436326966249  0.8532923991636918  0.1974195926774911  1.0000
  C   C19       1.0  0.982738629444931  0.14670583393440498  0.3025837840934642  1.0000
  C   C20       1.0  0.017259197396228398  0.3532932552588404  0.802580484826116  1.0000
  C   C21       1.0  0.4827451827855355  0.3532946649117931  0.3025837446951485  1.0000
  C   C22       1.0  0.5172597114671759  0.14670684358917893  0.8025811655113273  1.0000
  C   C23       1.0  0.0172590607863299  0.8532926023849893  0.6974163328102279  1.0000
  C   C24       1.0  0.9827413197996081  0.6467059874957855  0.1974196320792814  1.0000
  C   C25       1.0  0.6128109315479976  0.5968963179747958  0.5631966240490272  1.0000
  C   C26       1.0  0.3871889406665402  0.903103565451907  0.0631992037339586  1.0000
  C   C27       1.0  0.8871847149488372  0.0968940315363795  0.4368021746518735  1.0000
  C   C28       1.0  0.11281079329236117  0.40310457054968646  0.9368009488090934  1.0000
  C   C29       1.0  0.38718958564566447  0.4031037312175839  0.4368034928569812  1.0000
  C   C30       1.0  0.6128144034950865  0.09689648373871758  0.9368015544554708  1.0000
  C   C31       1.0  0.11281297527999357  0.9031044047814872  0.5631966596871791  1.0000
  C   C32       1.0  0.8871883104179189  0.596895478643958  0.0631991680963608  1.0000
  N   N1        1.0  0.7868942527752407  0.5693603755767069  0.5883221124311716  1.0000
  N   N2        1.0  0.213104301115763  0.9306411805039398  0.0883245978050482  1.0000
  N   N3        1.0  0.7131029560024443  0.06935753323318038  0.4116760035046951  1.0000
  N   N4        1.0  0.2868966975225007  0.43064181550968056  0.9116762375059649  1.0000
  N   N5        1.0  0.21310343744487173  0.4306412864921823  0.411676721910311  1.0000
  N   N6        1.0  0.7868962160750002  0.06936128800398929  0.9116774429497383  1.0000
  N   N7        1.0  0.28689473422299727  0.9306417095216728  0.5883221895526418  1.0000
  N   N8        1.0  0.7131066466311252  0.5693598465541638  0.0883225968377204  1.0000
  N   N9        1.0  0.47615111187226217  0.6349426207621744  0.6141387841977491  1.0000
  N   N10       1.0  0.5238432993509221  0.8650581903048574  0.1141401306021308  1.0000
  N   N11       1.0  0.023844417234933194  0.13494086079862908  0.38586160563932037  1.0000
  N   N12       1.0  0.9761565519959345  0.3650592329634248  0.8858609959358504  1.0000
  N   N13       1.0  0.5238465783524616  0.3650582348704744  0.38586133270776196  1.0000
  N   N14       1.0  0.4761558043630032  0.13494185889107504  0.8858619101502754  1.0000
  N   N15       1.0  0.9761560999630845  0.8650575755182429  0.6141385112654731  1.0000
  N   N16       1.0  0.023846792164469794  0.6349408162264394  0.1141391209712594  1.0000
  O   O1        1.0  0.6346782366557376  0.5613618155053572  0.8912452169581684  1.0000
  O   O2        1.0  0.3653172241343796  0.9386364290882124  0.39124655055052676  1.0000
  O   O3        1.0  0.86532466926991  0.06136362619110258  0.1087554520628657  1.0000
  O   O4        1.0  0.13467525040516648  0.4386358082949115  0.6087555793656989  1.0000
  O   O5        1.0  0.3653208670499311  0.4386390401245136  0.1087536173832575  1.0000
  O   O6        1.0  0.6346804660983452  0.0613628136712165  0.6087554902007213  1.0000
  O   O7        1.0  0.13467302096666597  0.9386323908142625  0.8912440235566805  1.0000
  O   O8        1.0  0.8653196128552308  0.5613650473417875  0.39124582010335024  1.0000
  O   O9        1.0  0.9693824150322213  0.6076566395267802  0.849345278268558  1.0000
  O   O10       1.0  0.030611473576179497  0.8923406989429307  0.3493456397461969  1.0000
  O   O11       1.0  0.5306174137567367  0.10765834008783765  0.1506528953650843  1.0000
  O   O12       1.0  0.46938266460211514  0.39234200051414797  0.6506512901690442  1.0000
  O   O13       1.0  0.030616688684595796  0.3923409903535953  0.1506548386350701  1.0000
  O   O14       1.0  0.9693876301350668  0.10765854381219236  0.6506538358763337  1.0000
  O   O15       1.0  0.469383103441281  0.8923400962290343  0.849347221539702  1.0000
  O   O16       1.0  0.530613612133159  0.6076588551159572  0.3493456203243284  1.0000
  O   O17       1.0  0.7339790952639689  0.7606042389561122  0.8644423699970716  1.0000
  O   O18       1.0  0.26601767749375677  0.7393939418693023  0.36444460853552846  1.0000
  O   O19       1.0  0.7660199070411408  0.26060467754547284  0.1355573166155608  1.0000
  O   O20       1.0  0.23398152763041213  0.23939401426537896  0.6355559386603176  1.0000
  O   O21       1.0  0.26602566237764336  0.2393966166702483  0.1355577469111964  1.0000
  O   O22       1.0  0.7339814262199127  0.26060530088734163  0.6355561496516344  1.0000
  O   O23       1.0  0.23398061015733868  0.7393913394543217  0.8644395938758151  1.0000
  O   O24       1.0  0.7660133356251322  0.7606068413682717  0.36444289567945276  1.0000
  O   O25       1.0  0.8479839753161611  0.35420260454249314  0.4843688278488187  1.0000
  O   O26       1.0  0.15202019398684996  0.1457977235823193  0.9843698100832795  1.0000
  O   O27       1.0  0.6520145212071852  0.8542030950584729  0.5156309997696341  1.0000
  O   O28       1.0  0.3479837573595289  0.6457974816387375  0.0156312373937553  1.0000
  O   O29       1.0  0.1520151283929039  0.6457974446503839  0.5156306477743158  1.0000
  O   O30       1.0  0.8479817366935761  0.854201519171809  0.0156309481049846  1.0000
  O   O31       1.0  0.3479845824987322  0.1457985670106794  0.4843691171370352  1.0000
  O   O32       1.0  0.6520153463531814  0.3542025675564274  0.9843701620763383  1.0000
