data_image0
_chemical_formula_structural       Zn2H20C41Br2N6O18
_chemical_formula_sum              "Zn2 H20 C41 Br2 N6 O18"
_cell_length_a       10.934261508498144
_cell_length_b       15.86509876171016
_cell_length_c       17.10333092642868
_cell_angle_alpha    87.06193369517001
_cell_angle_beta     86.37170183481349
_cell_angle_gamma    87.70573112011444

_space_group_name_H-M_alt    "P 1"
_space_group_IT_number       1

loop_
  _space_group_symop_operation_xyz
  'x, y, z'

loop_
  _atom_site_type_symbol
  _atom_site_label
  _atom_site_symmetry_multiplicity
  _atom_site_fract_x
  _atom_site_fract_y
  _atom_site_fract_z
  _atom_site_occupancy
  Zn  Zn1       1.0  0.4799134594512254  0.5899239167915554  0.4988663641895599  1.0000
  Zn  Zn2       1.0  0.5060987895197399  0.4136800468054744  0.49090165972458516  1.0000
  H   H1        1.0  0.42073322632042925  0.6590722504756242  0.2499528187126288  1.0000
  H   H2        1.0  0.4155239403758273  0.39233607361877176  0.10839801940507238  1.0000
  H   H3        1.0  0.31551491408201565  0.3670756254441656  0.8860502873847763  1.0000
  H   H4        1.0  0.4388283562083757  0.38821643407127476  0.2539730754476963  1.0000
  H   H5        1.0  0.5448037675891654  0.7306444272034228  0.3903714835084813  1.0000
  H   H6        1.0  0.38501020340778064  0.7172873322943261  0.6168768180326224  1.0000
  H   H7        1.0  0.3672583395378054  0.11822870005662621  0.5526809448783537  1.0000
  H   H8        1.0  0.3663882091114203  0.2784092317908459  0.5432089754856618  1.0000
  H   H9        1.0  0.9337395068741898  0.4733016467305831  0.21930903961806078  1.0000
  H   H10       1.0  0.14709985419110438  0.4176179172787329  0.2374745628936736  1.0000
  H   H11       1.0  0.2360712974189525  0.4271312358032305  0.3663163135003913  1.0000
  H   H12       1.0  0.0870774385901356  0.5114094233621458  0.6194891925402073  1.0000
  H   H13       1.0  0.5633837633509984  0.5917754112070954  0.7486778947310171  1.0000
  H   H14       1.0  0.5292555724542538  0.5874139998404362  0.8955321235199845  1.0000
  H   H15       1.0  0.3993711176427084  0.6636344216692222  0.1037110692392105  1.0000
  H   H16       1.0  0.2718238260839314  0.2485190735140961  0.7265695573341445  1.0000
  H   H17       1.0  0.6506471164270948  0.890790232769355  0.2733561235864812  1.0000
  H   H18       1.0  0.83244353500411  0.35668397198138985  0.3553649507135502  1.0000
  H   H19       1.0  0.7147411921184811  0.45608201014098887  0.2791951734981595  1.0000
  H   H20       1.0  0.36253381393702006  0.9731923755622134  0.7107969597910964  1.0000
  C   C1        1.0  0.46089786952182965  0.5188693259014131  0.3445813330421359  1.0000
  C   C2        1.0  0.9417731512069453  0.5002378722022057  0.4170971351596648  1.0000
  C   C3        1.0  0.8661774760736449  0.5187068114078313  0.48578138352285544  1.0000
  C   C4        1.0  0.9200523537141476  0.5197175835187907  0.5568547094184524  1.0000
  C   C5        1.0  0.04700572539081797  0.506111994628462  0.5633286540227758  1.0000
  C   C6        1.0  0.1200031861989572  0.48382494712998175  0.4984923565174384  1.0000
  C   C7        1.0  0.4324795746580463  0.5234165293106656  0.25989116172378596  1.0000
  C   C8        1.0  0.42809077453544825  0.4480372609607244  0.22041294204099418  1.0000
  C   C9        1.0  0.41516623134786096  0.45005393409977046  0.1403068303426025  1.0000
  C   C10       1.0  0.4071408561793461  0.5284692339126239  0.098118712188132  1.0000
  C   C11       1.0  0.4062680620769968  0.6038679869976066  0.13789159397875037  1.0000
  C   C12       1.0  0.7282543384197168  0.5223146830285402  0.48474590987898836  1.0000
  C   C13       1.0  0.41804802206799246  0.6012741217231935  0.21849128250755706  1.0000
  C   C14       1.0  0.4894261201883837  0.5412819604697391  0.8605370104538536  1.0000
  C   C15       1.0  0.5080875212160477  0.5433951292609153  0.7795335918213127  1.0000
  C   C16       1.0  0.41848886137311325  0.47778075889694804  0.8988804687058404  1.0000
  C   C17       1.0  0.4564285258358183  0.4836793906153146  0.7349507285551198  1.0000
  C   C18       1.0  0.38569545887661855  0.41994013909679495  0.7734924539776242  1.0000
  C   C19       1.0  0.3695852742874806  0.4161572002806436  0.8552779782965843  1.0000
  C   C20       1.0  0.4448208809880967  0.2397285783727554  0.5216078957921794  1.0000
  C   C21       1.0  0.44481427045271005  0.1524527792926662  0.5259307111346132  1.0000
  C   C22       1.0  0.5471405250111161  0.10707201254313503  0.494553470160831  1.0000
  C   C23       1.0  0.4807130864027656  0.4901427050372574  0.6475704852840067  1.0000
  C   C24       1.0  0.6473058995384023  0.15160152838272714  0.4611294680430476  1.0000
  C   C25       1.0  0.6419394743147676  0.2402155268830555  0.4605764929148606  1.0000
  C   C26       1.0  0.5075078365679033  0.8533223589925713  0.439096348814374  1.0000
  C   C27       1.0  0.5076401283658355  0.7653804780509359  0.4405268738141501  1.0000
  C   C28       1.0  0.46214338331957083  0.8943965776579008  0.5069524287316867  1.0000
  C   C29       1.0  0.41812103739813  0.7574986319058681  0.566945526752697  1.0000
  C   C30       1.0  0.41641897332495864  0.8451364528932431  0.572520692494912  1.0000
  C   C31       1.0  0.25668197381598645  0.4780280409317683  0.5040794332924108  1.0000
  C   C32       1.0  0.8966079521053983  0.5020903274527555  0.33997787445755984  1.0000
  C   C33       1.0  0.96928951037804  0.4701010263578881  0.2776750628237679  1.0000
  C   C34       1.0  0.09107391418651642  0.4408529672507627  0.2873760386109012  1.0000
  C   C35       1.0  0.1406860077541481  0.446650098923719  0.3588726744117636  1.0000
  C   C36       1.0  0.0685972825797734  0.47611100490454566  0.4246671817032421  1.0000
  C   C37       1.0  0.3146721532718004  0.36200932757587617  0.7291102395340942  1.0000
  C   C38       1.0  0.5452925948784538  0.9014019081135415  0.3645782602335643  1.0000
  C   C39       1.0  0.7570988543773253  0.28732244679068225  0.4356652883750769  1.0000
  C   C40       1.0  0.7861795715824299  0.554734238081899  0.3171758264637035  1.0000
  C   C41       1.0  0.3698717455938549  0.8777416499220224  0.6494652796351303  1.0000
  Br  Br1       1.0  0.823149251219199  0.5365265310956318  0.651732828894552  1.0000
  Br  Br2       1.0  0.7845783342893712  0.09366739519108337  0.4142286449819963  1.0000
  N   N1        1.0  0.41027107901398113  0.5374131729232374  0.015573605662566992  1.0000
  N   N2        1.0  0.39749581536208467  0.46968157558815443  0.9810747512830743  1.0000
  N   N3        1.0  0.5412660338780242  0.28279877405865517  0.48921861888505447  1.0000
  N   N4        1.0  0.5571641439164665  0.017729836921304802  0.4983751739844919  1.0000
  N   N5        1.0  0.45589715030088473  0.98284163626591  0.5060741660775036  1.0000
  N   N6        1.0  0.46233192494340614  0.7189597137039456  0.5027790447328186  1.0000
  O   O1        1.0  0.46266510680975154  0.5875849739527438  0.3797806924304581  1.0000
  O   O2        1.0  0.48267385480959746  0.44506834343924595  0.37486866326818097  1.0000
  O   O3        1.0  0.669095267214864  0.591572749976848  0.49202707854961136  1.0000
  O   O4        1.0  0.6829276246458632  0.45046946928767545  0.477653355544355  1.0000
  O   O5        1.0  0.48596060411634306  0.5649482540030989  0.6174477527258233  1.0000
  O   O6        1.0  0.4955820157411209  0.42204467483686153  0.6113775674335145  1.0000
  O   O7        1.0  0.3031346402616251  0.5486790871529763  0.5134141839598243  1.0000
  O   O8        1.0  0.31416983826643013  0.4074888342731171  0.49687921001819996  1.0000
  O   O9        1.0  0.24521637079085676  0.3842775037302176  0.6783145764665264  1.0000
  O   O10       1.0  0.3288624611099634  0.2794943947263561  0.7553781117143856  1.0000
  O   O11       1.0  0.49950056201168286  0.9691190618221057  0.3422492056993747  1.0000
  O   O12       1.0  0.6339354323418506  0.8579533724005018  0.3227194224227645  1.0000
  O   O13       1.0  0.8420620703981356  0.2863139567393632  0.47813966586353723  1.0000
  O   O14       1.0  0.7562334448559439  0.3249095061547962  0.3631231356588813  1.0000
  O   O15       1.0  0.7723882829706312  0.629307575565022  0.32995492327596304  1.0000
  O   O16       1.0  0.7064698397856901  0.517568760830649  0.2723635328401599  1.0000
  O   O17       1.0  0.31582975919140205  0.8349361250801693  0.7007972005419488  1.0000
  O   O18       1.0  0.3955133654814206  0.9600898119212005  0.657942725212628  1.0000
