data_image0
_chemical_formula_structural       Zr6H25C50Br5O32
_chemical_formula_sum              "Zr6 H25 C50 Br5 O32"
_cell_length_a       14.790835664759861
_cell_length_b       14.79656736898438
_cell_length_c       14.810919057704606
_cell_angle_alpha    60.04568825570681
_cell_angle_beta     59.99339357220295
_cell_angle_gamma    60.06952954377399

_space_group_name_H-M_alt    "P 1"
_space_group_IT_number       1

loop_
  _space_group_symop_operation_xyz
  'x, y, z'

loop_
  _atom_site_type_symbol
  _atom_site_label
  _atom_site_symmetry_multiplicity
  _atom_site_fract_x
  _atom_site_fract_y
  _atom_site_fract_z
  _atom_site_occupancy
  Zr  Zr1       1.0  0.879679709309109  0.881039222721547  0.6191021091728004  1.0000
  Zr  Zr2       1.0  0.11978284220108287  0.11857409480035129  0.38126312725206896  1.0000
  Zr  Zr3       1.0  0.11781085955681181  0.8799574571875084  0.6201292394273848  1.0000
  Zr  Zr4       1.0  0.880306127776649  0.11982316994864547  0.3799827665546972  1.0000
  Zr  Zr5       1.0  0.11868531544089243  0.8816989113175918  0.3793507910757441  1.0000
  Zr  Zr6       1.0  0.8798244264398749  0.1208525655735711  0.6180339500027614  1.0000
  H   H1        1.0  0.09283602184896732  0.7181655879813105  0.5943760054588979  1.0000
  H   H2        1.0  0.09445748679252117  0.09404433534404427  0.2177278242740996  1.0000
  H   H3        1.0  0.09347750249310853  0.09371196415214911  0.5941903980483829  1.0000
  H   H4        1.0  0.7169021616598952  0.09496121217787129  0.5933467646521821  1.0000
  H   H5        1.0  0.8515471349188887  0.5830885846156871  0.6428202930759783  1.0000
  H   H6        1.0  0.1427426059100514  0.5930038895827109  0.35417432977918395  1.0000
  H   H7        1.0  0.860298793633625  0.4127143506082474  0.6354015937478579  1.0000
  H   H8        1.0  0.583348075898861  0.8514240622761305  0.9228521873653792  1.0000
  H   H9        1.0  0.5949397902156406  0.14095272652146207  0.9122141084058767  1.0000
  H   H10       1.0  0.4146915369622944  0.8584811370867766  0.09356526752367245  1.0000
  H   H11       1.0  0.14170973040304372  0.8536781728761863  0.0815472628730518  1.0000
  H   H12       1.0  0.8511125441247599  0.14240882564057936  0.09377238424738725  1.0000
  H   H13       1.0  0.13386927105208477  0.8624814268644412  0.911513215467835  1.0000
  H   H14       1.0  0.5832485166744236  0.4250586904299707  0.6397592651209082  1.0000
  H   H15       1.0  0.59300380511106  0.411508410542403  0.35205888432506777  1.0000
  H   H16       1.0  0.4139169647596717  0.5947640712613094  0.6310334156938212  1.0000
  H   H17       1.0  0.14018107481161485  0.418182659669533  0.08765127504844371  1.0000
  H   H18       1.0  0.14048451951567395  0.586760653182601  0.9199449683988162  1.0000
  H   H19       1.0  0.7424751126077709  0.6291712666548933  0.958084789381111  1.0000
  H   H20       1.0  0.8295109111732232  0.544116880573341  0.8726378033920883  1.0000
  H   H21       1.0  0.828412693370197  0.3738644213354829  0.04241318487625286  1.0000
  H   H22       1.0  0.7416330367717664  0.45891018221441  0.12790739941025467  1.0000
  H   H23       1.0  0.5819534026840146  0.14222350084320803  0.3515255509401812  1.0000
  H   H24       1.0  0.5938685481418132  0.8529236190332196  0.6414460253720762  1.0000
  H   H25       1.0  0.4122205533195141  0.1332379531853149  0.3607881432524707  1.0000
  C   C1        1.0  0.9943271428689259  0.7003798948325365  0.49807015718808867  1.0000
  C   C2        1.0  0.30732665756480787  0.9995936268694333  0.1995479848010221  1.0000
  C   C3        1.0  0.00023106201889087834  0.30676127782954393  0.4939745410511592  1.0000
  C   C4        1.0  0.6990001252969976  0.9959227238732634  0.8058960012933484  1.0000
  C   C5        1.0  0.9963927191839445  0.7002894164536853  0.8064075446295789  1.0000
  C   C6        1.0  0.6991288526362571  0.9987683228240836  0.49457271455666796  1.0000
  C   C7        1.0  0.9964109067713522  0.30526319399426416  0.19996239393587  1.0000
  C   C8        1.0  0.3059005525334868  0.9923034939156065  0.5018178276481322  1.0000
  C   C9        1.0  0.3059618076335511  0.6998009428905974  0.49218020132307333  1.0000
  C   C10       1.0  0.9921300840984417  0.0015651183878870691  0.8062085645384515  1.0000
  C   C11       1.0  0.6993253950291277  0.3078546538980829  0.49695571885199297  1.0000
  C   C12       1.0  0.9973473043165556  0.9960016222684368  0.19897538969681267  1.0000
  C   C13       1.0  0.004479333802144946  0.40741772213060995  0.4909683535156972  1.0000
  C   C14       1.0  0.9962198739259381  0.5986298218049553  0.49762130878924876  1.0000
  C   C15       1.0  0.08534942636573832  0.45876450480769626  0.4116563206274506  1.0000
  C   C16       1.0  0.9163652615908903  0.5478948884005915  0.5782766303471193  1.0000
  C   C17       1.0  0.08051985292136991  0.5534360959231177  0.41528219447794607  1.0000
  C   C18       1.0  0.9212643348894576  0.4539322543174362  0.5740094996965014  1.0000
  C   C19       1.0  0.4086787431204542  0.003362121205050488  0.0984076567545173  1.0000
  C   C20       1.0  0.598932380281262  0.9960999834109071  0.9078818031311116  1.0000
  C   C21       1.0  0.46030066748117093  0.08393616879979493  0.045929108607396164  1.0000
  C   C22       1.0  0.5486436876464328  0.9157917188764126  0.958214335258269  1.0000
  C   C23       1.0  0.5546464608302485  0.07944938474253142  0.9521233187656861  1.0000
  C   C24       1.0  0.4553122872571436  0.9200569437321984  0.05213640164056694  1.0000
  C   C25       1.0  0.988880779174572  0.00580327784948032  0.9069597395700912  1.0000
  C   C26       1.0  0.9960034526095001  0.9974916100513123  0.09790904337553041  1.0000
  C   C27       1.0  0.9091753111924135  0.08604350300060991  0.9588377448640629  1.0000
  C   C28       1.0  0.07676507136446278  0.918067385451202  0.046852916263801996  1.0000
  C   C29       1.0  0.9129695334109016  0.081049602957627  0.053425104783052464  1.0000
  C   C30       1.0  0.0722672799117064  0.9230364209022706  0.9530503907707911  1.0000
  C   C31       1.0  0.4075590003406263  0.598853021139696  0.48805648599863355  1.0000
  C   C32       1.0  0.5984541101680562  0.40900346070370824  0.49542888686379166  1.0000
  C   C33       1.0  0.4590207032504594  0.5459130131164114  0.40887730480953627  1.0000
  C   C34       1.0  0.548184326274864  0.4596694411028037  0.5752590760625865  1.0000
  C   C35       1.0  0.5534320435237561  0.4523330798486568  0.41295912041179866  1.0000
  C   C36       1.0  0.4545164454834989  0.5531400349760955  0.5705346397449419  1.0000
  C   C37       1.0  0.9956857743349585  0.5998962137022583  0.9063675436953105  1.0000
  C   C38       1.0  0.9953937640288048  0.405564324012033  0.09983220382751065  1.0000
  C   C39       1.0  0.9162705637842877  0.5494355853728049  0.9552047933574602  1.0000
  C   C40       1.0  0.07672939573313908  0.45552613711837586  0.05032124372731066  1.0000
  C   C41       1.0  0.9160468833483647  0.45488072405556995  0.049291340654626425  1.0000
  C   C42       1.0  0.07684095671922372  0.549758555741711  0.9565497366748019  1.0000
  C   C43       1.0  0.8150336373790736  0.5550818736642779  0.9474763162312527  1.0000
  C   C44       1.0  0.8145815455288101  0.44809832383896225  0.05408869288649507  1.0000
  C   C45       1.0  0.4071203487300612  0.9891052528616125  0.505167651517546  1.0000
  C   C46       1.0  0.5981339601174297  0.9971708330981102  0.49598074794167957  1.0000
  C   C47       1.0  0.45908196976579796  0.9098598671989744  0.5852580171132474  1.0000
  C   C48       1.0  0.5472597853795732  0.07730169681640571  0.4163748806728621  1.0000
  C   C49       1.0  0.5536344130998783  0.9141488836739382  0.5799738540102196  1.0000
  C   C50       1.0  0.4534165658781503  0.07230523555732295  0.4216837709953438  1.0000
  Br  Br1       1.0  0.20779919467691602  0.4091585279392261  0.29405587710077447  1.0000
  Br  Br2       1.0  0.411098542526922  0.2058247939355694  0.09139670440180943  1.0000
  Br  Br3       1.0  0.7905308172460223  0.20777554049902117  0.9104108945136034  1.0000
  Br  Br4       1.0  0.4095943635253505  0.5901789276529213  0.29127863257043174  1.0000
  Br  Br5       1.0  0.4101909814480679  0.7915241999846216  0.7074141422658258  1.0000
  O   O1        1.0  0.9181279551746895  0.7379118164845122  0.5762576939560728  1.0000
  O   O2        1.0  0.26601084187510077  0.07327462171296865  0.24320268805901432  1.0000
  O   O3        1.0  0.07610615943425363  0.2635607281025044  0.4199882514837085  1.0000
  O   O4        1.0  0.7363789118848202  0.9198852476745782  0.7661623903397725  1.0000
  O   O5        1.0  0.07411436887102985  0.7392786681159007  0.7661174168682977  1.0000
  O   O6        1.0  0.7366846921065643  0.07701239140024542  0.4186274439550033  1.0000
  O   O7        1.0  0.9198646114778625  0.2651003297105061  0.2387289634859827  1.0000
  O   O8        1.0  0.2635173246479  0.9171700552419463  0.5766506897526257  1.0000
  O   O9        1.0  0.2639480960755807  0.7425269538485108  0.4168854277254538  1.0000
  O   O10       1.0  0.9178587171456486  0.07722260284023  0.7632692467771989  1.0000
  O   O11       1.0  0.7371732802853617  0.2685342420204363  0.5748257416752764  1.0000
  O   O12       1.0  0.07555773199391053  0.9199789835462864  0.236395419992988  1.0000
  O   O13       1.0  0.0695602345728475  0.923344634865259  0.7695241538838429  1.0000
  O   O14       1.0  0.7389853588895293  0.2675397512306572  0.4209293038116756  1.0000
  O   O15       1.0  0.9208043173668444  0.07216955954571341  0.23921784291643905  1.0000
  O   O16       1.0  0.26758627893136844  0.7353721472016586  0.5713865346827944  1.0000
  O   O17       1.0  0.9197113978049534  0.7398612940861252  0.7666845521938301  1.0000
  O   O18       1.0  0.26811812292299925  0.07082164607152912  0.4249192606721479  1.0000
  O   O19       1.0  0.07327871484054076  0.2654877431906683  0.23927509122501792  1.0000
  O   O20       1.0  0.7390926843567772  0.9223239749970342  0.5708950003698378  1.0000
  O   O21       1.0  0.7382791302957658  0.07302746819122759  0.7652997073569453  1.0000
  O   O22       1.0  0.07007576544322092  0.7410584695920475  0.42096387579389466  1.0000
  O   O23       1.0  0.2682184025112449  0.9237170110829562  0.23458896726820908  1.0000
  O   O24       1.0  0.921625776248604  0.2701671875229719  0.5711023408255543  1.0000
  O   O25       1.0  0.7971470242174731  0.06822807373693238  0.5665356846999288  1.0000
  O   O26       1.0  0.06648737867617878  0.06703063559182709  0.5676142216007705  1.0000
  O   O27       1.0  0.06739124939595338  0.0668793988423957  0.2978786044205819  1.0000
  O   O28       1.0  0.06613884195579099  0.7983416629935433  0.5670378508684164  1.0000
  O   O29       1.0  0.1475280542966076  0.9499843230299373  0.4510466694979198  1.0000
  O   O30       1.0  0.9497164130456851  0.9508562309885845  0.4500864628250343  1.0000
  O   O31       1.0  0.9502393819974486  0.1487018043145623  0.4500429157693023  1.0000
  O   O32       1.0  0.9491942368704188  0.9512489499345657  0.648127574823526  1.0000
