data_image0
_chemical_formula_structural       Cu2H44C36N8O16
_chemical_formula_sum              "Cu2 H44 C36 N8 O16"
_cell_length_a       7.576477453013289
_cell_length_b       9.093222936987116
_cell_length_c       14.476474089125517
_cell_angle_alpha    93.15206785901998
_cell_angle_beta     90.00021280822939
_cell_angle_gamma    90.00001524231067

_space_group_name_H-M_alt    "P 1"
_space_group_IT_number       1

loop_
  _space_group_symop_operation_xyz
  'x, y, z'

loop_
  _atom_site_type_symbol
  _atom_site_label
  _atom_site_symmetry_multiplicity
  _atom_site_fract_x
  _atom_site_fract_y
  _atom_site_fract_z
  _atom_site_occupancy
  Cu  Cu1       1.0  0.9999996334071921  0.9999998930108662  0.5000006694368794  1.0000
  Cu  Cu2       1.0  0.5000014879623577  9.67019602e-08  4.896972712e-07  1.0000
  H   H1        1.0  0.05719445843160288  0.9677963244835865  0.7936866670607189  1.0000
  H   H2        1.0  0.557191523360693  0.03220688674284839  0.7063127599565604  1.0000
  H   H3        1.0  0.9428069477690995  0.0322107761778767  0.2063147874409879  1.0000
  H   H4        1.0  0.44280724308192276  0.967785890157863  0.2936868418594969  1.0000
  H   H5        1.0  0.8880578737015977  0.08305119650455592  0.7576869153432639  1.0000
  H   H6        1.0  0.38806042777544275  0.916949939937993  0.742313087317399  1.0000
  H   H7        1.0  0.11194089275208088  0.9169548056672596  0.242315193803492  1.0000
  H   H8        1.0  0.6119383386677908  0.08304503972785682  0.25768658695036356  1.0000
  H   H9        1.0  0.9874488830523587  0.2739914866266204  0.8881208655311142  1.0000
  H   H10       1.0  0.4874478097532843  0.726010795429758  0.6118807497842766  1.0000
  H   H11       1.0  0.012551203282946196  0.7260134228431666  0.11188328001156118  1.0000
  H   H12       1.0  0.5125483169297738  0.27398857529870213  0.38811561501684383  1.0000
  H   H13       1.0  0.8816544297892076  0.114926994649025  0.9219248152899979  1.0000
  H   H14       1.0  0.3816492093856495  0.8850741393151228  0.5780751748200927  1.0000
  H   H15       1.0  0.11834697641087635  0.8850779032473001  0.07807656675999651  1.0000
  H   H16       1.0  0.6183469173050752  0.11492634147619192  0.4219232988273589  1.0000
  H   H17       1.0  0.9761064655885858  0.822374529961273  0.6553707891887016  1.0000
  H   H18       1.0  0.47611082229092005  0.1776211307331437  0.8446285139390854  1.0000
  H   H19       1.0  0.02389230085557869  0.17762375385228074  0.3446289937566149  1.0000
  H   H20       1.0  0.5238919037803668  0.8223804601223107  0.1553720685611637  1.0000
  H   H21       1.0  0.26555431958099956  0.42084272142361806  0.5878466232664721  1.0000
  H   H22       1.0  0.7655530237637292  0.5791572633569898  0.9121524123331711  1.0000
  H   H23       1.0  0.7344497263624203  0.5791588665386557  0.41215326836157823  1.0000
  H   H24       1.0  0.23445102217692684  0.42084322032928884  0.08784675219553152  1.0000
  H   H25       1.0  0.3052648394899222  0.5086287194594803  0.42961898940060195  1.0000
  H   H26       1.0  0.805262411164527  0.49137339769293226  0.0703818607378039  1.0000
  H   H27       1.0  0.6947378865789131  0.49137286850254475  0.5703809022261481  1.0000
  H   H28       1.0  0.19474031490675964  0.5086281931625151  0.9296187217624379  1.0000
  H   H29       1.0  0.18668589368991204  0.7559960058426897  0.3917610007789635  1.0000
  H   H30       1.0  0.686683652588705  0.2440049640600606  0.10823958086331943  1.0000
  H   H31       1.0  0.813312872760079  0.24400558790542692  0.6082402725908977  1.0000
  H   H32       1.0  0.3133164337306553  0.7559955225188801  0.8917602745349953  1.0000
  H   H33       1.0  0.12391913213995309  0.4726004324424339  0.7416423604296938  1.0000
  H   H34       1.0  0.6239220082388781  0.5274006047229776  0.7583578157142342  1.0000
  H   H35       1.0  0.8760822740576798  0.5274044625604689  0.258358330746816  1.0000
  H   H36       1.0  0.3760820377039166  0.4725987804741649  0.24164200346210413  1.0000
  H   H37       1.0  0.9879737973458301  0.6244997598822907  0.7602601273219135  1.0000
  H   H38       1.0  0.4879787951138041  0.3755003080394559  0.7397386530819432  1.0000
  H   H39       1.0  0.012024969098952495  0.37550072669640144  0.23973972807510796  1.0000
  H   H40       1.0  0.5120252508314492  0.6244990800511162  0.2602618569678867  1.0000
  H   H41       1.0  0.2512006822601193  0.1426174611051323  0.6003762004572124  1.0000
  H   H42       1.0  0.7511993889658298  0.8573825268036828  0.8996248796472417  1.0000
  H   H43       1.0  0.7487994040613868  0.8573819269846722  0.399624309588738  1.0000
  H   H44       1.0  0.24880333709134558  0.1426124412892165  0.1003720311304264  1.0000
  C   C1        1.0  0.14373959484963447  0.1598590193453333  0.7296510819940708  1.0000
  C   C2        1.0  0.6437452984183593  0.8401199920490898  0.7703470267125854  1.0000
  C   C3        1.0  0.856255211968907  0.8401238480049286  0.27034888465892953  1.0000
  C   C4        1.0  0.35625478788347203  0.1598529483919435  0.22964915954545265  1.0000
  C   C5        1.0  0.017600710370004397  0.084015974999879  0.7921959288399663  1.0000
  C   C6        1.0  0.5176007158439687  0.9159872266988599  0.7078048023716053  1.0000
  C   C7        1.0  0.9823980560836743  0.9159900271719366  0.2078061803067968  1.0000
  C   C8        1.0  0.4823940909752124  0.08400665158365679  0.2921948356664217  1.0000
  C   C9        1.0  0.0021572129575559997  0.15394691125916185  0.8890974305882724  1.0000
  C   C10       1.0  0.502155188445947  0.8460551801895377  0.6109025432715073  1.0000
  C   C11       1.0  0.997842873365499  0.8460579837434778  0.11090326058694443  1.0000
  C   C12       1.0  0.49784225811904986  0.15394419921946678  0.3890958941513888  1.0000
  C   C13       1.0  0.15082019696569657  0.12454344449044898  0.9554716740770246  1.0000
  C   C14       1.0  0.650816391563488  0.875458701568313  0.5445279001060754  1.0000
  C   C15       1.0  0.8491812092350057  0.8754636561710142  0.044529780424682  1.0000
  C   C16       1.0  0.3491850146365677  0.1245373881609027  0.45547388301059755  1.0000
  C   C17       1.0  0.05147738723518099  0.7500163983723312  0.6079256343932757  1.0000
  C   C18       1.0  0.5514811204347366  0.2499801994551589  0.8920728732034179  1.0000
  C   C19       1.0  0.948518739458606  0.24998628807755105  0.39207360257937307  1.0000
  C   C20       1.0  0.4485216056362375  0.7500202900177229  0.10792767307097512  1.0000
  C   C21       1.0  0.11743819921433377  0.6151435683989064  0.636683533055546  1.0000
  C   C22       1.0  0.6174391330258114  0.3848519506661319  0.863314376642002  1.0000
  C   C23       1.0  0.8825645268554251  0.38486132371081544  0.3633164672487652  1.0000
  C   C24       1.0  0.38256227316813346  0.6151485359130715  0.1366854787576059  1.0000
  C   C25       1.0  0.21213103177559126  0.5270914313926482  0.570436200024929  1.0000
  C   C26       1.0  0.7121324642785466  0.47290633285229694  0.929563349354531  1.0000
  C   C27       1.0  0.7878703744162151  0.47291015367568423  0.4295630007270361  1.0000
  C   C28       1.0  0.2878715816666997  0.5270930552382751  0.07043716069530603  1.0000
  C   C29       1.0  0.23453163744984806  0.5760185435834586  0.4819486605921881  1.0000
  C   C30       1.0  0.7345301357873877  0.42398023916791766  0.0180512514450655  1.0000
  C   C31       1.0  0.7654684488673735  0.4239830414846182  0.518050540158491  1.0000
  C   C32       1.0  0.2654712704111474  0.5760191518155651  0.98194994947567  1.0000
  C   C33       1.0  0.16682861265939405  0.7118285660480409  0.4592493173243995  1.0000
  C   C34       1.0  0.666829867117208  0.2881701963027438  0.0407518438469836  1.0000
  C   C35       1.0  0.8331688339163318  0.2881741290823782  0.5407519922700175  1.0000
  C   C36       1.0  0.33317153908163977  0.7118302960633117  0.959249393299608  1.0000
  N   N1        1.0  0.07720540765870959  0.7963216870182848  0.5226427310729846  1.0000
  N   N2        1.0  0.577207090661261  0.20367822780171  0.9773566264683708  1.0000
  N   N3        1.0  0.9227907190396747  0.2036799038358907  0.4773578514207983  1.0000
  N   N4        1.0  0.42279299566086337  0.7963233630532257  0.0226439560292917  1.0000
  N   N5        1.0  0.09358573776813016  0.5779441859832348  0.7263954156833705  1.0000
  N   N6        1.0  0.5935860476392064  0.4220524310248095  0.7736038652645973  1.0000
  N   N7        1.0  0.9064183081731441  0.4220585004681752  0.2736038212970371  1.0000
  N   N8        1.0  0.4064140386792302  0.5779447514064273  0.22639588145615622  1.0000
  O   O1        1.0  0.16203671654540125  0.0888551056151528  0.6484357153240623  1.0000
  O   O2        1.0  0.662037739852181  0.9111459434005982  0.8515638446086486  1.0000
  O   O3        1.0  0.8379607300336783  0.9111420883892903  0.3515667948880862  1.0000
  O   O4        1.0  0.33796630607712774  0.0888490217991276  0.1484323752968209  1.0000
  O   O5        1.0  0.22086788426149437  0.2771554440652082  0.7519792142029333  1.0000
  O   O6        1.0  0.720864151860553  0.7228588327230127  0.7480181321788779  1.0000
  O   O7        1.0  0.7791361616776696  0.7228571490424615  0.24801896706315327  1.0000
  O   O8        1.0  0.2791227356998219  0.2771383352385257  0.2519781601614852  1.0000
  O   O9        1.0  0.27317510300122183  0.03457590616163491  0.9293674295805945  1.0000
  O   O10       1.0  0.7731754718781186  0.9654218845887925  0.5706329302434199  1.0000
  O   O11       1.0  0.7268236634466304  0.9654267860756179  0.0706331891416241  1.0000
  O   O12       1.0  0.22682329457736464  0.0345731095441977  0.4293701983918013  1.0000
  O   O13       1.0  0.13920732797563315  0.19076921938347627  0.03515552498265611  1.0000
  O   O14       1.0  0.6391998819772907  0.8092328248555206  0.4648429272596886  1.0000
  O   O15       1.0  0.8607927583489353  0.8092323743648963  0.9648457483884983  1.0000
  O   O16       1.0  0.36079756458618556  0.1907698558077584  0.5351549279672696  1.0000
