data_image0
_chemical_formula_structural       Cd2H12C14N4O16
_chemical_formula_sum              "Cd2 H12 C14 N4 O16"
_cell_length_a       5.860595922064268
_cell_length_b       8.730149426459967
_cell_length_c       10.173862580349217
_cell_angle_alpha    88.65266912455796
_cell_angle_beta     82.20199706578292
_cell_angle_gamma    88.67588069014907

_space_group_name_H-M_alt    "P 1"
_space_group_IT_number       1

loop_
  _space_group_symop_operation_xyz
  'x, y, z'

loop_
  _atom_site_type_symbol
  _atom_site_label
  _atom_site_symmetry_multiplicity
  _atom_site_fract_x
  _atom_site_fract_y
  _atom_site_fract_z
  _atom_site_occupancy
  Cd  Cd1       1.0  0.733404109997366  0.6305284785014675  0.5533388269772529  1.0000
  Cd  Cd2       1.0  0.26658131297892135  0.36946618868976344  0.446659118516713  1.0000
  H   H1        1.0  0.1412737973055798  0.5941531591072361  0.0094786417598556  1.0000
  H   H2        1.0  0.8587306370104171  0.40585300724593754  0.9905281248039939  1.0000
  H   H3        1.0  0.3473394041867336  0.7774593220705981  0.13611925763624544  1.0000
  H   H4        1.0  0.6526801266816162  0.2225502440773894  0.8638781961981791  1.0000
  H   H5        1.0  0.7136815290983236  0.8932244636945441  0.026228885525760873  1.0000
  H   H6        1.0  0.28633954747888163  0.1067758843119009  0.9737568485053315  1.0000
  H   H7        1.0  0.1108491382460457  0.013485332499584498  0.7518468084244387  1.0000
  H   H8        1.0  0.8891552895229252  0.9865058862986162  0.24814851438344476  1.0000
  H   H9        1.0  0.9583240625514832  0.3825991657311363  0.6807077958004084  1.0000
  H   H10       1.0  0.041668342630600784  0.6174024082256651  0.31929721926464777  1.0000
  H   H11       1.0  0.7989519049241596  0.2968598892232777  0.58027243519858  1.0000
  H   H12       1.0  0.20103548050398956  0.7031405528463068  0.4197360106677903  1.0000
  C   C1        1.0  0.27457505542258787  0.5095568657303388  0.748386050355492  1.0000
  C   C2        1.0  0.7254175905605749  0.49043783637952737  0.2516200885402425  1.0000
  C   C3        1.0  0.393569633030566  0.6133761326952508  0.8338799325354599  1.0000
  C   C4        1.0  0.6064296121366013  0.3866219844588699  0.16612061224061844  1.0000
  C   C5        1.0  0.3010122891802638  0.6460584975569716  0.9644073830755598  1.0000
  C   C6        1.0  0.6989936025778007  0.35394648916415145  0.035591414200872876  1.0000
  C   C7        1.0  0.4165994181479248  0.7469255052945982  0.0351327840900737  1.0000
  C   C8        1.0  0.5834187334287718  0.2530737515863919  0.9648660215703442  1.0000
  C   C9        1.0  0.6205225592524996  0.8123106563062948  0.9747075378093724  1.0000
  C   C10       1.0  0.37948826756205983  0.18769200364611285  0.025283002371203595  1.0000
  C   C11       1.0  0.7005605254963001  0.7739198791333308  0.843861035527588  1.0000
  C   C12       1.0  0.29944889148030274  0.22607476767861806  0.15613178810145453  1.0000
  C   C13       1.0  0.9067606754868152  0.844044219018592  0.7634285050991492  1.0000
  C   C14       1.0  0.0932417896330833  0.1559538721965126  0.2365658497952977  1.0000
  N   N1        1.0  0.5894974689758996  0.6762723789222137  0.7764855859577434  1.0000
  N   N2        1.0  0.41050162702909176  0.323725721699212  0.22351104012022915  1.0000
  N   N3        1.0  0.5568347399269555  0.8775825121167101  0.36975276247671457  1.0000
  N   N4        1.0  0.44316112243960487  0.1224236612195568  0.6302557633478612  1.0000
  O   O1        1.0  0.37264572638440535  0.4939797071458045  0.6291282055064042  1.0000
  O   O2        1.0  0.6273364800112731  0.5060161361143046  0.3708768855176883  1.0000
  O   O3        1.0  0.08976052635742349  0.44829255538351737  0.7993693580211099  1.0000
  O   O4        1.0  0.9102266420717056  0.5517101621467405  0.20063512109511084  1.0000
  O   O5        1.0  0.9769231461706269  0.8016954434064871  0.6494290987478165  1.0000
  O   O6        1.0  0.023061330856386095  0.1983071672312278  0.350550064747999  1.0000
  O   O7        1.0  0.0012489844904451008  0.9542557338617286  0.8225128736929078  1.0000
  O   O8        1.0  0.9987639983673519  0.045729727304085095  0.17747591161176499  1.0000
  O   O9        1.0  0.9022611249591392  0.382851042724674  0.5908174980927894  1.0000
  O   O10       1.0  0.09773138197821396  0.6171470932420747  0.4091875890503472  1.0000
  O   O11       1.0  0.776138688513015  0.8784625227932067  0.3618996163420006  1.0000
  O   O12       1.0  0.22385875665572996  0.12154708382995948  0.6381077018127285  1.0000
  O   O13       1.0  0.4462984455258478  0.8026513974729994  0.467233881876595  1.0000
  O   O14       1.0  0.5536990573633815  0.1973524667672208  0.5327706173846919  1.0000
  O   O15       1.0  0.45327964387710296  0.9448824456800082  0.28561688776787963  1.0000
  O   O16       1.0  0.5467161405362474  0.0551225692600568  0.7143887230591444  1.0000
