data_image0
_chemical_formula_structural       Cd2H38C34N4O14
_chemical_formula_sum              "Cd2 H38 C34 N4 O14"
_cell_length_a       10.172510232078562
_cell_length_b       10.137783566298438
_cell_length_c       10.095138271210363
_cell_angle_alpha    81.71196745206791
_cell_angle_beta     73.91929539459721
_cell_angle_gamma    62.80278396734538

_space_group_name_H-M_alt    "P 1"
_space_group_IT_number       1

loop_
  _space_group_symop_operation_xyz
  'x, y, z'

loop_
  _atom_site_type_symbol
  _atom_site_label
  _atom_site_symmetry_multiplicity
  _atom_site_fract_x
  _atom_site_fract_y
  _atom_site_fract_z
  _atom_site_occupancy
  Cd  Cd1       1.0  0.3486813585325521  0.31722141692400635  0.4876687904104669  1.0000
  Cd  Cd2       1.0  0.6513162566226997  0.6827785168921279  0.5123353636598436  1.0000
  H   H1        1.0  0.3790909871082703  0.16085651350785204  0.7426679746743757  1.0000
  H   H2        1.0  0.6209156837090222  0.8391434923639803  0.25733879671430754  1.0000
  H   H3        1.0  0.49944178837698416  0.031436446345040295  0.6443891464610869  1.0000
  H   H4        1.0  0.5005532954529315  0.9685646110954665  0.3556135568665295  1.0000
  H   H5        1.0  0.2765384962705896  0.5611239576450726  0.251891726965269  1.0000
  H   H6        1.0  0.7234617045037697  0.4388726786550448  0.7481121131023225  1.0000
  H   H7        1.0  0.3297260953012752  0.6033018457281045  0.36963240219001375  1.0000
  H   H8        1.0  0.6702700178809308  0.3966968894296554  0.6303732577777976  1.0000
  H   H9        1.0  0.3865263415728252  0.6956769207666081  0.7974988257966511  1.0000
  H   H10       1.0  0.6134734408745433  0.304314020700751  0.20250771206323748  1.0000
  H   H11       1.0  0.4004495412425868  0.46766118920206873  0.7277315017326199  1.0000
  H   H12       1.0  0.5995461080555488  0.5323365156107158  0.2722714136090899  1.0000
  H   H13       1.0  0.9638352293361976  0.7068925699973717  0.004108454418016511  1.0000
  H   H14       1.0  0.036158200109348136  0.29311875646260427  0.9958876315945059  1.0000
  H   H15       1.0  0.8483962087928492  0.6225255993565638  0.8610208106689181  1.0000
  H   H16       1.0  0.1515982640117529  0.3774834751994475  0.13897623822619914  1.0000
  H   H17       1.0  0.02018252626377418  0.45903563722870877  0.6614739334437869  1.0000
  H   H18       1.0  0.9798110433196286  0.5409666065813992  0.3385260592539295  1.0000
  H   H19       1.0  0.5775638830981861  0.6471388182415224  0.9270563717142434  1.0000
  H   H20       1.0  0.4224438120844385  0.35283567381346603  0.07294492678008167  1.0000
  H   H21       1.0  0.42972704950913954  0.6842879517357119  0.0805577765162369  1.0000
  H   H22       1.0  0.5702814333037552  0.31569768365908146  0.9194451045451115  1.0000
  H   H23       1.0  0.29769171220114304  0.945346432084733  0.0012310211125949593  1.0000
  H   H24       1.0  0.7023349466996079  0.05464211953272981  0.9987619123912732  1.0000
  H   H25       1.0  0.4300113004098948  0.9062558581648259  0.8389327954852629  1.0000
  H   H26       1.0  0.5700226357240369  0.09371924477408558  0.16106465542696208  1.0000
  H   H27       1.0  0.6400473173745241  0.8566399557982363  0.9451323307312831  1.0000
  H   H28       1.0  0.3599836953873207  0.14332826128307366  0.054868590000353365  1.0000
  H   H29       1.0  0.5172096713353157  0.8783823647639789  0.11227108930132344  1.0000
  H   H30       1.0  0.4828198464568701  0.12158468884834407  0.8877303404490102  1.0000
  H   H31       1.0  0.8956295745980897  0.28171037794211157  0.5051841591477172  1.0000
  H   H32       1.0  0.10436945321951206  0.7182927524770973  0.4948252381645018  1.0000
  H   H33       1.0  0.28146366599578704  0.9562984728485301  0.24078249370620589  1.0000
  H   H34       1.0  0.7185246692487722  0.043719835726754794  0.759203254644923  1.0000
  H   H35       1.0  0.11147147361506887  0.8729286810278863  0.17510181614768064  1.0000
  H   H36       1.0  0.8885110810992741  0.12710669510169476  0.8248726954913719  1.0000
  H   H37       1.0  0.8301088634660657  0.004321604830693093  0.2689137298663055  1.0000
  H   H38       1.0  0.16987464883342107  0.995708641715488  0.7310799174859778  1.0000
  C   C1        1.0  0.27748301736285436  0.5050364847778538  0.7618274547455213  1.0000
  C   C2        1.0  0.7225141128981748  0.4949623131251426  0.23817694533508404  1.0000
  C   C3        1.0  0.1902412296443786  0.5937959965082482  0.877313312293381  1.0000
  C   C4        1.0  0.8097507713987397  0.4062096075631131  0.12268573451984828  1.0000
  C   C5        1.0  0.03307356668331359  0.6380771058090314  0.9140649843621059  1.0000
  C   C6        1.0  0.9669194777188677  0.361926246358365  0.08593502533371124  1.0000
  C   C7        1.0  0.9697795731510653  0.5914945544635442  0.8359593303543559  1.0000
  C   C8        1.0  0.030219519430296826  0.40851134806693057  0.16403488476363748  1.0000
  C   C9        1.0  0.0644922326000598  0.5000913561247983  0.7243425388021405  1.0000
  C   C10       1.0  0.935499234525153  0.4999128657076993  0.275663732173001  1.0000
  C   C11       1.0  0.26107686682222203  0.6333347442389367  0.9677552193948242  1.0000
  C   C12       1.0  0.7389173400667275  0.3666571678064584  0.03225265050519253  1.0000
  C   C13       1.0  0.4553397378816798  0.7143250431421888  0.9706854383455333  1.0000
  C   C14       1.0  0.5446698355806633  0.28565613126760064  0.029317637731800475  1.0000
  C   C15       1.0  0.41761582025055327  0.8787435388186462  0.949573023752755  1.0000
  C   C16       1.0  0.5824089919207935  0.12123359557742927  0.05042556834411016  1.0000
  C   C17       1.0  0.5214052967798821  0.9171969978812338  0.0038252760414252225  1.0000
  C   C18       1.0  0.4786251435103567  0.08277453663840359  0.996176429554914  1.0000
  C   C19       1.0  0.6758127303688822  0.2283043864441012  0.4489724263562777  1.0000
  C   C20       1.0  0.3241818212764259  0.7716977441642994  0.5510312908482432  1.0000
  C   C21       1.0  0.844478965438157  0.15180330743006454  0.39223204844385134  1.0000
  C   C22       1.0  0.15551187838828193  0.8482113165459206  0.6077643515713901  1.0000
  C   C23       1.0  0.9409173173763605  0.19389720120329906  0.431550784496309  1.0000
  C   C24       1.0  0.059076621510336  0.8061104911138484  0.5684534885607275  1.0000
  C   C25       1.0  0.0977687616658613  0.12657433980997715  0.37358608100568336  1.0000
  C   C26       1.0  0.9022241881555504  0.8734334305194903  0.6264154644233455  1.0000
  C   C27       1.0  0.1586998713410068  0.011000135581852501  0.2811572555633646  1.0000
  C   C28       1.0  0.8412904420341294  0.9890180169687922  0.7188339480437661  1.0000
  C   C29       1.0  0.06337027471148096  0.9660067120847771  0.24378179620691745  1.0000
  C   C30       1.0  0.9366159195211876  0.034018274190081896  0.7562037911244274  1.0000
  C   C31       1.0  0.9063634306533926  0.037895670965305286  0.29695422810542743  1.0000
  C   C32       1.0  0.09362323273342815  0.9621279254371584  0.7030393172582377  1.0000
  C   C33       1.0  0.19657087670614007  0.18392861236708308  0.40665162170188285  1.0000
  C   C34       1.0  0.8034266911587195  0.8160735305300902  0.5933533002350302  1.0000
  N   N1        1.0  0.21554801685719133  0.45859552420197486  0.6874865192914965  1.0000
  N   N2        1.0  0.7844409066692252  0.5414122062828708  0.31251408441355  1.0000
  N   N3        1.0  0.3711033452559108  0.6738043798954008  0.9023690640258193  1.0000
  N   N4        1.0  0.6288969430958318  0.32618780305325845  0.09763423718736419  1.0000
  O   O1        1.0  0.5941159618038797  0.22016355747217625  0.37573052677185337  1.0000
  O   O2        1.0  0.405881080879759  0.7798396937822857  0.62427441216316  1.0000
  O   O3        1.0  0.6177610983268877  0.2966317337559373  0.5614971535204133  1.0000
  O   O4        1.0  0.38222830135706  0.7033746420459008  0.43851041133813584  1.0000
  O   O5        1.0  0.33984921743110164  0.12458560687663578  0.35331423710088206  1.0000
  O   O6        1.0  0.6601504511586498  0.8754121025913831  0.646690616843614  1.0000
  O   O7        1.0  0.13244033699031374  0.2969877232525846  0.4834617756251303  1.0000
  O   O8        1.0  0.8675572834350119  0.703009790346179  0.516547591851385  1.0000
  O   O9        1.0  0.3959671181261299  0.1170996152776453  0.6563455942905632  1.0000
  O   O10       1.0  0.6040299105507431  0.8829035655980347  0.34366133840205026  1.0000
  O   O11       1.0  0.31836778800548876  0.5226253565037948  0.33433119073570333  1.0000
  O   O12       1.0  0.6816375174398388  0.4773692436839312  0.6656695695444554  1.0000
  O   O13       1.0  0.21575735202337412  0.6242804375637049  0.09646833958165496  1.0000
  O   O14       1.0  0.7842372749258574  0.3757196247212206  0.9035306222410495  1.0000
