data_image0
_chemical_formula_structural       Zn4H34C82Br12N4O16
_chemical_formula_sum              "Zn4 H34 C82 Br12 N4 O16"
_cell_length_a       16.52664750685867
_cell_length_b       17.923796533697786
_cell_length_c       29.115156359709296
_cell_angle_alpha    90.24153935985234
_cell_angle_beta     89.64847658298409
_cell_angle_gamma    89.91342432099017

_space_group_name_H-M_alt    "P 1"
_space_group_IT_number       1

loop_
  _space_group_symop_operation_xyz
  'x, y, z'

loop_
  _atom_site_type_symbol
  _atom_site_label
  _atom_site_symmetry_multiplicity
  _atom_site_fract_x
  _atom_site_fract_y
  _atom_site_fract_z
  _atom_site_occupancy
  Zn  Zn1       1.0  0.5829112758499022  0.5004306444383388  0.5023934272188482  1.0000
  Zn  Zn2       1.0  0.4147004457649571  0.49976789759677603  0.4985810394366012  1.0000
  Zn  Zn3       1.0  0.4149560292543128  0.5029340757921121  0.887421685071409  1.0000
  Zn  Zn4       1.0  0.5833033708776865  0.5012886935211753  0.8816501417988076  1.0000
  H   H1        1.0  0.28461517755023624  0.5843188886345559  0.5476672490437124  1.0000
  H   H2        1.0  0.13206568269681893  0.5867112211330436  0.5496810105642567  1.0000
  H   H3        1.0  0.2876979916851069  0.4156739424566212  0.44986743739710977  1.0000
  H   H4        1.0  0.710838467295737  0.5817110090004576  0.5526103313015297  1.0000
  H   H5        1.0  0.7126766165964398  0.4201917552601984  0.450445959508805  1.0000
  H   H6        1.0  0.8653259993990045  0.41684254994164865  0.4483995477570133  1.0000
  H   H7        1.0  0.6262945437007446  0.7372215551286487  0.501070499839038  1.0000
  H   H8        1.0  0.6272333931360876  0.8771322138218381  0.5001166756546311  1.0000
  H   H9        1.0  0.3666497846417726  0.7387414502074992  0.5003182872113142  1.0000
  H   H10       1.0  0.6289608230736119  0.26605178576170374  0.5008407428111636  1.0000
  H   H11       1.0  0.3694283789091698  0.2582169653900976  0.4998986757257595  1.0000
  H   H12       1.0  0.37450590418129065  0.11833034290159364  0.49958582980915606  1.0000
  H   H13       1.0  0.6821032649881571  0.552274500369606  0.7354606586717904  1.0000
  H   H14       1.0  0.6834058774712374  0.4527940986823398  0.7354031146825475  1.0000
  H   H15       1.0  0.6836850034109003  0.45269243831540257  0.6484476505029659  1.0000
  H   H16       1.0  0.6825332251441834  0.5521587946887648  0.6488218123776334  1.0000
  H   H17       1.0  0.37508006812959127  0.5032154572590104  0.03294052936571749  1.0000
  H   H18       1.0  0.3775819321800355  0.5021171609875453  0.11906079246019627  1.0000
  H   H19       1.0  0.6347119218929292  0.5015192410325116  0.029296650378483894  1.0000
  H   H20       1.0  0.3728375973456437  0.4995076551814179  0.3549150535117747  1.0000
  H   H21       1.0  0.6324923399497563  0.5007838616506106  0.3527665187586989  1.0000
  H   H22       1.0  0.6312399818553941  0.5011251391227276  0.2665571026783127  1.0000
  H   H23       1.0  0.7147799467522943  0.5818734215684956  0.8327270266404907  1.0000
  H   H24       1.0  0.8675205746955609  0.5852731152850623  0.8328150015246789  1.0000
  H   H25       1.0  0.7091911119374144  0.42158193408465655  0.9347619712639454  1.0000
  H   H26       1.0  0.2881429509287301  0.5878696338872514  0.8377224169782236  1.0000
  H   H27       1.0  0.2845034207681819  0.41912716125258953  0.9345618909579725  1.0000
  H   H28       1.0  0.1318507288790371  0.4162266273180109  0.9356816140501605  1.0000
  H   H29       1.0  0.36987737802537163  0.743727620075113  0.8838624387682683  1.0000
  H   H30       1.0  0.3743265255726412  0.8836122378422075  0.8839493910136152  1.0000
  H   H31       1.0  0.6294552290484461  0.7361243424958988  0.8831053527928531  1.0000
  H   H32       1.0  0.3664837738790538  0.26391052912979523  0.88526443903487  1.0000
  H   H33       1.0  0.6261530506884082  0.26439437906827123  0.8839387767479534  1.0000
  H   H34       1.0  0.626897290182242  0.12448651359803625  0.8840680260577327  1.0000
  C   C1        1.0  0.4951514304729513  0.6463673449609999  0.5014248890086035  1.0000
  C   C2        1.0  0.5025252902769068  0.5003139213797709  0.5906172985406781  1.0000
  C   C3        1.0  0.49628434817168443  0.3537905789583746  0.5000468839142868  1.0000
  C   C4        1.0  0.5023545495646073  0.49936517028078947  0.4102445579448143  1.0000
  C   C5        1.0  0.4969723055442044  0.6483453862397681  0.8833031355690932  1.0000
  C   C6        1.0  0.5024020925088521  0.5008984019293622  0.7943965346635193  1.0000
  C   C7        1.0  0.4953286886779507  0.3558418452283761  0.8850870618971668  1.0000
  C   C8        1.0  0.5030681240912498  0.502212405800222  0.9747209648816763  1.0000
  C   C9        1.0  0.24856163862033748  0.54726991036938  0.5262320765343842  1.0000
  C   C10       1.0  0.16473981430321766  0.5483563254535327  0.527129212494536  1.0000
  C   C11       1.0  0.12114427460774377  0.4991601480413408  0.4985356669616151  1.0000
  C   C12       1.0  0.166543289516447  0.4505977442728338  0.4699259825054936  1.0000
  C   C13       1.0  0.2507086546329943  0.4526001484407161  0.4712188994038868  1.0000
  C   C14       1.0  0.03586405592848509  0.49933608574608734  0.4990753258402164  1.0000
  C   C15       1.0  0.9621776768835769  0.501018660838689  0.5006397230998161  1.0000
  C   C16       1.0  0.8769015634937245  0.5014422988239107  0.5013101996904509  1.0000
  C   C17       1.0  0.8317518885301991  0.5484562371602023  0.5310046615548031  1.0000
  C   C18       1.0  0.7475804490490673  0.5465012159986314  0.5300632485009159  1.0000
  C   C19       1.0  0.7490668376691545  0.45556895737794906  0.472766851204021  1.0000
  C   C20       1.0  0.8328865014307353  0.4540964750183036  0.471749861519683  1.0000
  C   C21       1.0  0.4964517737602207  0.7300028880181345  0.5010619874684109  1.0000
  C   C22       1.0  0.5700152157699419  0.7688843956490887  0.5009216130518723  1.0000
  C   C23       1.0  0.5704972951121334  0.8462202168056764  0.5003431036851537  1.0000
  C   C24       1.0  0.4974733001244969  0.8875215771640371  0.5000026858052351  1.0000
  C   C25       1.0  0.42399183066333984  0.8470438266388882  0.5000881555415545  1.0000
  C   C26       1.0  0.4233106495823761  0.7695970724257322  0.500533929661806  1.0000
  C   C27       1.0  0.4997962063926594  0.966104727732663  0.4996559164437782  1.0000
  C   C28       1.0  0.5049106880082375  0.03403268612249379  0.4995627162391186  1.0000
  C   C29       1.0  0.5045949557018331  0.11267315544563422  0.4996916136088173  1.0000
  C   C30       1.0  0.5762518204775658  0.15576320383078007  0.5000124174773788  1.0000
  C   C31       1.0  0.5736417641123593  0.23321114458959616  0.500336705601157  1.0000
  C   C32       1.0  0.49888181063332837  0.27015746276544667  0.5001002341870587  1.0000
  C   C33       1.0  0.42701293116458305  0.22862744317610162  0.4998318041867193  1.0000
  C   C34       1.0  0.42984245309608576  0.15132947625685486  0.4996887340023547  1.0000
  C   C35       1.0  0.4947026029002897  0.49972710854487457  0.7428634453009549  1.0000
  C   C36       1.0  0.49483953411453274  0.4995434845532929  0.6422004443615918  1.0000
  C   C37       1.0  0.5650676639111437  0.5010514810017809  0.7162160084165022  1.0000
  C   C38       1.0  0.4218801996840823  0.49720643167709266  0.6683843298542411  1.0000
  C   C39       1.0  0.5651720896318863  0.5010254620211113  0.6684040780698266  1.0000
  C   C40       1.0  0.4217978361427157  0.4973483731902633  0.7171558094262378  1.0000
  C   C41       1.0  0.6565904188836523  0.5021776633182073  0.719235096203256  1.0000
  C   C42       1.0  0.6567589657359532  0.5021390205211702  0.6649263502872955  1.0000
  C   C43       1.0  0.5046802258894799  0.5020271416551411  0.026196193709125692  1.0000
  C   C44       1.0  0.43210255282989596  0.50240155909308  0.05145210428521808  1.0000
  C   C45       1.0  0.43354185894483516  0.501903672369153  0.09904564781473366  1.0000
  C   C46       1.0  0.5076344851506319  0.5011477300293451  0.12314572197958998  1.0000
  C   C47       1.0  0.5800510715870573  0.501034041918288  0.09693227867730057  1.0000
  C   C48       1.0  0.5788040147945778  0.5014331130344091  0.04924390263515479  1.0000
  C   C49       1.0  0.5070500606053443  0.500715810977411  0.17153221184523196  1.0000
  C   C50       1.0  0.5025082464211151  0.5004463509542206  0.21338599182428905  1.0000
  C   C51       1.0  0.5013498799263798  0.5002361487321138  0.261787842413085  1.0000
  C   C52       1.0  0.4285008392565359  0.4998546205627293  0.287581646616374  1.0000
  C   C53       1.0  0.429048296169448  0.499598093930814  0.33525387750047025  1.0000
  C   C54       1.0  0.5028073752627548  0.49965636539162256  0.35874313440038447  1.0000
  C   C55       1.0  0.5757684157430204  0.5002597830797129  0.33393676387285604  1.0000
  C   C56       1.0  0.5750235004071199  0.5005420448516633  0.2863148779942577  1.0000
  C   C57       1.0  0.7503808516364713  0.5467550760662833  0.85547797582565  1.0000
  C   C58       1.0  0.8341771743512465  0.548281293097432  0.8556580404324376  1.0000
  C   C59       1.0  0.8770496258791239  0.5011728101480131  0.8857250729363597  1.0000
  C   C60       1.0  0.8308799307320668  0.45452199081651684  0.9148117618541745  1.0000
  C   C61       1.0  0.7467536706076104  0.4564965460603431  0.9127018552046166  1.0000
  C   C62       1.0  0.9623218197527803  0.5014085248814767  0.8859888539246723  1.0000
  C   C63       1.0  0.03602353205672419  0.5032162499457301  0.8849182717648956  1.0000
  C   C64       1.0  0.12130292497019472  0.5037131010077545  0.8849261576840275  1.0000
  C   C65       1.0  0.16695298277766565  0.552403762822145  0.8568751277497099  1.0000
  C   C66       1.0  0.2511261103345888  0.5508917377453812  0.8587367889441849  1.0000
  C   C67       1.0  0.24851659179348218  0.4562238785640106  0.9132335446586095  1.0000
  C   C68       1.0  0.16470749356310677  0.454757856277446  0.9135946261804335  1.0000
  C   C69       1.0  0.4993803334778022  0.7319464330890711  0.8832029780670253  1.0000
  C   C70       1.0  0.42732197433941355  0.7733851395993983  0.8835619560712187  1.0000
  C   C71       1.0  0.42981301484613954  0.8506748998175128  0.883703205451219  1.0000
  C   C72       1.0  0.5043837675993501  0.8894025741435314  0.8836664769973976  1.0000
  C   C73       1.0  0.576249514372627  0.8463878002152967  0.8833886326502947  1.0000
  C   C74       1.0  0.5739896414080048  0.7689372840952801  0.883117260151181  1.0000
  C   C75       1.0  0.5044194076615794  0.968037298579475  0.8840332222485116  1.0000
  C   C76       1.0  0.49926285614512267  0.03596808352762791  0.8843765335585443  1.0000
  C   C77       1.0  0.4971037535978268  0.11458526843465222  0.8845942928581036  1.0000
  C   C78       1.0  0.4236992097756839  0.15540074052523076  0.8849548599109126  1.0000
  C   C79       1.0  0.4231330394594578  0.23287022226989515  0.8851217935420903  1.0000
  C   C80       1.0  0.49632735343816126  0.27217479674602885  0.8848367652219407  1.0000
  C   C81       1.0  0.5698302358293927  0.23296667817010078  0.884347975734485  1.0000
  C   C82       1.0  0.5701960762363923  0.1556116299017347  0.8843343242522932  1.0000
  Br  Br1       1.0  0.11540947755005246  0.38279136404239017  0.4297757441191051  1.0000
  Br  Br2       1.0  0.8834896257199033  0.6141376765074468  0.5722647786737409  1.0000
  Br  Br3       1.0  0.3236449324929112  0.8991968473868326  0.49950412717278414  1.0000
  Br  Br4       1.0  0.6786809507874947  0.1071249157912746  0.5000223347985935  1.0000
  Br  Br5       1.0  0.6815947071512483  0.5003899540570131  0.12733551893217046  1.0000
  Br  Br6       1.0  0.32736372503749306  0.4998129174316047  0.2567308304780197  1.0000
  Br  Br7       1.0  0.881016361197531  0.3892650328609549  0.9566646091110866  1.0000
  Br  Br8       1.0  0.11608152730990884  0.6199415931319622  0.8166872904934904  1.0000
  Br  Br9       1.0  0.6784683540559511  0.8950831363760804  0.8836432261054481  1.0000
  Br  Br10      1.0  0.32328933758820705  0.103610403510821  0.885161719598649  1.0000
  Br  Br11      1.0  0.31961413291431023  0.4923351105962653  0.6385002770064998  1.0000
  Br  Br12      1.0  0.3194115690359495  0.4928162169741127  0.7476361133836915  1.0000
  N   N1        1.0  0.2902693376789073  0.49999759297841  0.4988680552998942  1.0000
  N   N2        1.0  0.7076335855935908  0.5009686209864839  0.5014235590855378  1.0000
  N   N3        1.0  0.7079143504032  0.501568611695177  0.8834821849059366  1.0000
  N   N4        1.0  0.2904738127257147  0.5035879749414889  0.8863752423894267  1.0000
  O   O1        1.0  0.5635120916987686  0.6132786070850003  0.5029505432296091  1.0000
  O   O2        1.0  0.42626524666502513  0.6148923080140278  0.5000163255182173  1.0000
  O   O3        1.0  0.4384337759536619  0.49982622130124116  0.5669027405213  1.0000
  O   O4        1.0  0.574351216764718  0.501519286294119  0.5744416979121636  1.0000
  O   O5        1.0  0.4269509710894326  0.3844500202697603  0.4978669701092214  1.0000
  O   O6        1.0  0.564038014650066  0.3876962847241075  0.5021477439130348  1.0000
  O   O7        1.0  0.5702409249407195  0.4991873096877483  0.4306595636231377  1.0000
  O   O8        1.0  0.4329126006960705  0.49941493247886376  0.4296064676638024  1.0000
  O   O9        1.0  0.4275628096030529  0.6179011585653029  0.8854743614491054  1.0000
  O   O10       1.0  0.564751589213138  0.6142574992583363  0.8813578701076492  1.0000
  O   O11       1.0  0.5743609027483811  0.5009466207940393  0.8099753002756669  1.0000
  O   O12       1.0  0.438433132315282  0.502007168931108  0.8186321495843385  1.0000
  O   O13       1.0  0.5637089908698483  0.38845354316337943  0.882119644522646  1.0000
  O   O14       1.0  0.4266779218993406  0.3877858298104755  0.8882092435850664  1.0000
  O   O15       1.0  0.43320324195752136  0.504136528075648  0.956350699815182  1.0000
  O   O16       1.0  0.5704440778314818  0.5004079091052772  0.9533435921110038  1.0000
