data_image0
_chemical_formula_structural       Co4H84C76S4N12O20
_chemical_formula_sum              "Co4 H84 C76 S4 N12 O20"
_cell_length_a       13.567760631830565
_cell_length_b       14.986678581670002
_cell_length_c       14.985679665296887
_cell_angle_alpha    82.59405406723687
_cell_angle_beta     78.52475210522898
_cell_angle_gamma    78.50555580162273

_space_group_name_H-M_alt    "P 1"
_space_group_IT_number       1

loop_
  _space_group_symop_operation_xyz
  'x, y, z'

loop_
  _atom_site_type_symbol
  _atom_site_label
  _atom_site_symmetry_multiplicity
  _atom_site_fract_x
  _atom_site_fract_y
  _atom_site_fract_z
  _atom_site_occupancy
  Co  Co1       1.0  0.5040339985813489  0.9973490134665468  0.49774596371950247  1.0000
  Co  Co2       1.0  0.9958776438991706  0.5022624968208192  0.0025862684535268897  1.0000
  Co  Co3       1.0  0.749935088423328  0.8191453126509742  0.18085037864187106  1.0000
  Co  Co4       1.0  0.2500607798917329  0.1810359944578863  0.8188835711440062  1.0000
  H   H1        1.0  0.8386152031005594  0.6220924350195886  0.2068112247359224  1.0000
  H   H2        1.0  0.3409396037958103  0.2041310444573838  0.6226796071829523  1.0000
  H   H3        1.0  0.15915374191946796  0.3772514091894196  0.7959980703979495  1.0000
  H   H4        1.0  0.6612980187316283  0.7932319375538343  0.37789748262660056  1.0000
  H   H5        1.0  0.7770099532394781  0.473168825400812  0.24662510709985944  1.0000
  H   H6        1.0  0.2800114198833938  0.2437134742403373  0.4730758353070144  1.0000
  H   H7        1.0  0.22005259131857713  0.5268644364119766  0.7564621798452149  1.0000
  H   H8        1.0  0.7229679865617696  0.7534256798083091  0.5268171985754292  1.0000
  H   H9        1.0  0.30828577608561863  0.9855665759979005  0.6393027691035582  1.0000
  H   H10       1.0  0.7987094079833741  0.6457993982539206  0.9881052368676464  1.0000
  H   H11       1.0  0.7012345047808355  0.011802533799681197  0.3543307760612746  1.0000
  H   H12       1.0  0.1916310120022544  0.36073363902031025  0.01450526583941778  1.0000
  H   H13       1.0  0.49959607585590504  0.3009169664515028  0.2763902858567916  1.0000
  H   H14       1.0  0.9941610466478183  0.2801040227548057  0.30329777760724846  1.0000
  H   H15       1.0  0.5057615047684578  0.6966532363877818  0.7199701824277438  1.0000
  H   H16       1.0  0.0001886573406010714  0.7237136184781151  0.6991220707492615  1.0000
  H   H17       1.0  0.3595711250861696  0.0349307802876453  0.35525983985095877  1.0000
  H   H18       1.0  0.8520166296895296  0.3620685027001755  0.04005957607774489  1.0000
  H   H19       1.0  0.6478217997206388  0.959839884574464  0.6380465501362309  1.0000
  H   H20       1.0  0.14029456137831886  0.6447632698033772  0.9649939882331748  1.0000
  H   H21       1.0  0.5321674700548229  0.15708008727388995  0.5846545278048152  1.0000
  H   H22       1.0  0.03276214436174736  0.5875874939012321  0.16093632856841109  1.0000
  H   H23       1.0  0.46712235913430794  0.8389813204351596  0.41246509179893553  1.0000
  H   H24       1.0  0.9682029230559904  0.41527053530182917  0.8427000760559692  1.0000
  H   H25       1.0  0.4800024327375639  0.14115586585316464  0.32492702010296165  1.0000
  H   H26       1.0  0.9686301627398352  0.3320116931393642  0.14545862848825655  1.0000
  H   H27       1.0  0.5312648300928868  0.8544877099774338  0.6680446175766264  1.0000
  H   H28       1.0  0.01968076466660307  0.6751550415616167  0.8589136858980806  1.0000
  H   H29       1.0  0.4792109010913351  0.47073662855208914  0.411176267421375  1.0000
  H   H30       1.0  0.9817016020858347  0.4100484848928403  0.4733594114554264  1.0000
  H   H31       1.0  0.5183363694155146  0.5265850502796994  0.5899963279265348  1.0000
  H   H32       1.0  0.020821697619645446  0.5888956001503728  0.5291723303896134  1.0000
  H   H33       1.0  0.6089341333539694  0.4323019076824649  0.41719038379446266  1.0000
  H   H34       1.0  0.11102351258129059  0.41698548414133546  0.4336273308558986  1.0000
  H   H35       1.0  0.38899290458306984  0.5662646167983282  0.5830667759235766  1.0000
  H   H36       1.0  0.8911164919663863  0.5828598748515291  0.567625947627107  1.0000
  H   H37       1.0  0.12137533379433312  0.008222489091622306  0.6469304268015392  1.0000
  H   H38       1.0  0.6120596651594138  0.6519114844476732  0.007004190051269212  1.0000
  H   H39       1.0  0.8878544419305925  0.9930059105845787  0.34835262531660033  1.0000
  H   H40       1.0  0.37853225023320664  0.35308888689361595  0.991907282972427  1.0000
  H   H41       1.0  0.4693264807910608  0.6256434159639425  0.25998495488230583  1.0000
  H   H42       1.0  0.9716915109833836  0.26034257963578267  0.6246434014462634  1.0000
  H   H43       1.0  0.5284039609067362  0.3752357823518225  0.7394969465740997  1.0000
  H   H44       1.0  0.030610859585365763  0.7400817286976249  0.37432699357874094  1.0000
  H   H45       1.0  0.5547283894065986  0.319985252870346  0.5472288436370077  1.0000
  H   H46       1.0  0.060020543766526685  0.5470359106582378  0.32235772381638134  1.0000
  H   H47       1.0  0.4399165866116733  0.6775421089259054  0.45302789996863163  1.0000
  H   H48       1.0  0.9456864188465418  0.45273757352321553  0.679789781540421  1.0000
  H   H49       1.0  0.5450308256507768  0.7684869599934459  0.22160861193702883  1.0000
  H   H50       1.0  0.04673050611661721  0.22202824918473854  0.7682260150619483  1.0000
  H   H51       1.0  0.4534000702863565  0.23165904674600307  0.7777651921824  1.0000
  H   H52       1.0  0.9548502650583612  0.7784567148960236  0.23149588016008946  1.0000
  H   H53       1.0  0.5100596732472624  0.4531300061795847  0.2466914211490661  1.0000
  H   H54       1.0  0.012891419990644705  0.24634688499243398  0.4523277318032512  1.0000
  H   H55       1.0  0.4872007264913805  0.5475325118843273  0.7536852037044283  1.0000
  H   H56       1.0  0.9899012399402951  0.7533768708459404  0.546855922923811  1.0000
  H   H57       1.0  0.6357464419955293  0.39307259969969277  0.24961832908252288  1.0000
  H   H58       1.0  0.13827974829644066  0.2503049893654392  0.3920559363466793  1.0000
  H   H59       1.0  0.36179685838370546  0.6078370379935693  0.7497674787097637  1.0000
  H   H60       1.0  0.8642298020628092  0.750413230235999  0.6068982901937828  1.0000
  H   H61       1.0  0.17381630968624506  0.06128572285435749  0.3521222703789561  1.0000
  H   H62       1.0  0.6670702393746382  0.3573769427383269  0.06279847136180185  1.0000
  H   H63       1.0  0.8327172153592174  0.9371892426190271  0.6428788033794388  1.0000
  H   H64       1.0  0.3260392522093839  0.6478982257317583  0.93866191115859  1.0000
  H   H65       1.0  0.9962342521686054  0.0935635256533445  0.44184255112112675  1.0000
  H   H66       1.0  0.48917607687246795  0.44552342151914814  0.09275748900523689  1.0000
  H   H67       1.0  0.010663960929903689  0.9073775466292132  0.5548531890943094  1.0000
  H   H68       1.0  0.5036439358376371  0.5581137846662686  0.9063589543574507  1.0000
  H   H69       1.0  0.973841610529391  0.07639229527662648  0.5632082129716236  1.0000
  H   H70       1.0  0.4654046725521326  0.5668475937296408  0.07580857350237835  1.0000
  H   H71       1.0  0.034434539635469656  0.9240438592712509  0.43351550710382714  1.0000
  H   H72       1.0  0.5260648585966835  0.4367602784618754  0.9238091337618283  1.0000
  H   H73       1.0  0.6302514473618643  0.9142201415862629  0.979463181382648  1.0000
  H   H74       1.0  0.13390118633473957  0.9786715672717748  0.918994011305486  1.0000
  H   H75       1.0  0.3669382762183418  0.08079405807904999  0.020864206945304862  1.0000
  H   H76       1.0  0.869531148017913  0.0205556135652714  0.08577860358086291  1.0000
  H   H77       1.0  0.6584461525290666  0.9757296704337791  0.06433123992599107  1.0000
  H   H78       1.0  0.166121673551423  0.0637508840299077  0.9776231123535054  1.0000
  H   H79       1.0  0.3356353651745039  0.022257878856954995  0.9352328582600078  1.0000
  H   H80       1.0  0.8414085759924674  0.9356669081335767  0.024251057483134223  1.0000
  H   H81       1.0  0.553758086340501  0.9163124911745939  0.0922327415580284  1.0000
  H   H82       1.0  0.056156093636630516  0.09060704427174221  0.9252352692694997  1.0000
  H   H83       1.0  0.4447379408043163  0.0757898019950929  0.9088893472656849  1.0000
  H   H84       1.0  0.946085738585694  0.907802671342715  0.08371052439972002  1.0000
  C   C1        1.0  0.7574736301766124  0.6191855986786265  0.22162199874228594  1.0000
  C   C2        1.0  0.259843903360121  0.21967680930200126  0.6193032599203292  1.0000
  C   C3        1.0  0.2402473363322244  0.38062170423017966  0.7804071732266351  1.0000
  C   C4        1.0  0.7424415244303905  0.7784255595722983  0.38080396583592335  1.0000
  C   C5        1.0  0.721938002776227  0.5368757496975717  0.2437231443260969  1.0000
  C   C6        1.0  0.22476336459494214  0.2415644845399711  0.5367527635770486  1.0000
  C   C7        1.0  0.2753046379877234  0.4631796260168101  0.7585422342959092  1.0000
  C   C8        1.0  0.7780140759695656  0.7563352189535736  0.4631008358182385  1.0000
  C   C9        1.0  0.5293845416994074  0.32583355240852546  0.4077833496009119  1.0000
  C   C10       1.0  0.029279670491803182  0.409409796045729  0.3281021550716544  1.0000
  C   C11       1.0  0.4706655673198342  0.6718316602218479  0.5906520004350425  1.0000
  C   C12       1.0  0.9706901152677787  0.5922612082063381  0.67407869490318  1.0000
  C   C13       1.0  0.27603604048104563  0.0027808016808351043  0.5766972811442129  1.0000
  C   C14       1.0  0.766910965229087  0.5830393873384312  0.00497938997352777  1.0000
  C   C15       1.0  0.7329995559682203  0.9949477587212954  0.41711613211919735  1.0000
  C   C16       1.0  0.22387494103437433  0.4233357603320228  0.9972790700883536  1.0000
  C   C17       1.0  0.6169475280018092  0.5364316114820937  0.25795658371131935  1.0000
  C   C18       1.0  0.11974845551804246  0.25675896801608633  0.535983747825554  1.0000
  C   C19       1.0  0.38032792788609276  0.46391936928224453  0.7432692470243152  1.0000
  C   C20       1.0  0.8830041122056401  0.7421135408239934  0.4635463031224275  1.0000
  C   C21       1.0  0.5064099285305376  0.2735767991435267  0.34631550383691934  1.0000
  C   C22       1.0  0.0020776134018945045  0.34990464329678156  0.2763730263668549  1.0000
  C   C23       1.0  0.49783580961985774  0.7235698501053561  0.6501668363341933  1.0000
  C   C24       1.0  0.9934986176152237  0.6537521009390944  0.7264100248195644  1.0000
  C   C25       1.0  0.304322438806679  0.03177677630967679  0.4188899253152414  1.0000
  C   C26       1.0  0.7964166340954151  0.42537566615101957  0.035351104245471235  1.0000
  C   C27       1.0  0.7034439003332978  0.9645635381391742  0.5747660300911406  1.0000
  C   C28       1.0  0.19555171727645868  0.5811391657834832  0.96819896274598  1.0000
  C   C29       1.0  0.5255947941832346  0.1925741177921765  0.5172884840597476  1.0000
  C   C30       1.0  0.024393086453706275  0.5204977161047496  0.19624100539078876  1.0000
  C   C31       1.0  0.47550140589139994  0.8036848194971214  0.47955826761260295  1.0000
  C   C32       1.0  0.9746378262889976  0.48268564153328697  0.8072712488485152  1.0000
  C   C33       1.0  0.49475443799978086  0.18308380249594333  0.37326096453193697  1.0000
  C   C34       1.0  0.9873548312236835  0.3786416750755706  0.1869476125210098  1.0000
  C   C35       1.0  0.5125354421701047  0.8129947369866103  0.6214198516270881  1.0000
  C   C36       1.0  0.005122695039815963  0.6267927951165717  0.8169114258425266  1.0000
  C   C37       1.0  0.5477414456523422  0.4227089327488401  0.3827363766422066  1.0000
  C   C38       1.0  0.049675790110875105  0.3826932777157595  0.4241351362562682  1.0000
  C   C39       1.0  0.45033455201726724  0.5757849018103585  0.6173574293625633  1.0000
  C   C40       1.0  0.9523029329955367  0.6173227093805308  0.5772131532846173  1.0000
  C   C41       1.0  0.1709625376854831  0.014949726438693698  0.5803678154286017  1.0000
  C   C42       1.0  0.6621555209935154  0.5858314375832451  0.01518400624306781  1.0000
  C   C43       1.0  0.8377295123767114  0.9848039897181025  0.4144078616958493  1.0000
  C   C44       1.0  0.3289496925899726  0.41965559490992643  0.9851333698247442  1.0000
  C   C45       1.0  0.13074186112513084  0.0371794625895276  0.49968443503096427  1.0000
  C   C46       1.0  0.6227518317911988  0.5046809072828253  0.03722488019149486  1.0000
  C   C47       1.0  0.877104395883137  0.9627784548346767  0.4955770498131854  1.0000
  C   C48       1.0  0.36914406776449477  0.5003448406655197  0.9628636998818578  1.0000
  C   C49       1.0  0.5520058963750573  0.6212421595163562  0.2504094280722383  1.0000
  C   C50       1.0  0.054388155840634105  0.24995047794254077  0.6206373963674422  1.0000
  C   C51       1.0  0.44570059211957863  0.37925795106185944  0.7499750174996078  1.0000
  C   C52       1.0  0.9479299924975777  0.7496594005049458  0.3787339627319355  1.0000
  C   C53       1.0  0.5376269190314673  0.28311705948380705  0.4955654331804382  1.0000
  C   C54       1.0  0.039332103397569505  0.4970078026515665  0.2858286066266871  1.0000
  C   C55       1.0  0.46059522097184674  0.7140900882274792  0.5030479516061205  1.0000
  C   C56       1.0  0.9626190062529931  0.5044313535552972  0.716728401510842  1.0000
  C   C57       1.0  0.5926571856457985  0.7011316705781566  0.22813598238003843  1.0000
  C   C58       1.0  0.09448402873717042  0.2277449857733842  0.7008109189202256  1.0000
  C   C59       1.0  0.40562705368536456  0.2990789540226189  0.7721499116909882  1.0000
  C   C60       1.0  0.9072470593899669  0.7719207590319214  0.29885785642796486  1.0000
  C   C61       1.0  0.5768869255696103  0.44815539832985957  0.27948410966051535  1.0000
  C   C62       1.0  0.07958608582393369  0.2792011831310078  0.4477709988853603  1.0000
  C   C63       1.0  0.42048082525455044  0.5521245977903959  0.7208445863357581  1.0000
  C   C64       1.0  0.9230952894273727  0.7205741810664605  0.5518091670335178  1.0000
  C   C65       1.0  0.20007588887823863  0.0450929981689896  0.41761358011934385  1.0000
  C   C66       1.0  0.6925502686868228  0.423212957146795  0.04669425854748254  1.0000
  C   C67       1.0  0.8072846964549498  0.9532831118357735  0.5770150064059578  1.0000
  C   C68       1.0  0.29979415713019364  0.5824068756666279  0.9548934511418491  1.0000
  C   C69       1.0  0.0182411787804213  0.0471535158841405  0.5005689845214576  1.0000
  C   C70       1.0  0.5105863639628581  0.504530856098441  0.04644750872773067  1.0000
  C   C71       1.0  0.989261888448752  0.9535555316019143  0.4957538015534267  1.0000
  C   C72       1.0  0.4816382985954846  0.4994728559311953  0.9528958932895931  1.0000
  C   C73       1.0  0.6320939411588499  0.9137355657781187  0.05282249574735678  1.0000
  C   C74       1.0  0.13535087289726283  0.05214744789229541  0.9181040516936958  1.0000
  C   C75       1.0  0.3655880634642373  0.08205374625971021  0.9473253282817495  1.0000
  C   C76       1.0  0.8677303621499634  0.9471882358520319  0.08625709287806413  1.0000
  S   S1        1.0  0.5606679818346337  0.9718694050157168  0.2672364108946679  1.0000
  S   S2        1.0  0.05112026602326129  0.27330479863127277  0.9804538439469254  1.0000
  S   S3        1.0  0.4488654876337748  0.019533782145359207  0.7266839018821756  1.0000
  S   S4        1.0  0.9392428486769335  0.7328103460581729  0.028172002902088825  1.0000
  N   N1        1.0  0.504793006955893  0.14238455004578301  0.45707702534781447  1.0000
  N   N2        1.0  0.9986820391001955  0.4624093243079558  0.1467880099311571  1.0000
  N   N3        1.0  0.5011973388899379  0.853142986122414  0.5376494373676195  1.0000
  N   N4        1.0  0.995232379405174  0.542927682099112  0.8575462081707028  1.0000
  N   N5        1.0  0.342070203149312  0.0115751021181225  0.4971726853386044  1.0000
  N   N6        1.0  0.8333107398276027  0.5041110940079108  0.015547565086926307  1.0000
  N   N7        1.0  0.6665811301233546  0.9843405238655053  0.4960131360403394  1.0000
  N   N8        1.0  0.15782809598773184  0.50285048584702  0.9884342021361333  1.0000
  N   N9        1.0  0.6940344488002452  0.699963051374702  0.2140528374950604  1.0000
  N   N10       1.0  0.1959229496152517  0.213014752406707  0.70005918201025  1.0000
  N   N11       1.0  0.30417936215562247  0.29985776189007396  0.7869574239129236  1.0000
  N   N12       1.0  0.8058687909584067  0.7859907559437859  0.3000240677684971  1.0000
  O   O1        1.0  0.6211520413503706  0.8749525241435093  0.2505594643666668  1.0000
  O   O2        1.0  0.10291694966519326  0.2552663768402823  0.8845607429580226  1.0000
  O   O3        1.0  0.3970790731927992  0.11544966327725349  0.7446951653911568  1.0000
  O   O4        1.0  0.8786974206278089  0.7493712642014286  0.12508438580085374  1.0000
  O   O5        1.0  0.5341500587279954  0.9652441174832519  0.37120631108348323  1.0000
  O   O6        1.0  0.021299746793516816  0.3788270729231513  0.973840355125233  1.0000
  O   O7        1.0  0.4786093254789989  0.026121295633522803  0.6211843664988805  1.0000
  O   O8        1.0  0.9657223372066853  0.6288416882939812  0.034631767346851854  1.0000
  O   O9        1.0  0.6220436352010666  0.04252828532720089  0.2331803383420734  1.0000
  O   O10       1.0  0.11954723017988302  0.2442071248458504  0.04682595091020397  1.0000
  O   O11       1.0  0.38042199193352383  0.9531872247840242  0.7558410522239071  1.0000
  O   O12       1.0  0.8779412877914436  0.7670268754676074  0.9574812788824971  1.0000
  O   O13       1.0  0.6980888732366141  0.8330377259369045  0.07700285808053295  1.0000
  O   O14       1.0  0.19405253201794181  0.0794240987276211  0.83415957756619  1.0000
  O   O15       1.0  0.3060059998854356  0.16574441418543978  0.9205713563377882  1.0000
  O   O16       1.0  0.8017474735019691  0.9229981009140077  0.16693580851679704  1.0000
  O   O17       1.0  0.46526752199614674  0.9835107117195959  0.23213227206350948  1.0000
  O   O18       1.0  0.9550774439749576  0.2377546106431154  0.004779704881023829  1.0000
  O   O19       1.0  0.5449130467790867  0.9952030653645708  0.7622349094903882  1.0000
  O   O20       1.0  0.034664496752988286  0.7678394432877765  0.016706246369132306  1.0000
