data_image0
_chemical_formula_structural       Zn6H12C54Cl4O24
_chemical_formula_sum              "Zn6 H12 C54 Cl4 O24"
_cell_length_a       21.684646626227092
_cell_length_b       23.108552402402193
_cell_length_c       23.108546888265884
_cell_angle_alpha    77.27765732838418
_cell_angle_beta     62.01178409192385
_cell_angle_gamma    62.01159816145892

_space_group_name_H-M_alt    "P 1"
_space_group_IT_number       1

loop_
  _space_group_symop_operation_xyz
  'x, y, z'

loop_
  _atom_site_type_symbol
  _atom_site_label
  _atom_site_symmetry_multiplicity
  _atom_site_fract_x
  _atom_site_fract_y
  _atom_site_fract_z
  _atom_site_occupancy
  Zn  Zn1       1.0  0.9999985437908235  0.954774001046303  0.045227425741827997  1.0000
  Zn  Zn2       1.0  0.4398609830566399  0.5001171378614941  0.4998195536976978  1.0000
  Zn  Zn3       1.0  0.5601390941955985  0.5001808916186903  0.4998829153335007  1.0000
  Zn  Zn4       1.0  0.9999994396029305  0.0446360893605444  0.9553651396461688  1.0000
  Zn  Zn5       1.0  0.5450799129083845  0.9549707773298196  0.9548989628442751  1.0000
  Zn  Zn6       1.0  0.4549210101099348  0.04509886881551489  0.04502813262691052  1.0000
  H   H1        1.0  0.14339188520986568  0.108285641845157  0.030243141546748085  1.0000
  H   H2        1.0  0.7895876815572505  0.918531110490392  0.08136651435432872  1.0000
  H   H3        1.0  0.21045562548412985  0.918590732843434  0.08142675935754069  1.0000
  H   H4        1.0  0.26067331158404267  0.1164272307462255  0.8835844428007389  1.0000
  H   H5        1.0  0.295781374288161  0.1273014807014832  0.9344288515312442  1.0000
  H   H6        1.0  0.357514676444211  0.06557097289901039  0.8726946968389481  1.0000
  H   H7        1.0  0.7392601619257418  0.11648297382502905  0.8836375883288311  1.0000
  H   H8        1.0  0.7041649651511647  0.06564011018708271  0.8727361987835919  1.0000
  H   H9        1.0  0.6424270841195252  0.1273397424846934  0.9345000797467901  1.0000
  H   H10       1.0  0.8565856775000209  0.9698167276270343  0.8916985091613862  1.0000
  H   H11       1.0  0.7180755820804167  0.10823803940629517  0.03028401950160006  1.0000
  H   H12       1.0  0.2819007487725428  0.9697741530223424  0.8917465829622699  1.0000
  C   C1        1.0  0.9096334667085697  0.0904741128471116  0.09024736929669043  1.0000
  C   C2        1.0  0.22907636697777878  0.7710140463449235  0.7708904030812818  1.0000
  C   C3        1.0  0.8128016988676521  0.9986085636260141  0.0013549674488117407  1.0000
  C   C4        1.0  0.8598597956044786  0.14046627318229096  0.1398042440821993  1.0000
  C   C5        1.0  0.14013547520875855  0.8601973661503804  0.8595361194993669  1.0000
  C   C6        1.0  0.297915483969959  0.09054165135979989  0.909460637529747  1.0000
  C   C7        1.0  0.7020342004069061  0.0905881906326869  0.9095087821623267  1.0000
  C   C8        1.0  0.7709239965744387  0.22911146981150668  0.2289874236354306  1.0000
  C   C9        1.0  0.7281880881438099  0.2718498471884558  0.27184395648963283  1.0000
  C   C10       1.0  0.27181121441940076  0.7281570664215522  0.7281517582422409  1.0000
  C   C11       1.0  0.6819163407569987  0.31817515810099917  0.31824236901528014  1.0000
  C   C12       1.0  0.31808572781473266  0.6817562813119693  0.6818250253751612  1.0000
  C   C13       1.0  0.09036444977958494  0.9097533431015637  0.9095271829259913  1.0000
  C   C14       1.0  0.6393054475683755  0.3606974511353869  0.3608077869530033  1.0000
  C   C15       1.0  0.3606953340444715  0.6391933101629946  0.6393041076776951  1.0000
  C   C16       1.0  0.4999997228671087  0.09049361632798991  0.9095050784749076  1.0000
  C   C17       1.0  0.38156086773754083  0.9988876039264624  0.0011451789407031564  1.0000
  C   C18       1.0  0.6184440737080408  0.9988492278101404  0.0011093818774697165  1.0000
  C   C19       1.0  0.5000013967969181  0.9097941214978249  0.09020417328314063  1.0000
  C   C20       1.0  0.4999992351686371  0.5896560617465241  0.41034400356599576  1.0000
  C   C21       1.0  0.5895673316000227  0.4103990024163551  0.41048154193217085  1.0000
  C   C22       1.0  0.4104352009747315  0.5895187140482391  0.5896023184306924  1.0000
  C   C23       1.0  0.118736614851393  0.9994357875384311  0.0006091580923168689  1.0000
  C   C24       1.0  0.8812609200572085  0.9993934622400286  0.0005657879515794267  1.0000
  C   C25       1.0  0.5000015404790048  0.41058315675722656  0.5894143400130075  1.0000
  C   C26       1.0  0.49999959413615597  0.14029596288492743  0.8597047467241481  1.0000
  C   C27       1.0  0.5000008672427398  0.18284443198677988  0.8171561076704349  1.0000
  C   C28       1.0  0.5000003681672777  0.22919504853098258  0.7708051691379365  1.0000
  C   C29       1.0  0.8172908048700549  0.18289446318828337  0.18248686862042254  1.0000
  C   C30       1.0  0.49999977188766526  0.2719880745104675  0.7280121348606983  1.0000
  C   C31       1.0  0.4999999601456364  0.31834016134754245  0.6816592306264652  1.0000
  C   C32       1.0  0.500000838890223  0.36088372964015036  0.6391145228051086  1.0000
  C   C33       1.0  0.5000018776074808  0.8599785421113993  0.14002031044409335  1.0000
  C   C34       1.0  0.5000028921056126  0.81742615235202  0.18257072142554867  1.0000
  C   C35       1.0  0.18270793735824484  0.817511877017971  0.8171079757226352  1.0000
  C   C36       1.0  0.5000019721341856  0.771060833085798  0.22893632160509  1.0000
  C   C37       1.0  0.19107702600506832  0.05944565595565619  0.017476708964984808  1.0000
  C   C38       1.0  0.8089095717654331  0.9825588597673727  0.9405440998122213  1.0000
  C   C39       1.0  0.7320041762565238  0.05940696247883889  0.017509112718052198  1.0000
  C   C40       1.0  0.26798616273096326  0.9825250194438694  0.9405814261292559  1.0000
  C   C41       1.0  0.5000016698640266  0.7282521241042587  0.27174556418379586  1.0000
  C   C42       1.0  0.5000002809695444  0.6818882751316764  0.318109843281668  1.0000
  C   C43       1.0  0.49999955344470925  0.6393255931308488  0.3606740621300516  1.0000
  C   C44       1.0  0.27175067055222984  0.0425851147152585  0.9574156788334987  1.0000
  C   C45       1.0  0.728225274440028  0.0426108396529514  0.9574383129732948  1.0000
  C   C46       1.0  0.31329672726617  0.9968804038320942  0.003117932937044471  1.0000
  C   C47       1.0  0.6867069633705825  0.9968773567653881  0.0031161865507624976  1.0000
  C   C48       1.0  0.23146863193284153  0.014252678559913096  0.06232254787300206  1.0000
  C   C49       1.0  0.7685457608484466  0.9376878024397043  0.9857116705141987  1.0000
  C   C50       1.0  0.6919746228403696  0.014205145278253896  0.06232276762500533  1.0000
  C   C51       1.0  0.30804093850053943  0.9376838766319222  0.9857552415015643  1.0000
  C   C52       1.0  0.22783108288218298  0.9540940302446758  0.04592598929438196  1.0000
  C   C53       1.0  0.7721975813055764  0.9540458261030338  0.04587730970715151  1.0000
  C   C54       1.0  0.18719877053515432  0.9986445450997578  0.001390286177290495  1.0000
  Cl  Cl1       1.0  0.20603503143658483  0.034071308857427596  0.14132705953437605  1.0000
  Cl  Cl2       1.0  0.794001423293451  0.85868692350239  0.9658544654360737  1.0000
  Cl  Cl3       1.0  0.6185828109698122  0.0340119819905382  0.141338628592095  1.0000
  Cl  Cl4       1.0  0.3814418694880714  0.8586776384551414  0.9659068926316078  1.0000
  O   O1        1.0  0.9290531035913573  0.0312742846325804  0.1105624746410996  1.0000
  O   O2        1.0  0.0705243617304701  0.9692589230507592  0.8897636966284423  1.0000
  O   O3        1.0  0.9294734078685777  0.11023629625385918  0.030742189596395308  1.0000
  O   O4        1.0  0.0914994792861918  0.9600834040844363  0.039939100774084496  1.0000
  O   O5        1.0  0.9084973099026784  0.9600637444910657  0.039918229710785486  1.0000
  O   O6        1.0  0.09266231503466568  0.0391844304663636  0.960865403926526  1.0000
  O   O7        1.0  0.907335808707522  0.03913600246320929  0.9608163830837237  1.0000
  O   O8        1.0  0.07094452543439185  0.8894393809379436  0.9687266374597953  1.0000
  O   O9        1.0  0.5397278681133668  0.03124006790786639  0.8893370419018253  1.0000
  O   O10       1.0  0.4602709855444046  0.1106621879212923  0.9687603094298678  1.0000
  O   O11       1.0  0.44759968311416976  0.9607385119686782  0.9601978639694265  1.0000
  O   O12       1.0  0.5524040144803734  0.0397991738073742  0.03925871062529744  1.0000
  O   O13       1.0  0.6315417736370107  0.9607288323330677  0.9601318868962135  1.0000
  O   O14       1.0  0.36845907620661217  0.0398666845197511  0.03926833003532684  1.0000
  O   O15       1.0  0.5397363006149903  0.8897563976566543  0.030882257650987045  1.0000
  O   O16       1.0  0.46026417044762996  0.9691177601948198  0.11024339799850931  1.0000
  O   O17       1.0  0.5528108204531035  0.5698692430025291  0.43013749342705404  1.0000
  O   O18       1.0  0.44718818005913613  0.5698619290040127  0.4301310422453141  1.0000
  O   O19       1.0  0.622631845093359  0.4301337246661774  0.4302217654954317  1.0000
  O   O20       1.0  0.37737121307492316  0.5697781108981843  0.5698655909392085  1.0000
  O   O21       1.0  0.517032486078996  0.4300754514837378  0.4301549710209115  1.0000
  O   O22       1.0  0.482968833228753  0.5698456957922886  0.5699247004814153  1.0000
  O   O23       1.0  0.5528218633353033  0.43029887351286084  0.5697096623101173  1.0000
  O   O24       1.0  0.4471801490662131  0.4302871508133634  0.569698460369814  1.0000
