data_image0
_chemical_formula_structural       Sc4H24C28N8O32
_chemical_formula_sum              "Sc4 H24 C28 N8 O32"
_cell_length_a       10.631784365913271
_cell_length_b       10.632410040264968
_cell_length_c       11.976933369712748
_cell_angle_alpha    112.85285063635055
_cell_angle_beta     105.07837779586988
_cell_angle_gamma    105.63809321603836

_space_group_name_H-M_alt    "P 1"
_space_group_IT_number       1

loop_
  _space_group_symop_operation_xyz
  'x, y, z'

loop_
  _atom_site_type_symbol
  _atom_site_label
  _atom_site_symmetry_multiplicity
  _atom_site_fract_x
  _atom_site_fract_y
  _atom_site_fract_z
  _atom_site_occupancy
  Sc  Sc1       1.0  0.9195525406959958  0.7808701298899834  0.2264339456006966  1.0000
  Sc  Sc2       1.0  0.5547313288432746  0.19281787892196434  0.2737679367368031  1.0000
  Sc  Sc3       1.0  0.0804491237539082  0.2191342823702698  0.773564132220365  1.0000
  Sc  Sc4       1.0  0.4452615089910026  0.8071710112891848  0.7262246906292803  1.0000
  H   H1        1.0  0.7916597300065078  0.4508991786525485  0.24283820241868886  1.0000
  H   H2        1.0  0.208793860451209  0.0485515719562386  0.2571750291021218  1.0000
  H   H3        1.0  0.2083445682371661  0.5491008640508711  0.757169193385842  1.0000
  H   H4        1.0  0.7912159709345444  0.9514533737874519  0.7428211068528158  1.0000
  H   H5        1.0  0.37002180659022343  0.5530294046841818  0.1326977699253362  1.0000
  H   H6        1.0  0.4206971822453767  0.7365721073641536  0.36674435259243404  1.0000
  H   H7        1.0  0.6299886403430078  0.44698823703775026  0.8673359410144457  1.0000
  H   H8        1.0  0.5793001487230568  0.26342196215017577  0.6332426874461135  1.0000
  H   H9        1.0  0.8375703173688225  0.6205156803060277  0.9446099409292829  1.0000
  H   H10       1.0  0.6757913055942311  0.393311061933126  0.5556762178193112  1.0000
  H   H11       1.0  0.16242554914244067  0.3794821352931734  0.05538375650498748  1.0000
  H   H12       1.0  0.3242023312278591  0.60669246685503  0.4443145358432333  1.0000
  H   H13       1.0  0.8663503061990525  0.5123925232468736  0.007948046183145308  1.0000
  H   H14       1.0  0.5042711132931998  0.3584266034204759  0.4917553229445773  1.0000
  H   H15       1.0  0.13366476206427794  0.4876133075117438  0.9920505299836792  1.0000
  H   H16       1.0  0.4957253104389848  0.6415793146433159  0.5082435730243589  1.0000
  H   H17       1.0  0.9134353767088825  0.8548183762532985  0.014121509622945897  1.0000
  H   H18       1.0  0.840798784637684  0.3998646022864989  0.48656909349367083  1.0000
  H   H19       1.0  0.0865650182334221  0.1451940546543682  0.9858762644593568  1.0000
  H   H20       1.0  0.15920022108686993  0.6001299328508055  0.5134335572088062  1.0000
  H   H21       1.0  0.9267075126290578  0.9872474696466328  0.14137057410994922  1.0000
  H   H22       1.0  0.8463942753668119  0.2853164351490491  0.3599281422187347  1.0000
  H   H23       1.0  0.0732807100143305  0.012755619566696907  0.8586295324629702  1.0000
  H   H24       1.0  0.15360873956096543  0.7146845173806753  0.6400708594994883  1.0000
  C   C1        1.0  0.6972448469167106  0.47351794832055577  0.21925217206355552  1.0000
  C   C2        1.0  0.254908939981199  0.9776998160373934  0.280784597658851  1.0000
  C   C3        1.0  0.3027584746408749  0.5264822115600225  0.7807566844336479  1.0000
  C   C4        1.0  0.7450887989319668  0.02229320629059832  0.7192055582316643  1.0000
  C   C5        1.0  0.4625118063691289  0.41766099228730985  0.1923754429488086  1.0000
  C   C6        1.0  0.2257295788507179  0.7696542379662504  0.30733735482446184  1.0000
  C   C7        1.0  0.5374928959791347  0.582340394048238  0.8076383270674656  1.0000
  C   C8        1.0  0.7742648765570621  0.23033766499249006  0.6926474394688286  1.0000
  C   C9        1.0  0.46294644135003443  0.5293249818414553  0.15963215975609304  1.0000
  C   C10       1.0  0.3701500814563445  0.8027199278395685  0.34002706851082826  1.0000
  C   C11       1.0  0.5370631340521826  0.4706901317019644  0.84039301458958  1.0000
  C   C12       1.0  0.6298545080677584  0.19727938306940732  0.6599609528785493  1.0000
  C   C13       1.0  0.5898462784738997  0.6128789621340331  0.16157508541724763  1.0000
  C   C14       1.0  0.45190777901000695  0.9278830677730026  0.33844647066577943  1.0000
  C   C15       1.0  0.41015892659768116  0.38713304475317756  0.8384505109569743  1.0000
  C   C16       1.0  0.5480946913612215  0.07210975047497932  0.661546490151899  1.0000
  C   C17       1.0  0.604242107638939  0.7373579327324864  0.12725779205369056  1.0000
  C   C18       1.0  0.610765164019192  0.9767876242568578  0.3729758147190694  1.0000
  C   C19       1.0  0.3957569383665814  0.262650788229891  0.8727601969780353  1.0000
  C   C20       1.0  0.38924543643871345  0.02321296356428351  0.6270266640435481  1.0000
  C   C21       1.0  0.3346533558068358  0.3182669444353862  0.1976629195191464  1.0000
  C   C22       1.0  0.12092706907975535  0.6364656451525548  0.3019131452269549  1.0000
  C   C23       1.0  0.6653315441941247  0.6817279802218793  0.8023254198407346  1.0000
  C   C24       1.0  0.879076785922301  0.3635260087319239  0.6980814707500257  1.0000
  C   C25       1.0  0.0176883040122959  0.0628799516455061  0.48274572833575047  1.0000
  C   C26       1.0  0.5801490629517118  0.03484390444319979  0.017276062605944293  1.0000
  C   C27       1.0  0.9823182158431152  0.9371334698199759  0.5172589218269084  1.0000
  C   C28       1.0  0.4198351393763672  0.9651361270998604  0.9827074115304698  1.0000
  N   N1        1.0  0.7066185062072279  0.5853653366235038  0.1915038736632867  1.0000
  N   N2        1.0  0.39454223564994356  0.014823750186508302  0.30864914845233943  1.0000
  N   N3        1.0  0.2933858185091084  0.41464178308388017  0.8085107701229292  1.0000
  N   N4        1.0  0.605463195092362  0.9851734027154819  0.6913434199092379  1.0000
  N   N5        1.0  0.5799856435862764  0.3903785400881858  0.22232739253611558  1.0000
  N   N6        1.0  0.16861447626173734  0.8573511073766724  0.2776134661724257  1.0000
  N   N7        1.0  0.42001870147472437  0.6096237661651075  0.7776798921646844  1.0000
  N   N8        1.0  0.8313872338615553  0.1426484277951872  0.7223755678314562  1.0000
  O   O1        1.0  0.7322991006240258  0.808554353389475  0.14317012047349206  1.0000
  O   O2        1.0  0.6659688304396738  0.08896567695251181  0.35707245197971105  1.0000
  O   O3        1.0  0.267699983374591  0.19145427212145455  0.8568453414606056  1.0000
  O   O4        1.0  0.3340450788523626  0.9110359666035706  0.6429337036483886  1.0000
  O   O5        1.0  0.49628774952692833  0.7586966422973661  0.08605374594763766  1.0000
  O   O6        1.0  0.6733955789407987  0.9101986366683265  0.4143074620955219  1.0000
  O   O7        1.0  0.5037127394471739  0.24130600539596977  0.9139560120603392  1.0000
  O   O8        1.0  0.3266168444054784  0.08980442578845782  0.5857037773002889  1.0000
  O   O9        1.0  0.3619539564859267  0.24406807880509257  0.2545235851141214  1.0000
  O   O10       1.0  0.9898850820106874  0.6072830558599165  0.24546644390712669  1.0000
  O   O11       1.0  0.6380377388815645  0.7559142015679042  0.7454725209875975  1.0000
  O   O12       1.0  0.010114997874744293  0.3927134983815037  0.754531265535441  1.0000
  O   O13       1.0  0.21281429422613485  0.31479538369067234  0.14729489251681124  1.0000
  O   O14       1.0  0.167704258872547  0.5646006617257768  0.3518250301471255  1.0000
  O   O15       1.0  0.787186608085122  0.6851871539028594  0.8526935991967266  1.0000
  O   O16       1.0  0.8322993071481404  0.43539650281048387  0.6481645630386553  1.0000
  O   O17       1.0  0.0015278670687664028  0.0239733522963874  0.36388429094159846  1.0000
  O   O18       1.0  0.6601947422762606  0.1372900163179125  0.13625120931079243  1.0000
  O   O19       1.0  0.9984776446438134  0.9760283595224951  0.6361088975783817  1.0000
  O   O20       1.0  0.3397893598808182  0.8626974104006068  0.8637479364660694  1.0000
  O   O21       1.0  0.059347341728745596  0.19431452176063146  0.5766969036284166  1.0000
  O   O22       1.0  0.6175500560368264  0.9827444964568245  0.9232584912271663  1.0000
  O   O23       1.0  0.9406510050628115  0.8056864757633446  0.42329508133326504  1.0000
  O   O24       1.0  0.38243325171936243  0.017247351818554097  0.07673599647375799  1.0000
  O   O25       1.0  0.8879698300763651  0.6148602088206658  0.026080179226035186  1.0000
  O   O26       1.0  0.5887415888452169  0.3617814014909584  0.47391740458996173  1.0000
  O   O27       1.0  0.11202188368635287  0.3851482405073056  0.9739174854437707  1.0000
  O   O28       1.0  0.4112548767202071  0.6382220303029129  0.5260757059215706  1.0000
  O   O29       1.0  0.9677377032871703  0.9152198764561277  0.11158220617156189  1.0000
  O   O30       1.0  0.8040009063800609  0.35615274281683895  0.38906064118297945  1.0000
  O   O31       1.0  0.03225494034432331  0.08478619214480432  0.8884141089093021  1.0000
  O   O32       1.0  0.19600060111337567  0.6438473014294176  0.6109418706749283  1.0000
