data_image0
_chemical_formula_structural       Zn8H120C184N16O48
_chemical_formula_sum              "Zn8 H120 C184 N16 O48"
_cell_length_a       14.685403704017281
_cell_length_b       16.301268552500392
_cell_length_c       24.875942548001728
_cell_angle_alpha    89.99996142256191
_cell_angle_beta     89.99999836989485
_cell_angle_gamma    113.23162905863913

_space_group_name_H-M_alt    "P 1"
_space_group_IT_number       1

loop_
  _space_group_symop_operation_xyz
  'x, y, z'

loop_
  _atom_site_type_symbol
  _atom_site_label
  _atom_site_symmetry_multiplicity
  _atom_site_fract_x
  _atom_site_fract_y
  _atom_site_fract_z
  _atom_site_occupancy
  Zn  Zn1       1.0  0.9139990202666369  0.6356214166817865  0.9677235856308924  1.0000
  Zn  Zn2       1.0  0.5860018781235752  0.864378626397283  0.4677235891283401  1.0000
  Zn  Zn3       1.0  0.08600189039523091  0.3643788079569249  0.0322764847985439  1.0000
  Zn  Zn4       1.0  0.41399874023738886  0.13562093066349953  0.5322764813012455  1.0000
  Zn  Zn5       1.0  0.07150549679909103  0.8556171205536461  0.9748963377307545  1.0000
  Zn  Zn6       1.0  0.42849436155581355  0.6443830823549563  0.4748964325495633  1.0000
  Zn  Zn7       1.0  0.9284944406140738  0.14438243650816673  0.025103732698838095  1.0000
  Zn  Zn8       1.0  0.5715058681581342  0.35561714228452973  0.525104039874698  1.0000
  H   H1        1.0  0.7213116838205382  0.1936648065541605  0.9616555730157896  1.0000
  H   H2        1.0  0.7786879790278222  0.30633490002615105  0.4616564028694582  1.0000
  H   H3        1.0  0.27868825359274046  0.8063347505078939  0.03834409541898509  1.0000
  H   H4        1.0  0.2213112774374154  0.6936646570364362  0.5383440695549594  1.0000
  H   H5        1.0  0.28575915425707893  0.3002122983690542  0.9698771511982258  1.0000
  H   H6        1.0  0.21424180308242316  0.19978823431929985  0.4698772251792177  1.0000
  H   H7        1.0  0.7142417564049098  0.6997879262698989  0.030122517236385694  1.0000
  H   H8        1.0  0.785758718932421  0.8002126578981008  0.5301232472448945  1.0000
  H   H9        1.0  0.6948206304299732  0.5162640832962638  0.955303581922301  1.0000
  H   H10       1.0  0.8051795943321525  0.9837359751412934  0.4553031270412048  1.0000
  H   H11       1.0  0.30517930698318463  0.4837354737655489  0.0446964885072845  1.0000
  H   H12       1.0  0.19482034308112622  0.0162635819207608  0.5446965413935628  1.0000
  H   H13       1.0  0.5939732084124147  0.35252729077417655  0.9538323178752676  1.0000
  H   H14       1.0  0.9060257780989075  0.14747242548097003  0.4538324117097048  1.0000
  H   H15       1.0  0.40602672900086406  0.6474722662878778  0.046167350559507284  1.0000
  H   H16       1.0  0.09397347836657137  0.8525271315821072  0.54616725672507  1.0000
  H   H17       1.0  0.9580260589035492  0.4781396239557695  0.9526576582214118  1.0000
  H   H18       1.0  0.54197399789485  0.021859426172071  0.4526574116518275  1.0000
  H   H19       1.0  0.04197387850972941  0.5218599331062919  0.04734201021336299  1.0000
  H   H20       1.0  0.4580256472175251  0.9781394633120614  0.5473422567830966  1.0000
  H   H21       1.0  0.8694357915272592  0.3142599498656012  0.9533949536331502  1.0000
  H   H22       1.0  0.6305631952418196  0.1857397669303467  0.45339503522760777  1.0000
  H   H23       1.0  0.1305641458860195  0.6857396071964532  0.0466047148016244  1.0000
  H   H24       1.0  0.36943606122341793  0.8142597901322335  0.5466054371968099  1.0000
  H   H25       1.0  0.6256180718388505  0.129307623629181  0.04737264352687019  1.0000
  H   H26       1.0  0.8743818351626516  0.3706925952074727  0.5473725369402017  1.0000
  H   H27       1.0  0.37438215787521767  0.8706926010105464  0.9526274269025662  1.0000
  H   H28       1.0  0.12561742130270667  0.6293069618553561  0.45262753348939083  1.0000
  H   H29       1.0  0.4428400915284528  0.020703715122358794  0.9087655573138348  1.0000
  H   H30       1.0  0.05715924762998984  0.47929622555393797  0.40876551057470306  1.0000
  H   H31       1.0  0.5571601381856085  0.9792965095173688  0.09123451311560157  1.0000
  H   H32       1.0  0.9428403011363925  0.5207039990870683  0.5912341578599224  1.0000
  H   H33       1.0  0.3825332878724765  0.41411773658810364  0.9285223103242258  1.0000
  H   H34       1.0  0.11746672059042143  0.08588217965832713  0.42852203422120977  1.0000
  H   H35       1.0  0.617466941841471  0.5858824880513823  0.07147816210003548  1.0000
  H   H36       1.0  0.8825335091236397  0.9141180449814003  0.5714780362082337  1.0000
  H   H37       1.0  0.5386657057992467  0.42021835990517087  0.0760496843981286  1.0000
  H   H38       1.0  0.9613341843017338  0.07978182347260088  0.5760497047485629  1.0000
  H   H39       1.0  0.46133423161391124  0.5797811971566348  0.9239503860314641  1.0000
  H   H40       1.0  0.03866604541221375  0.9202184011668849  0.4239507676756986  1.0000
  H   H41       1.0  0.3813132872375604  0.1298901389297171  0.015719573482407198  1.0000
  H   H42       1.0  0.11868764545373982  0.3701102877413547  0.5157190694750823  1.0000
  H   H43       1.0  0.6186869424767424  0.8701100857105076  0.9842796929574007  1.0000
  H   H44       1.0  0.8813128765613457  0.6298906044765432  0.484280598959394  1.0000
  H   H45       1.0  0.1431039246849792  0.18488502891319317  0.9438186677600697  1.0000
  H   H46       1.0  0.3568967557109063  0.31511486841827013  0.44381868842830124  1.0000
  H   H47       1.0  0.8568963050292027  0.8151151957267828  0.05618100067455598  1.0000
  H   H48       1.0  0.6431034740030412  0.6848853562212157  0.5561817839959601  1.0000
  H   H49       1.0  0.047263382506592705  0.021518070438887097  0.9372292055649111  1.0000
  H   H50       1.0  0.4527375940735254  0.4784825026180855  0.4372295545010657  1.0000
  H   H51       1.0  0.95273616625979  0.9784821542021123  0.06277046286971448  1.0000
  H   H52       1.0  0.5472626356405429  0.521517722021649  0.5627705159283707  1.0000
  H   H53       1.0  0.2753203027206582  0.96837406915067  0.005568216180826398  1.0000
  H   H54       1.0  0.22467924762568  0.5316253789208362  0.5055678597876962  1.0000
  H   H55       1.0  0.7246796346926203  0.0316254879113842  0.9944314522539485  1.0000
  H   H56       1.0  0.7753203011408161  0.468374845720419  0.49443140665211155  1.0000
  H   H57       1.0  0.8906839013624507  0.9506577388314457  0.8878439299829068  1.0000
  H   H58       1.0  0.6093153899073656  0.549341735441871  0.3878440721408296  1.0000
  H   H59       1.0  0.10931603605059338  0.0493418182301113  0.11215654244149677  1.0000
  H   H60       1.0  0.3906841588591305  0.4506584891993768  0.6121551942989781  1.0000
  H   H61       1.0  0.6961644793762148  0.6728967016998839  0.8836942004181477  1.0000
  H   H62       1.0  0.8038354952870321  0.8271027777035725  0.38369421669080583  1.0000
  H   H63       1.0  0.30383477708913637  0.3271028553629448  0.11630587001145186  1.0000
  H   H64       1.0  0.19616473442702909  0.1728974469361547  0.6163058537386377  1.0000
  H   H65       1.0  0.7671248126792138  0.988334745075399  0.834825228144602  1.0000
  H   H66       1.0  0.7328747057914596  0.5116667974896814  0.3348253848461836  1.0000
  H   H67       1.0  0.23287541703473386  0.0116654795640798  0.1651752442796592  1.0000
  H   H68       1.0  0.2671255239227223  0.48833342715029476  0.6651742835884418  1.0000
  H   H69       1.0  0.570985955829812  0.7109295289823834  0.8317500306637979  1.0000
  H   H70       1.0  0.9290143417470348  0.7890706822273261  0.3317500616101228  1.0000
  H   H71       1.0  0.4290138852372323  0.2890713632360474  0.16825044176032114  1.0000
  H   H72       1.0  0.07098588796691269  0.21092954241215978  0.6682504108141316  1.0000
  H   H73       1.0  0.4750662601630611  0.8916872581561465  0.7316436339951407  1.0000
  H   H74       1.0  0.024934130196911014  0.6083125779524821  0.23164375154866687  1.0000
  H   H75       1.0  0.5249339695510072  0.108312966483588  0.2683564364343027  1.0000
  H   H76       1.0  0.9750674614126426  0.39168764668495026  0.7683567208755803  1.0000
  H   H77       1.0  0.7403189712605497  0.8401437932893148  0.7448053554711718  1.0000
  H   H78       1.0  0.7596810852553375  0.6598558578487116  0.24480504431571148  1.0000
  H   H79       1.0  0.2596809661526152  0.15985576377249802  0.2551947149584208  1.0000
  H   H80       1.0  0.24032021405355414  0.3401436992112964  0.7551946241190493  1.0000
  H   H81       1.0  0.4836819587845582  0.8830862274751825  0.6315139625351165  1.0000
  H   H82       1.0  0.016318782886585795  0.6169144000204839  0.13151407643751867  1.0000
  H   H83       1.0  0.5163179786287273  0.11691332958687183  0.36848570589965846  1.0000
  H   H84       1.0  0.9836831010239919  0.3830864921951261  0.8684859939917612  1.0000
  H   H85       1.0  0.7486506318613381  0.8330962176185183  0.6451086320898156  1.0000
  H   H86       1.0  0.7513485101609518  0.666902889216381  0.14510831796442147  1.0000
  H   H87       1.0  0.2513495978526096  0.16690400702096045  0.3548918403344459  1.0000
  H   H88       1.0  0.24865181589922974  0.33309600026672836  0.8548913504704885  1.0000
  H   H89       1.0  0.12738923030856603  0.5508969300791123  0.9056274714155632  1.0000
  H   H90       1.0  0.37261134981686433  0.9491033584783962  0.40562783467215263  1.0000
  H   H91       1.0  0.872610707104478  0.44910262698244463  0.0943730010088402  1.0000
  H   H92       1.0  0.6273888798970758  0.050896866161082216  0.5943726377521017  1.0000
  H   H93       1.0  0.2864650254246684  0.8311487765551534  0.8755348801280575  1.0000
  H   H94       1.0  0.21353459918686474  0.6688508816347465  0.3755349677762253  1.0000
  H   H95       1.0  0.713535592936303  0.16885078050562904  0.12446519030152808  1.0000
  H   H96       1.0  0.786464949579276  0.3311493430057554  0.6244655046480432  1.0000
  H   H97       1.0  0.25487448796165074  0.5177995705964095  0.8533552874547609  1.0000
  H   H98       1.0  0.245126122970035  0.9822007825955268  0.35335483426528197  1.0000
  H   H99       1.0  0.7451257417522967  0.48220065404307644  0.1466451849694934  1.0000
  H   H100      1.0  0.7548747876919535  0.017799442043426005  0.6466448341693364  1.0000
  H   H101      1.0  0.416745800216539  0.7982369986840395  0.8248304758933428  1.0000
  H   H102      1.0  0.08325511982653934  0.701764057355817  0.3248309532087035  1.0000
  H   H103      1.0  0.5832541371966187  0.2017625583777658  0.1751695945362499  1.0000
  H   H104      1.0  0.9167460831361113  0.29823683486056046  0.6751695192154015  1.0000
  H   H105      1.0  0.2642421970952428  0.6607081214342971  0.7486078680752823  1.0000
  H   H106      1.0  0.2357575023194016  0.8392916936996002  0.24860747812254394  1.0000
  H   H107      1.0  0.7357577403178014  0.3392914356272599  0.2513926043491209  1.0000
  H   H108      1.0  0.7642413654991742  0.16070853094242923  0.7513921903120888  1.0000
  H   H109      1.0  0.5385757556217926  0.6233940887180793  0.7407428453780155  1.0000
  H   H110      1.0  0.961424303288311  0.8766055674432496  0.24074243514515092  1.0000
  H   H111      1.0  0.46142379314434834  0.37660613592242953  0.259257627046253  1.0000
  H   H112      1.0  0.038575341824071095  0.12339332204088291  0.7592572332897731  1.0000
  H   H113      1.0  0.26171283628440994  0.6692625361807175  0.6486486387261008  1.0000
  H   H114      1.0  0.23828624109224714  0.8307374025525648  0.14864825250646868  1.0000
  H   H115      1.0  0.7382867124818518  0.3307376884600401  0.35135143170334254  1.0000
  H   H116      1.0  0.7617126267263288  0.16926282208945756  0.8513514159281639  1.0000
  H   H117      1.0  0.5360000237399519  0.6340820841622943  0.640492571310041  1.0000
  H   H118      1.0  0.9640000942514957  0.8659176959572649  0.14049216575123316  1.0000
  H   H119      1.0  0.463999525026189  0.3659181404782146  0.35950790111422737  1.0000
  H   H120      1.0  0.035999162213983  0.1340818611058125  0.8595075026835415  1.0000
  C   C1        1.0  0.7304161515963373  0.4689587603089933  0.953810181312569  1.0000
  C   C2        1.0  0.769583808176961  0.031041623550891004  0.45380952485261616  1.0000
  C   C3        1.0  0.26958407811773105  0.5310414643307412  0.04618988911686729  1.0000
  C   C4        1.0  0.2304164215372212  0.9689586010890923  0.5461901435820025  1.0000
  C   C5        1.0  0.674168116277535  0.3778497530332531  0.9531927378541024  1.0000
  C   C6        1.0  0.825831551558629  0.1221499640119461  0.45319244222480387  1.0000
  C   C7        1.0  0.32583114018793696  0.6221498040298244  0.046806930580672194  1.0000
  C   C8        1.0  0.17416838585464936  0.877849593050108  0.5468072262099639  1.0000
  C   C9        1.0  0.8773078728901638  0.44791446721220746  0.9529310220496895  1.0000
  C   C10       1.0  0.6226915027992136  0.052084582578402205  0.45293116277100853  1.0000
  C   C11       1.0  0.12269206452312184  0.5520850898498467  0.0470686463850853  1.0000
  C   C12       1.0  0.37730814231304777  0.9479143069054814  0.5470689076587333  1.0000
  C   C13       1.0  0.827379129710309  0.35624735450641504  0.9529853120021128  1.0000
  C   C14       1.0  0.6726205382479903  0.14375236279501286  0.4529854114193198  1.0000
  C   C15       1.0  0.17262110000387307  0.6437528701335609  0.0470143564325127  1.0000
  C   C16       1.0  0.3273784259164644  0.8562465266898941  0.5470146590104221  1.0000
  C   C17       1.0  0.7229630436200766  0.3188584497096443  0.9537085098129194  1.0000
  C   C18       1.0  0.7770366239121317  0.18114126669782143  0.4537081889692728  1.0000
  C   C19       1.0  0.2770368937929674  0.6811411073519125  0.046291962611491  1.0000
  C   C20       1.0  0.22296263255334736  0.8188582903652559  0.5462914794655019  1.0000
  C   C21       1.0  0.5749745526933482  0.17542545774753657  0.9500785295096178  1.0000
  C   C22       1.0  0.9250248246770243  0.32457359556997994  0.45007894684722055  1.0000
  C   C23       1.0  0.42502538471980955  0.8245740993142688  0.04992154091997489  1.0000
  C   C24       1.0  0.0749754050368026  0.675426629069257  0.5499219275718586  1.0000
  C   C25       1.0  0.5397310619570205  0.0840894265503564  0.9748398227811135  1.0000
  C   C26       1.0  0.9602692740694182  0.41591026372729806  0.4748397972138675  1.0000
  C   C27       1.0  0.46026984870485427  0.915910798088348  0.025160247648322795  1.0000
  C   C28       1.0  0.039731636592456696  0.5840899609114132  0.5251602732155689  1.0000
  C   C29       1.0  0.571177125176483  0.07225246602057922  0.026520381373039494  1.0000
  C   C30       1.0  0.9288234750618686  0.42774777859863633  0.526520248683596  1.0000
  C   C31       1.0  0.4288237854853847  0.927747758618125  0.9734796890563968  1.0000
  C   C32       1.0  0.07117607370439323  0.5722524460421141  0.47347982174585457  1.0000
  C   C33       1.0  0.46794378698868394  0.011065823912119301  0.9486064616625995  1.0000
  C   C34       1.0  0.03205552869010125  0.4889340675016386  0.44860600909844084  1.0000
  C   C35       1.0  0.5320561504243598  0.9889337331494373  0.05139401076180409  1.0000
  C   C36       1.0  0.9679430468275712  0.5110654895624692  0.5513936593363482  1.0000
  C   C37       1.0  0.43381156184673136  0.45130909823186743  0.9599369907345475  1.0000
  C   C38       1.0  0.0661894013509894  0.04869144674758271  0.4599367319130606  1.0000
  C   C39       1.0  0.5661896411160399  0.5486917939847584  0.04006307969473969  1.0000
  C   C40       1.0  0.9338108283630717  0.9513087778921518  0.5400633385163828  1.0000
  C   C41       1.0  0.5219053916004839  0.4560793799856242  0.043098161384449385  1.0000
  C   C42       1.0  0.9780945179202122  0.043920844136543694  0.5430977952857887  1.0000
  C   C43       1.0  0.4780948381134636  0.5439208446538616  0.9569023110398047  1.0000
  C   C44       1.0  0.02190503084604966  0.9560793805042139  0.456902275143662  1.0000
  C   C45       1.0  0.45511631605842245  0.406656008504072  0.0033026958365737994  1.0000
  C   C46       1.0  0.044883650701876804  0.09334376594334512  0.5033023152372492  1.0000
  C   C47       1.0  0.5448839136556457  0.5933442161356626  0.9966973745928696  1.0000
  C   C48       1.0  0.9551156057634814  0.9066557911194836  0.4966977551923505  1.0000
  C   C49       1.0  0.41396561262391174  0.3071054466036571  0.008379510712252599  1.0000
  C   C50       1.0  0.08603435114443408  0.19289432156637082  0.5083790854774932  1.0000
  C   C51       1.0  0.5860343247892458  0.6928941104581554  0.9916205597173401  1.0000
  C   C52       1.0  0.9139651976218277  0.8071059030743799  0.4916209849519504  1.0000
  C   C53       1.0  0.271939561065814  0.17141441675173041  0.9797316807112109  1.0000
  C   C54       1.0  0.22806109816527  0.32858543617398084  0.47973129561406574  1.0000
  C   C55       1.0  0.728060668648489  0.8285858078884942  0.0202675857285968  1.0000
  C   C56       1.0  0.7719398124965977  0.6714147884647234  0.5202687748153706  1.0000
  C   C57       1.0  0.3087504789445745  0.10851645226451723  0.9974017785067557  1.0000
  C   C58       1.0  0.19125016987273122  0.39148337881210454  0.497401768263387  1.0000
  C   C59       1.0  0.6912497507697211  0.8914837723757075  0.0025974879330518995  1.0000
  C   C60       1.0  0.808750059841337  0.6085168458276228  0.5025983021660493  1.0000
  C   C61       1.0  0.17636614094989517  0.13927401429076988  0.9569301405330107  1.0000
  C   C62       1.0  0.32363385077109547  0.36072586682955443  0.45693014163058615  1.0000
  C   C63       1.0  0.8236340887642869  0.8607262103492063  0.0430695279016078  1.0000
  C   C64       1.0  0.6763656979951664  0.6392743578112032  0.5430699287988643  1.0000
  C   C65       1.0  0.12235285630070081  0.0482704828869558  0.9533182376322671  1.0000
  C   C66       1.0  0.3776478184966193  0.4517294026981915  0.453318599644625  1.0000
  C   C67       1.0  0.8776473734134813  0.9517297417530202  0.04668143080235149  1.0000
  C   C68       1.0  0.6223524112174417  0.5482708219415358  0.5466814707848114  1.0000
  C   C69       1.0  0.24983002619495664  0.018814039804695402  0.9916307611921976  1.0000
  C   C70       1.0  0.25016994507564044  0.48118579840876646  0.4916307103602619  1.0000
  C   C71       1.0  0.7501699112184426  0.9811855172576074  0.0083685052477591  1.0000
  C   C72       1.0  0.7498296036907348  0.5188144262322397  0.5083689580743709  1.0000
  C   C73       1.0  0.8751810829027916  0.7858960653773864  0.9183971806318282  1.0000
  C   C74       1.0  0.6248194559104475  0.7141047062720818  0.4183972498034976  1.0000
  C   C75       1.0  0.12481914681127651  0.21410415926234086  0.08160288979760819  1.0000
  C   C76       1.0  0.3751807738036136  0.28589551836765287  0.5816028206259389  1.0000
  C   C77       1.0  0.8010627151151156  0.8092601030359107  0.8882355048980982  1.0000
  C   C78       1.0  0.6989368682248482  0.6907400383311924  0.3882355831311769  1.0000
  C   C79       1.0  0.19893722229792837  0.1907394540256462  0.11176496752631239  1.0000
  C   C80       1.0  0.3010623882406307  0.309259518731885  0.6117640853035978  1.0000
  C   C81       1.0  0.8207740292503304  0.8984412072516151  0.8754174782794735  1.0000
  C   C82       1.0  0.6792251729969934  0.601559617543991  0.3754171942140657  1.0000
  C   C83       1.0  0.17922620046360999  0.10155901738786353  0.12458299414478799  1.0000
  C   C84       1.0  0.32077437576950274  0.3984406070972569  0.624582072225749  1.0000
  C   C85       1.0  0.7107969561633853  0.7416852960633521  0.8728748965785869  1.0000
  C   C86       1.0  0.7892026362291846  0.7583148642969776  0.3728749434607721  1.0000
  C   C87       1.0  0.289201911654949  0.2583149285781801  0.1271255758456817  1.0000
  C   C88       1.0  0.21079691253707722  0.2416853603437801  0.6271251269686785  1.0000
  C   C89       1.0  0.7522855772905359  0.9197644487886907  0.8462250124550789  1.0000
  C   C90       1.0  0.7477140308080479  0.5802357445243448  0.3462243346505147  1.0000
  C   C91       1.0  0.24771465242340437  0.0802357758507881  0.15377545996917513  1.0000
  C   C92       1.0  0.2522855179584483  0.4197644801169104  0.653774931789293  1.0000
  C   C93       1.0  0.6415714348890731  0.7623236031016634  0.8440168906002512  1.0000
  C   C94       1.0  0.8584288554584278  0.7376765929402113  0.3440169454231777  1.0000
  C   C95       1.0  0.3584281138770678  0.2376766215388457  0.15598358182401736  1.0000
  C   C96       1.0  0.14157137425551272  0.26232363169927453  0.6559835270010835  1.0000
  C   C97       1.0  0.6642401205745614  0.8511081619083287  0.8302509602630648  1.0000
  C   C98       1.0  0.8357594969380386  0.6488920511561957  0.3302506526625492  1.0000
  C   C99       1.0  0.3357594281917002  0.1488920627324292  0.16974911016638572  1.0000
  C   C100      1.0  0.1642400518283367  0.35110817348480344  0.6697490157720764  1.0000
  C   C101      1.0  0.6072008825340519  0.8669052078777142  0.7438980483843449  1.0000
  C   C102      1.0  0.8927991745164264  0.6330944443819249  0.24389814878839636  1.0000
  C   C103      1.0  0.39279934718001647  0.13309501676201313  0.25610202204509847  1.0000
  C   C104      1.0  0.10720173614544141  0.3669057802567792  0.75610192164104  1.0000
  C   C105      1.0  0.5348486037749042  0.8792655497052736  0.7121476915429737  1.0000
  C   C106      1.0  0.9651514719873903  0.620734141813543  0.21214739418635983  1.0000
  C   C107      1.0  0.46515201458606015  0.12073400735550881  0.28785237888660475  1.0000
  C   C108      1.0  0.03484943867435673  0.37926608282491264  0.7878530782378943  1.0000
  C   C109      1.0  0.6845856069304191  0.8501301971874257  0.719974937812445  1.0000
  C   C110      1.0  0.8154144642189819  0.6498694846530954  0.21997463012389315  1.0000
  C   C111      1.0  0.31541491508454567  0.1498706950302235  0.28002513261684914  1.0000
  C   C112      1.0  0.18458615414210305  0.3501300724079358  0.7800250383108746  1.0000
  C   C113      1.0  0.5400208137055246  0.874537118719232  0.6566076864773932  1.0000
  C   C114      1.0  0.959979587089542  0.6254633090520442  0.1566073871208502  1.0000
  C   C115      1.0  0.4599803892572468  0.12546377349739402  0.34339238395189386  1.0000
  C   C116      1.0  0.04002103127142929  0.3745362480087381  0.8433926833087353  1.0000
  C   C117      1.0  0.6888868793337366  0.8460907085117456  0.6642246893122916  1.0000
  C   C118      1.0  0.8111129323704134  0.6539083746851092  0.16422478190832376  1.0000
  C   C119      1.0  0.3111146159299381  0.15391085128280932  0.33577538111683924  1.0000
  C   C120      1.0  0.18888710138875103  0.34608984721982244  0.8357752885215602  1.0000
  C   C121      1.0  0.6172964230277954  0.8583635968490883  0.6317933532619121  1.0000
  C   C122      1.0  0.8827037000902822  0.6416361940266386  0.13179345006619766  1.0000
  C   C123      1.0  0.38270507223587197  0.1416379629454667  0.36820671716722586  1.0000
  C   C124      1.0  0.11729730691758532  0.3583626954551988  0.8682066203635299  1.0000
  C   C125      1.0  0.6247196271690498  0.8561058725005355  0.5722076717825502  1.0000
  C   C126      1.0  0.8752815043138682  0.6438946596290549  0.07220776771546157  1.0000
  C   C127      1.0  0.37528128349281786  0.14389435213816879  0.42779239864687907  1.0000
  C   C128      1.0  0.12472008729580614  0.35610556500862606  0.9277923027139676  1.0000
  C   C129      1.0  0.12101417496226236  0.7127619846867862  0.9223540381334556  1.0000
  C   C130      1.0  0.3789861030047633  0.7872376156108133  0.42235407073341946  1.0000
  C   C131      1.0  0.8789864433988229  0.28723757237424513  0.0776456303013049  1.0000
  C   C132      1.0  0.6210141267093052  0.21276260902892125  0.5776459996960241  1.0000
  C   C133      1.0  0.19942923380173033  0.6931457618988546  0.8936355319946185  1.0000
  C   C134      1.0  0.30057135339099966  0.8068545414865085  0.39363595925477307  1.0000
  C   C135      1.0  0.8005713845591205  0.3068537951616791  0.10636494042977769  1.0000
  C   C136      1.0  0.6994288763228269  0.19314568315272848  0.6063649151643061  1.0000
  C   C137      1.0  0.19087975800565016  0.6048411826180173  0.8881274185573886  1.0000
  C   C138      1.0  0.3091205401325682  0.8951584600006512  0.3881270027069163  1.0000
  C   C139      1.0  0.8091208603550799  0.39515837444226787  0.11187345586183278  1.0000
  C   C140      1.0  0.6908793972805967  0.10484109706115423  0.6118730677226693  1.0000
  C   C141      1.0  0.28130076288100986  0.7629456435113083  0.8712564643745607  1.0000
  C   C142      1.0  0.21869983750055166  0.7370546875454739  0.37125692382600306  1.0000
  C   C143      1.0  0.7187001477808579  0.23705458112739564  0.12874360605486854  1.0000
  C   C144      1.0  0.7813003922132751  0.26294553709375634  0.6287439505930763  1.0000
  C   C145      1.0  0.2617734146211319  0.5861402210790773  0.8594052943266914  1.0000
  C   C146      1.0  0.2382268040980193  0.9138607922107768  0.359405273413266  1.0000
  C   C147      1.0  0.738226522791912  0.41385933598248686  0.14059517809771896  1.0000
  C   C148      1.0  0.7617737179169453  0.08614010000687243  0.6405947970160283  1.0000
  C   C149      1.0  0.35285054070892136  0.7450511155430208  0.8427043837684135  1.0000
  C   C150      1.0  0.14714939555179277  0.7549492508193367  0.34270443453458904  1.0000
  C   C151      1.0  0.6471493967041227  0.2549484415185361  0.15729608865599687  1.0000
  C   C152      1.0  0.8528508341621545  0.24505097382014182  0.6572960378896722  1.0000
  C   C153      1.0  0.3406991831264395  0.6562465260797414  0.8362342968721916  1.0000
  C   C154      1.0  0.1593007569473599  0.8437538482828232  0.33623430823571704  1.0000
  C   C155      1.0  0.6593007542866048  0.34375303098181587  0.16376617555221878  1.0000
  C   C156      1.0  0.8406994727667014  0.15624637635691127  0.6637657621937265  1.0000
  C   C157      1.0  0.4020973990988708  0.6419616450400697  0.7503368507614923  1.0000
  C   C158      1.0  0.09790229929681264  0.8580381679559609  0.2503364548617525  1.0000
  C   C159      1.0  0.5979021496672701  0.3580385796004322  0.2496636216627763  1.0000
  C   C160      1.0  0.9020969571685457  0.14196138910686787  0.7496636155678401  1.0000
  C   C161      1.0  0.3236514321395634  0.6549054556266684  0.7248853506478312  1.0000
  C   C162      1.0  0.1763476003078709  0.8450943888408563  0.22488495913690087  1.0000
  C   C163      1.0  0.6763474356788918  0.34509476901511255  0.2751147197816194  1.0000
  C   C164      1.0  0.8236509752098017  0.1549051682232445  0.7751147092978882  1.0000
  C   C165      1.0  0.47834126134766547  0.633428562431959  0.7201104596322451  1.0000
  C   C166      1.0  0.021657773913787558  0.8665712879396638  0.22011006125336505  1.0000
  C   C167      1.0  0.5216582874184752  0.36657166220854265  0.27989001279202336  1.0000
  C   C168      1.0  0.9783405093029813  0.13342760154652217  0.779889607181566  1.0000
  C   C169      1.0  0.3225251822258812  0.65981219280512  0.6690551032503008  1.0000
  C   C170      1.0  0.17747456407226278  0.840187720694793  0.16905471388611906  1.0000
  C   C171      1.0  0.6774743665402596  0.340188031835389  0.3309453691739606  1.0000
  C   C172      1.0  0.822524692393209  0.1598118363682844  0.8309449545486558  1.0000
  C   C173      1.0  0.47645227252419187  0.6391998146184933  0.6644727675682347  1.0000
  C   C174      1.0  0.02354650322556038  0.8607994369700337  0.16447317569461717  1.0000
  C   C175      1.0  0.5235472762423043  0.3608004100227618  0.3355264988715732  1.0000
  C   C176      1.0  0.9764517799909742  0.1391994525156477  0.8355272967299567  1.0000
  C   C177      1.0  0.398638027706653  0.6522784756209744  0.6381533606071768  1.0000
  C   C178      1.0  0.10136241775099826  0.8477214760877987  0.1381525672079249  1.0000
  C   C179      1.0  0.6013622020072873  0.3477217490185113  0.36184711181708445  1.0000
  C   C180      1.0  0.8986368387145945  0.15227808097553466  0.8618466992320393  1.0000
  C   C181      1.0  0.3949730119916737  0.6559328419666886  0.5785085846783884  1.0000
  C   C182      1.0  0.10502776091772155  0.844067851069788  0.0785081948249129  1.0000
  C   C183      1.0  0.605026536774588  0.3440673826740621  0.42149148575106204  1.0000
  C   C184      1.0  0.8949727610974777  0.15593304114836576  0.9214910716147455  1.0000
  N   N1        1.0  0.8305467286994033  0.5046580303258497  0.9537144978219131  1.0000
  N   N2        1.0  0.6694528160513117  0.9953420300773602  0.453714442104406  1.0000
  N   N3        1.0  0.16945350101466525  0.49534219431387794  0.04628557260752329  1.0000
  N   N4        1.0  0.33054644041403947  0.004657526985468501  0.5462856283251867  1.0000
  N   N5        1.0  0.6749135730254424  0.22712724386534694  0.9582747896021359  1.0000
  N   N6        1.0  0.8250863841163608  0.27287313447342854  0.458275231447459  1.0000
  N   N7        1.0  0.32508665668873954  0.7728729807746361  0.04172487883248269  1.0000
  N   N8        1.0  0.1749134569506838  0.7271277577450025  0.5417252409766603  1.0000
  N   N9        1.0  0.32359514275580653  0.26287924817381036  0.9836285978560892  1.0000
  N   N10       1.0  0.17640580647944398  0.23712126751106413  0.4836286559974495  1.0000
  N   N11       1.0  0.6764057679062959  0.7371209764653911  0.016370668583704198  1.0000
  N   N12       1.0  0.8235947155355207  0.7628796247065922  0.5163714144318376  1.0000
  N   N13       1.0  0.1578980081223662  0.98780418517552  0.970226334026364  1.0000
  N   N14       1.0  0.34210185298485385  0.5121960235076843  0.4702260866550745  1.0000
  N   N15       1.0  0.8421015406440164  0.0121960394654792  0.02977333440826869  1.0000
  N   N16       1.0  0.6578976957816424  0.4878042011335638  0.5297731797847404  1.0000
  O   O1        1.0  0.5182756441430101  0.20176953526708993  0.9259905926780403  1.0000
  O   O2        1.0  0.9817240397242132  0.29823021541277944  0.42599102068621153  1.0000
  O   O3        1.0  0.481724585571172  0.7982306893728864  0.07400907575658519  1.0000
  O   O4        1.0  0.018275120395266266  0.7017706768071721  0.5740086477482718  1.0000
  O   O5        1.0  0.4597737313096673  0.2698912064621697  0.0333011872875275  1.0000
  O   O6        1.0  0.0402251481767948  0.2301091984727321  0.5333003444052337  1.0000
  O   O7        1.0  0.5402258174565945  0.7301090181785811  0.9666988831419161  1.0000
  O   O8        1.0  0.9597737196418948  0.769891026169539  0.4666989220345812  1.0000
  O   O9        1.0  0.9552367230705129  0.8498659655091033  0.9321972459491973  1.0000
  O   O10       1.0  0.544762445714433  0.6501347890792742  0.43219654071858565  1.0000
  O   O11       1.0  0.04476253339495882  0.15013359155397413  0.0678024224855776  1.0000
  O   O12       1.0  0.455237783999749  0.3498654355607016  0.5678031277160328  1.0000
  O   O13       1.0  0.8520764393101956  0.7031624400736051  0.9280141211195313  1.0000
  O   O14       1.0  0.6479244824822032  0.7968376521054594  0.4280145553782546  1.0000
  O   O15       1.0  0.1479234981030829  0.29683711698845633  0.0719855473152435  1.0000
  O   O16       1.0  0.35207545493096143  0.20316190495634603  0.5719855150513381  1.0000
  O   O17       1.0  0.5971019680300388  0.8717050775711926  0.798769134098407  1.0000
  O   O18       1.0  0.9028980566829076  0.6282945068412645  0.298768834455764  1.0000
  O   O19       1.0  0.40289796938311895  0.12829447949061293  0.20123093633118566  1.0000
  O   O20       1.0  0.09710246533205691  0.3717063853763847  0.7012312359735231  1.0000
  O   O21       1.0  0.5525941489408908  0.8626809771512711  0.5448925250442967  1.0000
  O   O22       1.0  0.9474072909408023  0.637320256331087  0.044892622661493  1.0000
  O   O23       1.0  0.44740520387047406  0.13731724475469065  0.4551075453855873  1.0000
  O   O24       1.0  0.05259585851938202  0.3626819710393435  0.9551074477674817  1.0000
  O   O25       1.0  0.698813219068242  0.8497597749700887  0.5498635945823835  1.0000
  O   O26       1.0  0.8011869523343123  0.6502401172110268  0.04986328697049909  1.0000
  O   O27       1.0  0.3011867183449155  0.15023978209171676  0.45013647584720917  1.0000
  O   O28       1.0  0.1988136660267728  0.3497594398500041  0.9501363814642685  1.0000
  O   O29       1.0  0.040590921644103245  0.646714566143018  0.9329767664573935  1.0000
  O   O30       1.0  0.45940866911473693  0.8532850210207529  0.4329767685468227  1.0000
  O   O31       1.0  0.9594093080699581  0.35328565849671634  0.06702330397204999  1.0000
  O   O32       1.0  0.5405912682983072  0.146714536040804  0.567023703877588  1.0000
  O   O33       1.0  0.14107759401917974  0.7943693967974996  0.9338747894460582  1.0000
  O   O34       1.0  0.3589219962102846  0.7056301892555795  0.43387526040030605  1.0000
  O   O35       1.0  0.8589226356950024  0.20563082784247655  0.06612487898856759  1.0000
  O   O36       1.0  0.6410779412027595  0.29436936780597733  0.5661252120240974  1.0000
  O   O37       1.0  0.40865856710157544  0.6359140087088235  0.8054507435990457  1.0000
  O   O38       1.0  0.09134109881325969  0.864085736139309  0.30545074713555204  1.0000
  O   O39       1.0  0.5913406893637827  0.3640855483540052  0.1945493268305469  1.0000
  O   O40       1.0  0.9086588385999049  0.13591382092249668  0.6945493232940405  1.0000
  O   O41       1.0  0.3188535165576525  0.6562881227082187  0.5549259612327261  1.0000
  O   O42       1.0  0.18114629700129836  0.8437119319112371  0.0549251682562115  1.0000
  O   O43       1.0  0.6811464208555051  0.3437114343535868  0.4450741091968666  1.0000
  O   O44       1.0  0.8188532517651981  0.15628829273001804  0.9450740981835962  1.0000
  O   O45       1.0  0.47121235351303187  0.6568092741162276  0.5519628560271954  1.0000
  O   O46       1.0  0.028786780844150525  0.8431907841675966  0.05196286984274679  1.0000
  O   O47       1.0  0.528787583900126  0.34319028294557813  0.44803721440239735  1.0000
  O   O48       1.0  0.9712114060266189  0.15680944047545609  0.948036798591893  1.0000
