data_image0
_chemical_formula_structural       Cu2H18C14N14
_chemical_formula_sum              "Cu2 H18 C14 N14"
_cell_length_a       5.432117539361468
_cell_length_b       9.674928490724946
_cell_length_c       10.564234661401846
_cell_angle_alpha    114.0623664056744
_cell_angle_beta     100.89367466854355
_cell_angle_gamma    90.31152393733248

_space_group_name_H-M_alt    "P 1"
_space_group_IT_number       1

loop_
  _space_group_symop_operation_xyz
  'x, y, z'

loop_
  _atom_site_type_symbol
  _atom_site_label
  _atom_site_symmetry_multiplicity
  _atom_site_fract_x
  _atom_site_fract_y
  _atom_site_fract_z
  _atom_site_occupancy
  Cu  Cu1       1.0  0.12906404554298942  0.974204079685329  0.36859802181401596  1.0000
  Cu  Cu2       1.0  0.8709252603687859  0.02579262958208521  0.6314004083533222  1.0000
  H   H1        1.0  0.8561749626003845  0.06259759631185353  0.14881635318896258  1.0000
  H   H2        1.0  0.14382220863376463  0.9374013753313122  0.8511846066916036  1.0000
  H   H3        1.0  0.5567246719363156  0.18192258506308437  0.41976341004482254  1.0000
  H   H4        1.0  0.4432773880018105  0.8180718515275205  0.5802382774997882  1.0000
  H   H5        1.0  0.656211614993083  0.38499325453879163  0.34265486658302546  1.0000
  H   H6        1.0  0.3437893058529795  0.615005719545849  0.6573474053049255  1.0000
  H   H7        1.0  0.934355990414481  0.24525017023013623  0.9333130654872264  1.0000
  H   H8        1.0  0.06564154691822927  0.7547510589058251  0.06668780009182745  1.0000
  H   H9        1.0  0.8185214149831737  0.3852110667881377  0.07192413292680298  1.0000
  H   H10       1.0  0.18148306656421914  0.6147867414429558  0.928077116535832  1.0000
  H   H11       1.0  0.6974282455582214  0.19208798228347498  0.005282479241891735  1.0000
  H   H12       1.0  0.3025640252493745  0.8079154453150041  0.9947129898077379  1.0000
  H   H13       1.0  0.20498405942223039  0.5422345853964147  0.16769551105191038  1.0000
  H   H14       1.0  0.7950170526789222  0.45776557280269287  0.8323100479021194  1.0000
  H   H15       1.0  0.33514658044075674  0.4099279076879156  0.03016612252682901  1.0000
  H   H16       1.0  0.6648556299560653  0.5900790229895919  0.9698391535226352  1.0000
  H   H17       1.0  0.5326747168910586  0.5228311372559491  0.19958989629890317  1.0000
  H   H18       1.0  0.4673275413357062  0.4771645309074658  0.8004179362119217  1.0000
  C   C1        1.0  0.031210922315551712  0.13645760259446155  0.1875932079837099  1.0000
  C   C2        1.0  0.9687944733059767  0.8635458414589082  0.812407329408437  1.0000
  C   C3        1.0  0.42389931662692953  0.20325150496052666  0.340004307094354  1.0000
  C   C4        1.0  0.5760999101179394  0.7967485808303255  0.6599963090057701  1.0000
  C   C5        1.0  0.06938403375226443  0.2464674084157253  0.13822496964558442  1.0000
  C   C6        1.0  0.9306146309499184  0.7535292041289667  0.8617705484232233  1.0000
  C   C7        1.0  0.47697065989846277  0.3151386750762342  0.29585616741660914  1.0000
  C   C8        1.0  0.5230324936462979  0.6848625023538732  0.7041433319566793  1.0000
  C   C9        1.0  0.2995755427302456  0.3391460033048332  0.1938999793745779  1.0000
  C   C10       1.0  0.7004250120172557  0.6608507132869977  0.8061023868148923  1.0000
  C   C11       1.0  0.8683982011791969  0.2673261900755435  0.03129906874212913  1.0000
  C   C12       1.0  0.13160701490982524  0.7326761489606001  0.9687029447508453  1.0000
  C   C13       1.0  0.3475514353128588  0.46016137634106263  0.1455605023104028  1.0000
  C   C14       1.0  0.6524513544778543  0.5398375594156947  0.8544400439977836  1.0000
  N   N1        1.0  0.407300785994984  0.8442443458339428  0.3198707789771334  1.0000
  N   N2        1.0  0.5926853450097483  0.15574433443235594  0.6801197041747855  1.0000
  N   N3        1.0  0.03360484331943077  0.8627531716633501  0.4814022003568966  1.0000
  N   N4        1.0  0.9663956893878164  0.1372549814565005  0.5186080883384037  1.0000
  N   N5        1.0  0.20401472792018185  0.11522014826977063  0.2862987228692901  1.0000
  N   N6        1.0  0.7959902992582715  0.8847810224713515  0.7137009561909978  1.0000
  N   N7        1.0  0.5713884892863278  0.8595837760462292  0.2646038025569484  1.0000
  N   N8        1.0  0.4286101472816383  0.14041264666508374  0.7353802839112831  1.0000
  N   N9        1.0  0.9941525453485482  0.7254395857330636  0.4339401316826113  1.0000
  N   N10       1.0  0.0058614721772301094  0.2745592149730882  0.5660557769472874  1.0000
  N   N11       1.0  0.7398590882800775  0.8686700999740682  0.21162409093140166  1.0000
  N   N12       1.0  0.2600960900192746  0.13133581381362805  0.7883734058770102  1.0000
  N   N13       1.0  0.960424097777107  0.5940437185117349  0.38933572138678596  1.0000
  N   N14       1.0  0.03960466973319405  0.4059651070821533  0.610655781211662  1.0000
