data_image0
_chemical_formula_structural       Ag2P2H40C36N8O4F4
_chemical_formula_sum              "Ag2 P2 H40 C36 N8 O4 F4"
_cell_length_a       7.974094040913561
_cell_length_b       11.010801355022162
_cell_length_c       12.369421955267978
_cell_angle_alpha    105.25709925349754
_cell_angle_beta     104.95610742819554
_cell_angle_gamma    102.61465478976037

_space_group_name_H-M_alt    "P 1"
_space_group_IT_number       1

loop_
  _space_group_symop_operation_xyz
  'x, y, z'

loop_
  _atom_site_type_symbol
  _atom_site_label
  _atom_site_symmetry_multiplicity
  _atom_site_fract_x
  _atom_site_fract_y
  _atom_site_fract_z
  _atom_site_occupancy
  Ag  Ag1       1.0  0.4274959683464417  0.24222296303437924  0.16180942387389047  1.0000
  Ag  Ag2       1.0  0.5725063011841272  0.7577749410235906  0.8381904325580861  1.0000
  P   P1        1.0  0.259911369754782  0.8990153255073847  0.22497847524036263  1.0000
  P   P2        1.0  0.7400811641000332  0.10098050710949734  0.7750234802956442  1.0000
  H   H1        1.0  0.6553067286272168  0.5180129993124749  0.3437218937770864  1.0000
  H   H2        1.0  0.34469133292218146  0.48199372555690423  0.6562794698321994  1.0000
  H   H3        1.0  0.8183782551450351  0.5248959177644962  0.7046192840290572  1.0000
  H   H4        1.0  0.18161479313171466  0.4751048453888059  0.2953798952987015  1.0000
  H   H5        1.0  0.6655097533347175  0.27880270984415023  0.6268664077458936  1.0000
  H   H6        1.0  0.33449088748562156  0.7211981327053179  0.37312906441199084  1.0000
  H   H7        1.0  0.5080793294918707  0.1650804982236024  0.408193528104789  1.0000
  H   H8        1.0  0.49192247719091836  0.834923311358224  0.5918020251666574  1.0000
  H   H9        1.0  0.8609017703372289  0.7404781338372285  0.6595313596019778  1.0000
  H   H10       1.0  0.13910798142733682  0.2595287124983727  0.34047095880787026  1.0000
  H   H11       1.0  0.9094617923131949  0.92699940167941  0.615013496613109  1.0000
  H   H12       1.0  0.09054089207782572  0.07300638671463837  0.3849842825858402  1.0000
  H   H13       1.0  0.6635829223267038  0.8990860703689376  0.43033723401796203  1.0000
  H   H14       1.0  0.33641819502272347  0.10091576188313668  0.5696601655480933  1.0000
  H   H15       1.0  0.8112345266644496  0.8742843634818838  0.34708407051676454  1.0000
  H   H16       1.0  0.1887717411940812  0.12572047698310473  0.652915628800031  1.0000
  H   H17       1.0  0.13283477029478513  0.8702091718414092  0.45128588209644244  1.0000
  H   H18       1.0  0.8671659593389334  0.12979462599020047  0.5487143612587672  1.0000
  H   H19       1.0  0.20176820421500707  0.8933368827008293  0.6050750527027303  1.0000
  H   H20       1.0  0.7982350939415498  0.10666694189266927  0.3949247693736027  1.0000
  H   H21       1.0  0.757831942309281  0.3400940696204414  0.07410129414770951  1.0000
  H   H22       1.0  0.24216883552964655  0.6598998788885447  0.9258998115402192  1.0000
  H   H23       1.0  0.11271260958536541  0.09596907550507439  0.10788546607428628  1.0000
  H   H24       1.0  0.8872899102065757  0.9040258759392183  0.8921169491601686  1.0000
  H   H25       1.0  0.8775370993503772  0.945697406838718  0.1491076460162901  1.0000
  H   H26       1.0  0.12246414155419671  0.05429457668373059  0.8508922447713374  1.0000
  H   H27       1.0  0.5865627275895307  0.002077394621288398  0.15333769242342035  1.0000
  H   H28       1.0  0.41343935334830206  0.9979165674168864  0.8466636098472903  1.0000
  H   H29       1.0  0.013214513766030146  0.39060110877596066  0.017061915646365774  1.0000
  H   H30       1.0  0.9867876048467751  0.6093928535587165  0.9829402010687643  1.0000
  H   H31       1.0  0.24574958117871398  0.49265947951775485  0.999871345721246  1.0000
  H   H32       1.0  0.7542475889811443  0.50733837131294  0.0001301677129034532  1.0000
  H   H33       1.0  0.6010266976869048  0.48078674490677276  0.1593401659546529  1.0000
  H   H34       1.0  0.39897388102904335  0.5192131112015445  0.8406623376837032  1.0000
  H   H35       1.0  0.47938762408914215  0.5913623672951969  0.2012826997377956  1.0000
  H   H36       1.0  0.5206103484290026  0.4086374617547292  0.7987194107350106  1.0000
  H   H37       1.0  0.5348958408922114  0.6976847548551034  0.054397758960334316  1.0000
  H   H38       1.0  0.4650990731105793  0.3023111030411839  0.9455997030746843  1.0000
  H   H39       1.0  0.7441397627207564  0.7005637602165533  0.15036010762248955  1.0000
  H   H40       1.0  0.2558594752213211  0.29943608206607303  0.849641384988672  1.0000
  C   C1        1.0  0.6601371133444189  0.4660108103126816  0.4075750202595785  1.0000
  C   C2        1.0  0.33985876739784976  0.5339939222152877  0.5924239208394297  1.0000
  C   C3        1.0  0.7505865700893537  0.5392116583962403  0.5283606572460613  1.0000
  C   C4        1.0  0.24941235570483403  0.46079409059622367  0.47163978998224815  1.0000
  C   C5        1.0  0.7518326464473263  0.47134068260302786  0.6094744573209424  1.0000
  C   C6        1.0  0.2481637350355612  0.5286620852348988  0.3905240833221911  1.0000
  C   C7        1.0  0.6661437257149814  0.3353616111952319  0.5669032659521633  1.0000
  C   C8        1.0  0.333855988974058  0.664643161327312  0.43309463600633075  1.0000
  C   C9        1.0  0.5786936356551636  0.2709425833080059  0.4449819767023016  1.0000
  C   C10       1.0  0.4213048378214808  0.729059221589196  0.5550142152537774  1.0000
  C   C11       1.0  0.8293468016798685  0.6832197954778249  0.5648513525892155  1.0000
  C   C12       1.0  0.17065519337778307  0.31678401558647795  0.43514827290434244  1.0000
  C   C13       1.0  0.9201279013305096  0.8809530328172027  0.526790852034189  1.0000
  C   C14       1.0  0.07987441955634007  0.11905176676373226  0.4732074430898479  1.0000
  C   C15       1.0  0.8065163176332106  0.927229352972226  0.43470986920384996  1.0000
  C   C16       1.0  0.1934856397494684  0.07277445779558181  0.5652889418452887  1.0000
  C   C17       1.0  0.12107802129237645  0.9236141459714059  0.5362179460542862  1.0000
  C   C18       1.0  0.8789238607403577  0.07638966420341119  0.4637792361060065  1.0000
  C   C19       1.0  0.7889975289404988  0.2539168527425061  0.09166462880794055  1.0000
  C   C20       1.0  0.21100064270061833  0.7460770687081035  0.9083360837144453  1.0000
  C   C21       1.0  0.9544808128120935  0.23213691646848378  0.08755866167583548  1.0000
  C   C22       1.0  0.04551990314031675  0.7678599861366633  0.9124439574317263  1.0000
  C   C23       1.0  0.9870621951345983  0.11935404328198725  0.1095572454608984  1.0000
  C   C24       1.0  0.012943181334399813  0.8806419231443169  0.8904426036807533  1.0000
  C   C25       1.0  0.8547067693949022  0.03438319780568119  0.13269227706537384  1.0000
  C   C26       1.0  0.14529948478232765  0.9656147474328518  0.8673097980037737  1.0000
  C   C27       1.0  0.6946467243048958  0.0647692699696947  0.13530519400647018  1.0000
  C   C28       1.0  0.30535369002986096  0.9352236897261715  0.8646964276065604  1.0000
  C   C29       1.0  0.07701094440075451  0.32646842944093624  0.057070913881212  1.0000
  C   C30       1.0  0.9229936189618544  0.6735314678479367  0.9429338083943151  1.0000
  C   C31       1.0  0.3396545846540775  0.43765167723632453  0.028408769646055973  1.0000
  C   C32       1.0  0.6603451028902257  0.5623432453706058  0.9715883657563182  1.0000
  C   C33       1.0  0.5129298368700715  0.5368531428577865  0.12580049213460845  1.0000
  C   C34       1.0  0.48706718258990384  0.4631447067869273  0.874197763521849  1.0000
  C   C35       1.0  0.6167069399821159  0.6346216855268095  0.07994478068221866  1.0000
  C   C36       1.0  0.3832952541985081  0.36537621793817004  0.9200534468609192  1.0000
  N   N1        1.0  0.5750281461019142  0.33560470546560583  0.36610085000143744  1.0000
  N   N2        1.0  0.4249710543830716  0.6643990770578367  0.6338943101044592  1.0000
  N   N3        1.0  0.8526482328214938  0.7379488974994429  0.4885136101056488  1.0000
  N   N4        1.0  0.14735159489245575  0.26205587591259405  0.5114867351861108  1.0000
  N   N5        1.0  0.662527432614951  0.17393292005111494  0.11600427658835602  1.0000
  N   N6        1.0  0.33747211747500927  0.8260610155216808  0.8839982614056437  1.0000
  N   N7        1.0  0.24682874931448853  0.34026515391076356  0.07243650315648147  1.0000
  N   N8        1.0  0.7531735821025904  0.6597297960510529  0.9275618398558619  1.0000
  O   O1        1.0  0.32161766167177325  0.011968283875155798  0.18484398788807252  1.0000
  O   O2        1.0  0.6783634189836861  0.9880254605099946  0.8151509112805401  1.0000
  O   O3        1.0  0.06664693273922496  0.828031452173711  0.20192931287637345  1.0000
  O   O4        1.0  0.9333554765252431  0.17196842161473563  0.7980847895666657  1.0000
  F   F1        1.0  0.3584463309529795  0.7912627493437508  0.18248403748015812  1.0000
  F   F2        1.0  0.641547506000741  0.20873309680232666  0.8175181146386237  1.0000
  F   F3        1.0  0.37086167848083557  0.943034655876367  0.3642843722545378  1.0000
  F   F4        1.0  0.6291458305900905  0.05697315221397049  0.6357170370646585  1.0000
