data_image0
_chemical_formula_structural       Mn2H20C32O16
_chemical_formula_sum              "Mn2 H20 C32 O16"
_cell_length_a       5.79116268420051
_cell_length_b       7.378521955572556
_cell_length_c       18.54445999334238
_cell_angle_alpha    91.20359516752733
_cell_angle_beta     83.86047588675338
_cell_angle_gamma    83.4104647362492

_space_group_name_H-M_alt    "P 1"
_space_group_IT_number       1

loop_
  _space_group_symop_operation_xyz
  'x, y, z'

loop_
  _atom_site_type_symbol
  _atom_site_label
  _atom_site_symmetry_multiplicity
  _atom_site_fract_x
  _atom_site_fract_y
  _atom_site_fract_z
  _atom_site_occupancy
  Mn  Mn1       1.0  0.4713055607837119  0.7531036556007962  0.0433984427090408  1.0000
  Mn  Mn2       1.0  0.5286993159547678  0.24692237552049076  0.95660139553312  1.0000
  H   H1        1.0  0.6323775121996319  0.9143764960814025  0.7986793960148901  1.0000
  H   H2        1.0  0.3676278950201634  0.08561128225156268  0.2013192283005765  1.0000
  H   H3        1.0  0.4156283943659459  0.5546254967410177  0.751024430058436  1.0000
  H   H4        1.0  0.5843815673043693  0.44536641122745374  0.24897514997633857  1.0000
  H   H5        1.0  0.3699207277083473  0.5997394500449929  0.48538758355886813  1.0000
  H   H6        1.0  0.6300661399979359  0.4002320890374236  0.514614779077391  1.0000
  H   H7        1.0  0.15012481838548547  0.69854330382816  0.3838899475302853  1.0000
  H   H8        1.0  0.8498701286722578  0.3014213041545801  0.6161094557876581  1.0000
  H   H9        1.0  0.7377427498142309  0.8514376949153829  0.4084077679685619  1.0000
  H   H10       1.0  0.2622554428100514  0.14854049743869524  0.5915899629388903  1.0000
  H   H11       1.0  0.5623695778484219  0.9139824459127796  0.5373176019373885  1.0000
  H   H12       1.0  0.43761647968597117  0.08599573825567573  0.4626799515701805  1.0000
  H   H13       1.0  0.7268020442724039  0.024188317125180003  0.08987933642784178  1.0000
  H   H14       1.0  0.2731995391498785  0.9758363723804635  0.9101211351960856  1.0000
  H   H15       1.0  0.7022551557005485  0.895082831662407  0.1578633644583718  1.0000
  H   H16       1.0  0.29774731024899376  0.1049363382906137  0.8421354455956445  1.0000
  H   H17       1.0  0.005599606274856183  0.7333347296822269  0.0863422627732078  1.0000
  H   H18       1.0  0.9944027200074855  0.26669676282405413  0.9136576685943821  1.0000
  H   H19       1.0  0.14508299757697074  0.5315913772430675  0.072437646987126  1.0000
  H   H20       1.0  0.8549262072353727  0.468440168389229  0.927563697388223  1.0000
  C   C1        1.0  0.804742977358238  0.8364244209955911  0.789051763492779  1.0000
  C   C2        1.0  0.19525845562450433  0.16357837320514784  0.21094702624617406  1.0000
  C   C3        1.0  0.9281698292837531  0.782968388749289  0.8469920167765252  1.0000
  C   C4        1.0  0.07183403567643859  0.217053449527242  0.15300514186511552  1.0000
  C   C5        1.0  0.15082122659265448  0.6812491406929766  0.8333856531760091  1.0000
  C   C6        1.0  0.8491899414633934  0.31878101838328377  0.1666150889732236  1.0000
  C   C7        1.0  0.2439336308665289  0.6334967326229801  0.7622227373589822  1.0000
  C   C8        1.0  0.7560729207997879  0.3665061363337118  0.2377780572855457  1.0000
  C   C9        1.0  0.12030732533290225  0.6880320482667843  0.7040221340103372  1.0000
  C   C10       1.0  0.8796907735829577  0.3119584267417751  0.2959756380395291  1.0000
  C   C11       1.0  0.22782786243473643  0.6387845117886927  0.6287556712960553  1.0000
  C   C12       1.0  0.7721589857093605  0.36118823262470556  0.371242380983908  1.0000
  C   C13       1.0  0.0946629069864429  0.7044804520367619  0.5686264693015204  1.0000
  C   C14       1.0  0.9053193603105427  0.29548699730892747  0.431376017786583  1.0000
  C   C15       1.0  0.19416923287238316  0.6706871080358496  0.4967247641306898  1.0000
  C   C16       1.0  0.8058170016626888  0.32928854577428984  0.5032781695760278  1.0000
  C   C17       1.0  0.06832521872899378  0.7253803540588208  0.4394089788549636  1.0000
  C   C18       1.0  0.931669095157538  0.2745883686516494  0.5605909955334454  1.0000
  C   C19       1.0  0.838867637631374  0.8116209724337085  0.4531430639787146  1.0000
  C   C20       1.0  0.16112696636189835  0.18835732302840572  0.5468574709810952  1.0000
  C   C21       1.0  0.7398301284760928  0.8471134450613819  0.5245323485888775  1.0000
  C   C22       1.0  0.2601559026617081  0.15286357367487818  0.47547059544614  1.0000
  C   C23       1.0  0.866458339156395  0.7975636287761602  0.5825937167794848  1.0000
  C   C24       1.0  0.13353134613337397  0.2024120416222956  0.4174096533883258  1.0000
  C   C25       1.0  0.759619557615494  0.84907290460238  0.6573949403722352  1.0000
  C   C26       1.0  0.24037768354337166  0.1509108671525041  0.3426060723618463  1.0000
  C   C27       1.0  0.8979261445537574  0.7898111723510582  0.717586106948751  1.0000
  C   C28       1.0  0.10207132119089117  0.21018341738523114  0.2824122361715808  1.0000
  C   C29       1.0  0.8095778711401846  0.8231302082994747  0.9225096520845285  1.0000
  C   C30       1.0  0.19044114989065258  0.1768944045526126  0.0774886811602613  1.0000
  C   C31       1.0  0.291285389416835  0.6317695456450777  0.8951442985552093  1.0000
  C   C32       1.0  0.708734935289911  0.36825662994650105  0.10485939406137851  1.0000
  O   O1        1.0  0.5655578067631877  0.9410281089986726  0.6699058534272098  1.0000
  O   O2        1.0  0.4344554482233178  0.05896514058544261  0.3300930932258055  1.0000
  O   O3        1.0  0.4202703974542387  0.5446705473177218  0.6175801876961344  1.0000
  O   O4        1.0  0.5797204656776033  0.45529815880443164  0.38241935023118145  1.0000
  O   O5        1.0  0.7204123551490795  0.9837313925900945  0.9402484381516345  1.0000
  O   O6        1.0  0.2796030381263818  0.016295734031992002  0.059744078432899514  1.0000
  O   O7        1.0  0.7924885819284169  0.6874669935706025  0.9638249825679354  1.0000
  O   O8        1.0  0.20752881371511475  0.31255633583347736  0.0361755525030958  1.0000
  O   O9        1.0  0.31109830129972244  0.7635054965322255  0.9394384113543166  1.0000
  O   O10       1.0  0.6889050597402929  0.23653016886941455  0.060563659528213486  1.0000
  O   O11       1.0  0.3799826927672285  0.4688863785095095  0.8982653130026109  1.0000
  O   O12       1.0  0.620019431908716  0.53113427606597  0.10173674789314899  1.0000
  O   O13       1.0  0.729590720127639  0.8934889697826948  0.1051274431271594  1.0000
  O   O14       1.0  0.2704126461204623  0.10653567814362931  0.8948718965133723  1.0000
  O   O15       1.0  0.15428788235227836  0.6574515798049917  0.0915450369991362  1.0000
  O   O16       1.0  0.845714555409792  0.3425786275727418  0.9084570443824517  1.0000
