data_image0
_chemical_formula_structural       K4H40C24S4N8O14
_chemical_formula_sum              "K4 H40 C24 S4 N8 O14"
_cell_length_a       7.441541666000047
_cell_length_b       10.838628859362085
_cell_length_c       13.036704049335105
_cell_angle_alpha    114.56934962748255
_cell_angle_beta     89.99999619831375
_cell_angle_gamma    89.99999043031487

_space_group_name_H-M_alt    "P 1"
_space_group_IT_number       1

loop_
  _space_group_symop_operation_xyz
  'x, y, z'

loop_
  _atom_site_type_symbol
  _atom_site_label
  _atom_site_symmetry_multiplicity
  _atom_site_fract_x
  _atom_site_fract_y
  _atom_site_fract_z
  _atom_site_occupancy
  K   K1        1.0  0.3945109797313224  0.11767218195724638  5.6370558347384756e-05  1.0000
  K   K2        1.0  0.894509373917849  0.8823254728213074  0.9999431406741408  1.0000
  K   K3        1.0  0.7453293168075492  0.4526558081473624  0.9999508747367043  1.0000
  K   K4        1.0  0.24533081799769016  0.5473459296237592  4.9289464179424514e-05  1.0000
  H   H1        1.0  0.024938346492412205  0.19459465540711562  0.18677547564010408  1.0000
  H   H2        1.0  0.524938124494085  0.8054061026248078  0.81322512474528  1.0000
  H   H3        1.0  0.5250201097079811  0.9921890753814328  0.18678509351204306  1.0000
  H   H4        1.0  0.025018961994256  0.0078106681596353  0.8132151554653079  1.0000
  H   H5        1.0  0.5574771161428985  0.5582533610999648  0.7231215344838304  1.0000
  H   H6        1.0  0.05747861150001651  0.4417463771872788  0.2768787114238122  1.0000
  H   H7        1.0  0.057518934011675106  0.16487580136574562  0.7230913128505208  1.0000
  H   H8        1.0  0.5575187658929651  0.8351229224371652  0.27690858165289706  1.0000
  H   H9        1.0  0.7266571254747944  0.45687894978448185  0.7310170297327827  1.0000
  H   H10       1.0  0.22665859704704164  0.5431217755963544  0.2689835515751894  1.0000
  H   H11       1.0  0.2266747291522506  0.2741897384256902  0.7310573959238411  1.0000
  H   H12       1.0  0.7266759323665043  0.725809973409561  0.26894206724061576  1.0000
  H   H13       1.0  0.8397815934567704  0.1444412502585664  0.35633918115603075  1.0000
  H   H14       1.0  0.33978160244704725  0.8555604722242905  0.6436609741122081  1.0000
  H   H15       1.0  0.33979244764344685  0.21190719828642568  0.3563236605419959  1.0000
  H   H16       1.0  0.8397949367969562  0.7880914798264343  0.6436762072655852  1.0000
  H   H17       1.0  0.7896656113701612  0.2349566518983225  0.5611105422436822  1.0000
  H   H18       1.0  0.2896670095430167  0.7650450786963745  0.43888961776415397  1.0000
  H   H19       1.0  0.28976381014662433  0.3262495275486188  0.561115410716063  1.0000
  H   H20       1.0  0.7897650066718925  0.6737481451194115  0.43888334368112675  1.0000
  H   H21       1.0  0.48572586370386267  0.567445252177741  0.5492652513710965  1.0000
  H   H22       1.0  0.9857298052242175  0.43255441679137624  0.4507349540352691  1.0000
  H   H23       1.0  0.9857969231018019  0.9819196585723519  0.549302186116904  1.0000
  H   H24       1.0  0.48579715800576656  0.0180789949729174  0.45069843462409404  1.0000
  H   H25       1.0  0.5322498483027048  0.47598649408892163  0.3440789128595866  1.0000
  H   H26       1.0  0.03225262424200541  0.5240122347388407  0.6559202172919711  1.0000
  H   H27       1.0  0.0323345723757953  0.8681076653494915  0.3441219251984222  1.0000
  H   H28       1.0  0.5323345323071678  0.13189106252984573  0.6558779716867775  1.0000
  H   H29       1.0  0.9874444933243468  0.37157997505497786  0.7627668924281322  1.0000
  H   H30       1.0  0.48744326012958084  0.6284196945713205  0.2372325460744093  1.0000
  H   H31       1.0  0.48740832006883045  0.3911991291417678  0.7627979426160322  1.0000
  H   H32       1.0  0.9874082115838689  0.6088015540330433  0.23720261403174445  1.0000
  H   H33       1.0  0.9983911269298816  0.5327880462892267  0.8190580615799873  1.0000
  H   H34       1.0  0.4983926270185961  0.4672126360426816  0.18094172728751087  1.0000
  H   H35       1.0  0.49836439272728233  0.2862927261535405  0.8190753608540433  1.0000
  H   H36       1.0  0.9983656089186612  0.7137069417050198  0.18092407661564633  1.0000
  H   H37       1.0  0.0438080866068731  0.2982226772483116  0.06607892384096906  1.0000
  H   H38       1.0  0.5438078760878328  0.7017780786642264  0.933920908018308  1.0000
  H   H39       1.0  0.543872420261458  0.767811662930015  0.06603471659796153  1.0000
  H   H40       1.0  0.04387254795963  0.23218909203713886  0.9339658819967411  1.0000
  C   C1        1.0  0.6901069444908432  0.3047094724537303  0.33610529631025793  1.0000
  C   C2        1.0  0.19010833400783156  0.6952922723860199  0.6638964065962725  1.0000
  C   C3        1.0  0.19019578100297005  0.0313993008993592  0.3361349880779443  1.0000
  C   C4        1.0  0.6901955362874902  0.9685994023629335  0.6638641271361932  1.0000
  C   C5        1.0  0.7612212456533883  0.2368847848375637  0.3981326934904103  1.0000
  C   C6        1.0  0.2612226257236188  0.7631169503612512  0.6018674692075193  1.0000
  C   C7        1.0  0.2612912447919697  0.16126618341653653  0.3981424707862971  1.0000
  C   C8        1.0  0.7612910387648171  0.8387325074030373  0.6018574044455817  1.0000
  C   C9        1.0  0.7344472108054774  0.2885729307280799  0.5138360180157235  1.0000
  C   C10       1.0  0.2344499604543344  0.7114277943266674  0.48616379581392277  1.0000
  C   C11       1.0  0.23454139697310694  0.2253300863861014  0.513853120138421  1.0000
  C   C12       1.0  0.7345412197311774  0.7746686087632995  0.4861467576232953  1.0000
  C   C13       1.0  0.6371850887530998  0.40961946579859204  0.570694942291638  1.0000
  C   C14       1.0  0.13718921816355592  0.5903802595866098  0.42930529607757956  1.0000
  C   C15       1.0  0.1372537651274115  0.1611592968892879  0.5707043628124637  1.0000
  C   C16       1.0  0.6372522349309339  0.8388394140075595  0.42929552415018435  1.0000
  C   C17       1.0  0.5622207793913816  0.4742460926917931  0.5070780663373142  1.0000
  C   C18       1.0  0.062223573481446706  0.5257526312847601  0.4929210609797748  1.0000
  C   C19       1.0  0.0622827602106284  0.0329050273287876  0.5070923415394475  1.0000
  C   C20       1.0  0.5622825353430657  0.9670947111156782  0.4929071371722599  1.0000
  C   C21       1.0  0.5889518124038703  0.4226333902614599  0.39109558231367453  1.0000
  C   C22       1.0  0.08895458070948341  0.5773663448009501  0.6089031271341766  1.0000
  C   C23       1.0  0.08902307968531892  0.9684905467955788  0.3911170503241336  1.0000
  C   C24       1.0  0.5890230694149424  0.03150918732058021  0.6088824258586314  1.0000
  S   S1        1.0  0.7467376985449264  0.24475939232806357  0.1909268240690238  1.0000
  S   S2        1.0  0.24673771311306333  0.7552413307375191  0.8090729885983945  1.0000
  S   S3        1.0  0.2468223849706775  0.9461103219308815  0.1909511161036618  1.0000
  S   S4        1.0  0.7468236902484477  0.053889386643192004  0.8090483451553396  1.0000
  N   N1        1.0  0.9492709974141037  0.26991218473794026  0.17895546444163557  1.0000
  N   N2        1.0  0.4492710167426638  0.7300885046099098  0.8210450958129343  1.0000
  N   N3        1.0  0.4493771923340617  0.9090503544747081  0.17900080520667658  1.0000
  N   N4        1.0  0.9493784872260208  0.09094932131309011  0.820998636895922  1.0000
  N   N5        1.0  0.6130785117852896  0.4620464037361316  0.6872793318809797  1.0000
  N   N6        1.0  0.1130799796317206  0.5379543409639069  0.31272049342704367  1.0000
  N   N7        1.0  0.113101497275558  0.22530026916552973  0.6872992868896333  1.0000
  N   N8        1.0  0.6131013397913065  0.7746994610532241  0.3127001870159488  1.0000
  O   O1        1.0  0.6946033607239387  0.09955312530389192  0.1406463581986088  1.0000
  O   O2        1.0  0.19460333420489925  0.9004476052654056  0.8593542261408799  1.0000
  O   O3        1.0  0.19457525983892052  0.04096266153579361  0.1406219515182343  1.0000
  O   O4        1.0  0.6945749951722464  0.9590370545603835  0.8593782814235809  1.0000
  O   O5        1.0  0.6391027365000213  0.32626044937128296  0.1459634638975658  1.0000
  O   O6        1.0  0.13910276578970132  0.673740291116495  0.8540363589493081  1.0000
  O   O7        1.0  0.1392801709734712  0.819581960677759  0.14601895705703766  1.0000
  O   O8        1.0  0.639280096514  0.1804177643686629  0.8539812811142367  1.0000
  O   O9        1.0  0.9250622450688084  0.45599017294910726  0.8173346260959986  1.0000
  O   O10       1.0  0.4250637262610014  0.5440105212520834  0.18266516970649593  1.0000
  O   O11       1.0  0.4250610247146583  0.3613948111564724  0.8173809314820273  1.0000
  O   O12       1.0  0.9250609151925036  0.6386048666974632  0.18262004640335752  1.0000
  O   O13       1.0  0.1028267738711506  0.30666805739893027  3.819918197929827e-05  1.0000
  O   O14       1.0  0.6028265578828851  0.6933326889606306  0.999961627095672  1.0000
