data_image0
_chemical_formula_structural       CuH10C8N2O4
_chemical_formula_sum              "Cu1 H10 C8 N2 O4"
_cell_length_a       4.08467775905355
_cell_length_b       5.938197491529557
_cell_length_c       9.719262096327302
_cell_angle_alpha    91.36575981968342
_cell_angle_beta     99.67488445332907
_cell_angle_gamma    98.99453471707349

_space_group_name_H-M_alt    "P 1"
_space_group_IT_number       1

loop_
  _space_group_symop_operation_xyz
  'x, y, z'

loop_
  _atom_site_type_symbol
  _atom_site_label
  _atom_site_symmetry_multiplicity
  _atom_site_fract_x
  _atom_site_fract_y
  _atom_site_fract_z
  _atom_site_occupancy
  Cu  Cu1       1.0  0.5000135404025912  0.5000073492216474  0.9999955494857744  1.0000
  H   H1        1.0  0.27202819620271873  0.15612703412433146  0.12144370283930779  1.0000
  H   H2        1.0  0.7279821018917616  0.8438843295070695  0.8785448666698699  1.0000
  H   H3        1.0  0.9541588440812419  0.22361313092648055  0.005553678921920386  1.0000
  H   H4        1.0  0.045858413853110735  0.7763966469049989  0.9944301734829253  1.0000
  H   H5        1.0  0.07722839949190068  0.3743639376814513  0.1568047086614968  1.0000
  H   H6        1.0  0.9227827064859395  0.6256510800813401  0.8431768118244419  1.0000
  H   H7        1.0  0.10254685957674775  0.6208375375019982  0.4210774870475049  1.0000
  H   H8        1.0  0.8974049486166035  0.37913746267600595  0.5789318493486275  1.0000
  H   H9        1.0  0.6152191925056057  0.2081814763353833  0.3444348754872308  1.0000
  H   H10       1.0  0.3847295707805569  0.7918212097543387  0.6555657502227916  1.0000
  C   C1        1.0  0.6623114460685712  0.79495382540059  0.229099931131678  1.0000
  C   C2        1.0  0.3376765561644746  0.20505762185730697  0.7708891872081691  1.0000
  C   C3        1.0  0.8402101745830066  0.9023953268006653  0.3680515298126323  1.0000
  C   C4        1.0  0.15975696695815594  0.09756308830236549  0.6319398681342816  1.0000
  C   C5        1.0  0.056800505187567234  0.7863149038504318  0.45685923762550834  1.0000
  C   C6        1.0  0.9432034100989172  0.2136884294861829  0.5431657275300452  1.0000
  C   C7        1.0  0.7853658712393566  0.11766703909059832  0.4122272881133782  1.0000
  C   C8        1.0  0.2146221899802895  0.8823226556756224  0.5877982870330669  1.0000
  N   N1        1.0  0.16020537799781207  0.28990788436610154  0.0796080292295471  1.0000
  N   N2        1.0  0.8398045606358407  0.7101122363985437  0.9203745809048058  1.0000
  O   O1        1.0  0.7311849865708594  0.5971530088937201  0.19598767885299398  1.0000
  O   O2        1.0  0.26886312278153207  0.4028698249274427  0.8040109720964139  1.0000
  O   O3        1.0  0.45729197334753735  0.8941784085452156  0.1509701796109653  1.0000
  O   O4        1.0  0.5427481441702541  0.10578210469262932  0.8490509224554614  1.0000
