data_image0
_chemical_formula_structural       Zn4H20C16N36
_chemical_formula_sum              "Zn4 H20 C16 N36"
_cell_length_a       7.397947630086805
_cell_length_b       7.788402643714543
_cell_length_c       14.19127629300633
_cell_angle_alpha    89.99990339397577
_cell_angle_beta     89.99995954396266
_cell_angle_gamma    95.13955884265414

_space_group_name_H-M_alt    "P 1"
_space_group_IT_number       1

loop_
  _space_group_symop_operation_xyz
  'x, y, z'

loop_
  _atom_site_type_symbol
  _atom_site_label
  _atom_site_symmetry_multiplicity
  _atom_site_fract_x
  _atom_site_fract_y
  _atom_site_fract_z
  _atom_site_occupancy
  Zn  Zn1       1.0  0.8346882720605749  0.492628274368208  0.4221441717045025  1.0000
  Zn  Zn2       1.0  0.665312172232369  0.0073696485756614  0.9221445585432874  1.0000
  Zn  Zn3       1.0  0.16531274403971719  0.5073704144752754  0.5778554415794728  1.0000
  Zn  Zn4       1.0  0.3346876149022649  0.9926303304442287  0.07785505474031139  1.0000
  H   H1        1.0  0.5399502555347412  0.9024817744145467  0.2717579849558547  1.0000
  H   H2        1.0  0.9600493112477936  0.5975208601102011  0.7717588842624821  1.0000
  H   H3        1.0  0.46004842529748663  0.09752078392585871  0.7282409236684942  1.0000
  H   H4        1.0  0.039950475886250614  0.40247911890855903  0.2282414336793721  1.0000
  H   H5        1.0  0.47944063664610337  0.3507169001040964  0.11980785967171668  1.0000
  H   H6        1.0  0.020560041024936002  0.1492859276301104  0.6198081682155702  1.0000
  H   H7        1.0  0.520559395813315  0.6492856572006148  0.880192458268901  1.0000
  H   H8        1.0  0.9794397461091083  0.8507140513886498  0.38019214972628385  1.0000
  H   H9        1.0  0.6535231755410964  0.524705338244253  0.2441129865333806  1.0000
  H   H10       1.0  0.8464760690262525  0.9752935174857524  0.7441128726465391  1.0000
  H   H11       1.0  0.34647661159295495  0.47529464077450706  0.7558873314084735  1.0000
  H   H12       1.0  0.15352359544510824  0.0247051723900356  0.2558874452959401  1.0000
  H   H13       1.0  0.7873639728047906  0.13246968739223056  0.46510947526991225  1.0000
  H   H14       1.0  0.7126351713842284  0.36752938797653906  0.9651102152958941  1.0000
  H   H15       1.0  0.21263581433041884  0.867530291628789  0.5348894333554313  1.0000
  H   H16       1.0  0.2873658447154882  0.6324693008658143  0.034890102646329496  1.0000
  H   H17       1.0  0.6982878312924756  0.9286402760739989  0.4201258533902887  1.0000
  H   H18       1.0  0.8017125961397938  0.5713593034505422  0.9201261306319992  1.0000
  H   H19       1.0  0.30171195584273397  0.0713597029470208  0.5798730552350548  1.0000
  H   H20       1.0  0.19828719099425038  0.42864067556821794  0.07987418730985499  1.0000
  C   C1        1.0  0.6637494141765076  0.13864315836893576  0.336767268417276  1.0000
  C   C2        1.0  0.8362509261499653  0.3613524600151408  0.8367679686313281  1.0000
  C   C3        1.0  0.3362513565990001  0.8613529521897264  0.6632316402096803  1.0000
  C   C4        1.0  0.16374886098466135  0.6386475190047489  0.16323164465227077  1.0000
  C   C5        1.0  0.5648079196327275  0.042006827379459814  0.2648026977671307  1.0000
  C   C6        1.0  0.9351929078335885  0.45799288915802794  0.764803976560458  1.0000
  C   C7        1.0  0.43519186750248906  0.9579931516415598  0.7351962108582057  1.0000
  C   C8        1.0  0.0648068793004555  0.5420070898607392  0.23519634138139617  1.0000
  C   C9        1.0  0.5316116236151772  0.29090660579147  0.18198692228864388  1.0000
  C   C10       1.0  0.9683867603756228  0.20909466747093566  0.6819884196997066  1.0000
  C   C11       1.0  0.4683881635194569  0.7090933732284199  0.8180126909949551  1.0000
  C   C12       1.0  0.03161290409573781  0.7909040224048526  0.3180118982427658  1.0000
  C   C13       1.0  0.6274571319680433  0.3854490105570251  0.2504570941896418  1.0000
  C   C14       1.0  0.872543964576643  0.11455333026151492  0.7504573052775922  1.0000
  C   C15       1.0  0.37254425212030634  0.6145535457153811  0.7495425190924649  1.0000
  C   C16       1.0  0.1274558225574012  0.8854466487572452  0.24954301266425458  1.0000
  N   N1        1.0  0.9626325053872621  0.666618496474925  0.5293211788405188  1.0000
  N   N2        1.0  0.5373670948124598  0.8333810478985343  0.0293210492312781  1.0000
  N   N3        1.0  0.03736863337513803  0.3333814815104007  0.47067913910108666  1.0000
  N   N4        1.0  0.4626326923210017  0.1666189311190962  0.9706799733688313  1.0000
  N   N5        1.0  0.8542174741883242  0.7249232369974762  0.5817477460027973  1.0000
  N   N6        1.0  0.645782039208335  0.7750761392912862  0.0817476305300247  1.0000
  N   N7        1.0  0.1457823129457196  0.27507674202128385  0.4182525719390568  1.0000
  N   N8        1.0  0.35421774792571636  0.22492383972747385  0.9182526874118295  1.0000
  N   N9        1.0  0.7476586717168419  0.7820520704721903  0.6298808306159671  1.0000
  N   N10       1.0  0.7523407619860906  0.717947151498329  0.12988002421460718  1.0000
  N   N11       1.0  0.252341115417785  0.21794790854769988  0.3701187826676318  1.0000
  N   N12       1.0  0.24765767352018736  0.28205282855499547  0.8701195890692404  1.0000
  N   N13       1.0  0.6389123321939606  0.6810452360953789  0.4032635070847945  1.0000
  N   N14       1.0  0.8610881231576287  0.8189543974918935  0.9032635328155507  1.0000
  N   N15       1.0  0.36108733227739986  0.31895345378040935  0.5967368108576778  1.0000
  N   N16       1.0  0.13891301560476424  0.18104558049343913  0.09673678512605477  1.0000
  N   N17       1.0  0.48661612485712896  0.6512706808314235  0.4309277274088145  1.0000
  N   N18       1.0  0.013382297872304598  0.8487289331377283  0.930927148959114  1.0000
  N   N19       1.0  0.513385013905264  0.348729297153902  0.5690725905327909  1.0000
  N   N20       1.0  0.9866161376339734  0.1512710469155962  0.0690724643247336  1.0000
  N   N21       1.0  0.33480898235018236  0.6273463138276442  0.4549918459010057  1.0000
  N   N22       1.0  0.16519357808333981  0.8726545090312713  0.9549918939940341  1.0000
  N   N23       1.0  0.66519363070384  0.37265495226835554  0.5450077673814775  1.0000
  N   N24       1.0  0.834806209051287  0.1273454699886187  0.0450077192895648  1.0000
  N   N25       1.0  0.6951429742742974  0.312111761348028  0.3272979845498369  1.0000
  N   N26       1.0  0.8048581177070916  0.18789162225418476  0.8272981525542704  1.0000
  N   N27       1.0  0.3048585324761533  0.6878920840662204  0.6727023333899068  1.0000
  N   N28       1.0  0.19514031779860372  0.8121083577980103  0.1727021653878325  1.0000
  N   N29       1.0  0.5003357275157684  0.11775119955635921  0.1900997388467758  1.0000
  N   N30       1.0  0.999664117333758  0.38225133580538534  0.6901010641384459  1.0000
  N   N31       1.0  0.49966565657316414  0.8822513567171768  0.8098991697770755  1.0000
  N   N32       1.0  0.00033579246297679824  0.6177499323563467  0.3098992538027899  1.0000
  N   N33       1.0  0.7246540660481815  0.05978413695000031  0.4129937005881459  1.0000
  N   N34       1.0  0.7753465160577308  0.4402151044737224  0.9129943500979962  1.0000
  N   N35       1.0  0.2753484243431501  0.9402158400030272  0.5870059126949554  1.0000
  N   N36       1.0  0.22465327107690314  0.5597848745461675  0.08700526318560259  1.0000
