data_image0
_chemical_formula_structural       Li4B4H12C16N4O16F8
_chemical_formula_sum              "Li4 B4 H12 C16 N4 O16 F8"
_cell_length_a       6.159450776013048
_cell_length_b       8.049080879028924
_cell_length_c       14.986757318020848
_cell_angle_alpha    90.00018938974243
_cell_angle_beta     90.000019154317
_cell_angle_gamma    90.00023875043591

_space_group_name_H-M_alt    "P 1"
_space_group_IT_number       1

loop_
  _space_group_symop_operation_xyz
  'x, y, z'

loop_
  _atom_site_type_symbol
  _atom_site_label
  _atom_site_symmetry_multiplicity
  _atom_site_fract_x
  _atom_site_fract_y
  _atom_site_fract_z
  _atom_site_occupancy
  Li  Li1       1.0  0.25000944902268435  0.5425260851195334  0.5312401629896966  1.0000
  Li  Li2       1.0  0.7499997233899762  0.957479541049608  0.031237130711268393  1.0000
  Li  Li3       1.0  0.2500001744847893  0.0425187910510942  0.9687606497277198  1.0000
  Li  Li4       1.0  0.749988825336864  0.45747348937293697  0.46876295549631636  1.0000
  B   B1        1.0  0.24999635551325383  0.5660383011816987  0.19771439877386135  1.0000
  B   B2        1.0  0.7499983751410256  0.9339621388789467  0.6977108365026296  1.0000
  B   B3        1.0  0.2499966521826522  0.0660411627214899  0.3022856094290133  1.0000
  B   B4        1.0  0.750001918849378  0.43396251568659483  0.8022880524574983  1.0000
  H   H1        1.0  0.25000188337981655  0.13119876150225449  0.656428987688592  1.0000
  H   H2        1.0  0.7500014093438949  0.36881519955262126  0.15643113623271176  1.0000
  H   H3        1.0  0.2500049826266491  0.6311856173346014  0.843573316766317  1.0000
  H   H4        1.0  0.7500061321128015  0.8688032977489468  0.34357012726561453  1.0000
  H   H5        1.0  0.10480551777448711  0.1579689761561838  0.5540199259346961  1.0000
  H   H6        1.0  0.8951944233353616  0.342035657215277  0.054024043631471785  1.0000
  H   H7        1.0  0.39519824898713557  0.657956919574488  0.945978422454537  1.0000
  H   H8        1.0  0.6048080997332407  0.8420326265222542  0.4459771723899023  1.0000
  H   H9        1.0  0.8951927565960531  0.8420355678313384  0.44597785450971356  1.0000
  H   H10       1.0  0.10480547454623951  0.6579639172838583  0.9459804093661218  1.0000
  H   H11       1.0  0.6048032723983567  0.34203644303577363  0.05402536328188028  1.0000
  H   H12       1.0  0.3951966687094314  0.1579669479660382  0.5540212753061834  1.0000
  C   C1        1.0  0.1257012239157191  0.5541875107810483  0.3429839658328645  1.0000
  C   C2        1.0  0.8742741727907062  0.9458150667785999  0.8429831063214335  1.0000
  C   C3        1.0  0.3742754831364222  0.05418986798665059  0.15701401958806824  1.0000
  C   C4        1.0  0.6257407983334248  0.445816642416986  0.6570131346347167  1.0000
  C   C5        1.0  0.8742889328341974  0.4458108213248977  0.6570204871631302  1.0000
  C   C6        1.0  0.1257289721453247  0.0541894772248099  0.15701734314622934  1.0000
  C   C7        1.0  0.6257244147469337  0.9458121912373939  0.8429804245754722  1.0000
  C   C8        1.0  0.37425747601378845  0.5541792049295253  0.34298598031348587  1.0000
  C   C9        1.0  0.2500040349138218  0.9263563681821835  0.5712518271025571  1.0000
  C   C10       1.0  0.7500003077831251  0.5736495045351974  0.07125078325307037  1.0000
  C   C11       1.0  0.2500012136109575  0.4263475851984068  0.9287496662078991  1.0000
  C   C12       1.0  0.7500023570636005  0.0736481758181  0.42874595334226473  1.0000
  C   C13       1.0  0.25000014718688857  0.1036500534322258  0.5846782851700779  1.0000
  C   C14       1.0  0.7499998252275689  0.39635725360427176  0.08468048255672037  1.0000
  C   C15       1.0  0.2500016961750688  0.603642320895368  0.9153233031852036  1.0000
  C   C16       1.0  0.7500013742294912  0.8963557329362287  0.41531882801984904  1.0000
  N   N1        1.0  0.2500052587225881  0.7837599261066756  0.5593425200462788  1.0000
  N   N2        1.0  0.7500023188526653  0.7162433884783754  0.05934239629739578  1.0000
  N   N3        1.0  0.24999757901935743  0.28375370124857097  0.9406567186519863  1.0000
  N   N4        1.0  0.7500027567645378  0.2162396483969999  0.4406592639287225  1.0000
  O   O1        1.0  0.05507640093730261  0.5622452101031854  0.2610169384739009  1.0000
  O   O2        1.0  0.9449151473113276  0.9377593471653113  0.7610174064178705  1.0000
  O   O3        1.0  0.4449165858170829  0.0622482944896845  0.2389817284918862  1.0000
  O   O4        1.0  0.5550884146722765  0.4377549938410468  0.7389801547598152  1.0000
  O   O5        1.0  0.9449218734225866  0.43775436439133836  0.7389868472678598  1.0000
  O   O6        1.0  0.0550815035481236  0.062248923953284005  0.23898037402976505  1.0000
  O   O7        1.0  0.5550816885469345  0.9377537647441514  0.7610167192060684  1.0000
  O   O8        1.0  0.44490823616623504  0.5622445806509263  0.26102363098186027  1.0000
  O   O9        1.0  0.0189806849117033  0.5468488305089636  0.41232116790980894  1.0000
  O   O10       1.0  0.9809899120342395  0.9531603861908308  0.912322334107557  1.0000
  O   O11       1.0  0.48099111102803965  0.046839914628030485  0.08767546997668059  1.0000
  O   O12       1.0  0.5190315937463127  0.45316865327490763  0.5876725853678193  1.0000
  O   O13       1.0  0.9810208364820312  0.45314825922258717  0.5876786142954129  1.0000
  O   O14       1.0  0.0190067388056789  0.04684167302399799  0.08767077554431067  1.0000
  O   O15       1.0  0.5190006692340106  0.9531559327103237  0.9123243122269356  1.0000
  O   O16       1.0  0.4809683041246657  0.5468271940885431  0.4123312003707226  1.0000
  F   F1        1.0  0.24999997636670201  0.7106310549041764  0.14808270974263846  1.0000
  F   F2        1.0  0.7500028212228784  0.7893678369647646  0.6480795583389563  1.0000
  F   F3        1.0  0.24999870018389464  0.21063422227417308  0.35191888935916876  1.0000
  F   F4        1.0  0.749998297995255  0.28936976196000336  0.8519184069772192  1.0000
  F   F5        1.0  0.24999593756025013  0.4244058181746481  0.14485694168274674  1.0000
  F   F6        1.0  0.749995978645046  0.07558943586629141  0.644852076706172  1.0000
  F   F7        1.0  0.24999742514319928  0.9244088962180327  0.35514370196523243  1.0000
  F   F8        1.0  0.7500007132772383  0.5755937563111643  0.855144842291679  1.0000
