data_image0
_chemical_formula_structural       Cu18H72C36I24N12
_chemical_formula_sum              "Cu18 H72 C36 I24 N12"
_cell_length_a       16.153353971452347
_cell_length_b       16.156909681748846
_cell_length_c       16.154276877411448
_cell_angle_alpha    104.6249137458147
_cell_angle_beta     104.65563969048259
_cell_angle_gamma    104.66847677677566

_space_group_name_H-M_alt    "P 1"
_space_group_IT_number       1

loop_
  _space_group_symop_operation_xyz
  'x, y, z'

loop_
  _atom_site_type_symbol
  _atom_site_label
  _atom_site_symmetry_multiplicity
  _atom_site_fract_x
  _atom_site_fract_y
  _atom_site_fract_z
  _atom_site_occupancy
  Cu  Cu1       1.0  0.4246068999729288  0.7791757388016334  0.020657156128173388  1.0000
  Cu  Cu2       1.0  0.37034682739751906  0.7275952346322753  0.14623459985629242  1.0000
  Cu  Cu3       1.0  0.20157776319014428  0.5268189558939084  0.8557853072650161  1.0000
  Cu  Cu4       1.0  0.020722784785974103  0.42468185491895827  0.7791162210071434  1.0000
  Cu  Cu5       1.0  0.14630008565418962  0.3702248773532941  0.7274212900450863  1.0000
  Cu  Cu6       1.0  0.8558408945678054  0.20142665889751757  0.5266978813271666  1.0000
  Cu  Cu7       1.0  0.7793964247977597  0.020868472663153226  0.424684213938214  1.0000
  Cu  Cu8       1.0  0.727569695156788  0.14610336429381476  0.3702825876332838  1.0000
  Cu  Cu9       1.0  0.5267776486439785  0.8561170724881888  0.20154652989197794  1.0000
  Cu  Cu10      1.0  0.5755040074794167  0.22086704707565022  0.9794215619242623  1.0000
  Cu  Cu11      1.0  0.6296683947411238  0.27238212129625333  0.8537925048254069  1.0000
  Cu  Cu12      1.0  0.798450401242597  0.4731931525853596  0.14421768543689234  1.0000
  Cu  Cu13      1.0  0.9791788971549307  0.5752533009857784  0.22080426036497153  1.0000
  Cu  Cu14      1.0  0.8536040124220746  0.6297691087756545  0.27248399847324817  1.0000
  Cu  Cu15      1.0  0.14401134838573884  0.798477326370232  0.4731673747509362  1.0000
  Cu  Cu16      1.0  0.22063962461040632  0.9791915812092635  0.575321439194056  1.0000
  Cu  Cu17      1.0  0.27248530217651273  0.8539520624896821  0.6297297054405107  1.0000
  Cu  Cu18      1.0  0.47334143454704497  0.1439999812792649  0.7985414276550247  1.0000
  H   H1        1.0  0.16983773801777602  0.7053856225147964  0.06602532910528675  1.0000
  H   H2        1.0  0.1862815948787002  0.5997621038341945  0.02970774846958332  1.0000
  H   H3        1.0  0.0627450811649695  0.5216753258363551  0.06455336484372509  1.0000
  H   H4        1.0  0.0290393078193816  0.6187216903005036  0.06805408240496998  1.0000
  H   H5        1.0  0.24835165462866368  0.5403349589126447  0.14549672408378458  1.0000
  H   H6        1.0  0.3112801716037268  0.6148771128846348  0.25896647811241985  1.0000
  H   H7        1.0  0.18116240332300043  0.5903170917390314  0.3037406590064934  1.0000
  H   H8        1.0  0.1275774403640852  0.49512786026439654  0.2011711540612069  1.0000
  H   H9        1.0  0.2914616193065953  0.7601623690525583  0.3052404815229153  1.0000
  H   H10       1.0  0.2522840021510433  0.8089929308516373  0.22281868688773437  1.0000
  H   H11       1.0  0.09897510605540559  0.7468892733632083  0.21137302415571912  1.0000
  H   H12       1.0  0.1452530697978744  0.728078558747185  0.31406581260024063  1.0000
  H   H13       1.0  0.066144794203737  0.16979860466221905  0.7054601656414405  1.0000
  H   H14       1.0  0.029547660504427094  0.186280826800889  0.5998513740580478  1.0000
  H   H15       1.0  0.0642695372126596  0.0628762318981302  0.521528253819362  1.0000
  H   H16       1.0  0.0678044716828197  0.0289876902326753  0.618529076911976  1.0000
  H   H17       1.0  0.14508998828601694  0.24812439352109542  0.5400664937495349  1.0000
  H   H18       1.0  0.2586840303974043  0.3110865783769299  0.6144178018770463  1.0000
  H   H19       1.0  0.3034796153035515  0.18105668602208877  0.5900661506734721  1.0000
  H   H20       1.0  0.2008701715913546  0.1274871633284036  0.49488860285152475  1.0000
  H   H21       1.0  0.30532960711901314  0.29119948565065795  0.7597602259533432  1.0000
  H   H22       1.0  0.22304651505251624  0.2522241875701922  0.8088574840855997  1.0000
  H   H23       1.0  0.21115359765063602  0.0988386774100434  0.7467189146731102  1.0000
  H   H24       1.0  0.31388993467859894  0.14497751235423098  0.727872568847218  1.0000
  H   H25       1.0  0.7053373044332503  0.06608646842559553  0.16997915529270813  1.0000
  H   H26       1.0  0.599694595421063  0.02966592866305012  0.1864304093868654  1.0000
  H   H27       1.0  0.521581786520052  0.06454459610947788  0.06285476090288712  1.0000
  H   H28       1.0  0.6187027830153725  0.06808715804142208  0.029228155216778007  1.0000
  H   H29       1.0  0.5402725784195397  0.1454102824913051  0.24854486623687685  1.0000
  H   H30       1.0  0.6148825053951582  0.25888288716597424  0.31138911709570755  1.0000
  H   H31       1.0  0.590286720582533  0.30360776077929325  0.18124696618878738  1.0000
  H   H32       1.0  0.4950912478742922  0.2009918541966798  0.12767330629892373  1.0000
  H   H33       1.0  0.7601398759781335  0.30524096562024283  0.29162121128986496  1.0000
  H   H34       1.0  0.8090580145127149  0.22289564026620204  0.2525331416646281  1.0000
  H   H35       1.0  0.7469731130183135  0.21133638309348873  0.09923918039928031  1.0000
  H   H36       1.0  0.7282141716472738  0.3140297519450357  0.14536922317363832  1.0000
  H   H37       1.0  0.8301312252925966  0.2945373326314424  0.9339471660645273  1.0000
  H   H38       1.0  0.8136542429515928  0.40014945297664184  0.9702766375987367  1.0000
  H   H39       1.0  0.9371607769989508  0.4782883805273597  0.9354290660632073  1.0000
  H   H40       1.0  0.9709121776313338  0.381269760792861  0.9319378304065394  1.0000
  H   H41       1.0  0.751585848406357  0.45958941006472986  0.8545104321687802  1.0000
  H   H42       1.0  0.6886485053237124  0.3850500792529131  0.7410336205613747  1.0000
  H   H43       1.0  0.8187450040197816  0.4096023498936176  0.6962318317195866  1.0000
  H   H44       1.0  0.8723267155408082  0.5048191872399812  0.7987881656223054  1.0000
  H   H45       1.0  0.7084952042391065  0.2397661864700424  0.6947297751684545  1.0000
  H   H46       1.0  0.747691798571978  0.19093610677938236  0.7771563847115247  1.0000
  H   H47       1.0  0.9009991807729846  0.2530827933939861  0.7886172624506926  1.0000
  H   H48       1.0  0.8547054887991621  0.2718819294274653  0.6859158627066934  1.0000
  H   H49       1.0  0.9338447847707058  0.8302187146225248  0.29453209135268577  1.0000
  H   H50       1.0  0.970397668803905  0.813716197866725  0.40012677396669727  1.0000
  H   H51       1.0  0.9357151992392972  0.9371438872987952  0.4784486396397585  1.0000
  H   H52       1.0  0.9321871301995371  0.971032188166525  0.3814599798392991  1.0000
  H   H53       1.0  0.8548326746610968  0.7518694781214065  0.4598743132074503  1.0000
  H   H54       1.0  0.7412475841669206  0.6889414270521924  0.385507038591406  1.0000
  H   H55       1.0  0.69648481314006  0.818987300283986  0.40988376015264555  1.0000
  H   H56       1.0  0.7990894877510897  0.8725298464348582  0.5050844121369736  1.0000
  H   H57       1.0  0.6946476537017716  0.7088594584289394  0.24017303349249627  1.0000
  H   H58       1.0  0.7769582904603068  0.7478472110139406  0.19112033728510616  1.0000
  H   H59       1.0  0.788854818500809  0.9012346801395803  0.2532831896334358  1.0000
  H   H60       1.0  0.6861176913338481  0.8550910683521165  0.2721213494077901  1.0000
  H   H61       1.0  0.2947395473343519  0.9339323843282514  0.8300951245199785  1.0000
  H   H62       1.0  0.40037974931772874  0.9703604942900482  0.8136587408297586  1.0000
  H   H63       1.0  0.4784921646188137  0.9354560387601224  0.9372155357006164  1.0000
  H   H64       1.0  0.3813656735829127  0.9319097298786615  0.9708361411754112  1.0000
  H   H65       1.0  0.45982396087312344  0.8546213719618263  0.751525687594132  1.0000
  H   H66       1.0  0.3852206620966853  0.7411457540036321  0.6886693316411083  1.0000
  H   H67       1.0  0.4098068430762324  0.6964151284337629  0.8188014936348011  1.0000
  H   H68       1.0  0.5049896078687368  0.7990263601966843  0.8723956158460168  1.0000
  H   H69       1.0  0.23992924840563745  0.6947840769966048  0.7084136858094539  1.0000
  H   H70       1.0  0.19101924246957216  0.7771231670703783  0.7475102741523116  1.0000
  H   H71       1.0  0.2530883203486667  0.7886612262385596  0.9007944606448673  1.0000
  H   H72       1.0  0.27184791125740293  0.6859712264676714  0.8546579827260958  1.0000
  C   C1        1.0  0.17304800319983124  0.6449329761461654  0.0840832055762419  1.0000
  C   C2        1.0  0.08438448061070862  0.5955681075357119  0.09683843521290919  1.0000
  C   C3        1.0  0.24871254499027626  0.5958637588232775  0.20138637861408876  1.0000
  C   C4        1.0  0.163317073987912  0.5687942744314044  0.22946855670244304  1.0000
  C   C5        1.0  0.2397306764718863  0.7465023154404803  0.23980523018116875  1.0000
  C   C6        1.0  0.14272050885329432  0.7135633016159203  0.24326470536662015  1.0000
  C   C7        1.0  0.0839990904058823  0.17300091397611078  0.6448951008395056  1.0000
  C   C8        1.0  0.09660888019145368  0.08436696087736807  0.5954298451449773  1.0000
  C   C9        1.0  0.20112691404764863  0.24855290128486723  0.595564834921646  1.0000
  C   C10       1.0  0.22920117317776348  0.1632043696930765  0.5685592002052005  1.0000
  C   C11       1.0  0.23986948504406766  0.23959721244269616  0.7462809174865298  1.0000
  C   C12       1.0  0.24311558668187422  0.14254851889496928  0.7133712455237385  1.0000
  C   C13       1.0  0.6448693969428021  0.08407762281304801  0.17318781562634203  1.0000
  C   C14       1.0  0.5955249826908968  0.09682285322742253  0.0845305070005082  1.0000
  C   C15       1.0  0.5958128741881481  0.20131717920408218  0.24886415842495077  1.0000
  C   C16       1.0  0.5687866195281686  0.2293572342830643  0.16344409098308438  1.0000
  C   C17       1.0  0.7465241838774332  0.2398393043760692  0.23993096229406063  1.0000
  C   C18       1.0  0.7136402283010455  0.24324634879428686  0.14291219696495014  1.0000
  C   C19       1.0  0.8269138029340439  0.3550005374090191  0.9159105577368508  1.0000
  C   C20       1.0  0.9155517414104962  0.4043895504095829  0.9031432040680089  1.0000
  C   C21       1.0  0.7512201355516481  0.40407359080143834  0.7985974117813298  1.0000
  C   C22       1.0  0.8365985593810377  0.4311387105584003  0.7705031268896576  1.0000
  C   C23       1.0  0.7602289058668247  0.2534316177239119  0.7601658004197702  1.0000
  C   C24       1.0  0.8572372902775953  0.2863937098794835  0.7567109700708271  1.0000
  C   C25       1.0  0.9159700270328486  0.8270096387535021  0.35508361072621153  1.0000
  C   C26       1.0  0.9033786327887299  0.9156502974023295  0.4045581711928818  1.0000
  C   C27       1.0  0.7988257880205721  0.7514648944495049  0.4043849857271624  1.0000
  C   C28       1.0  0.7707734882578164  0.8368296655840478  0.43141121171466773  1.0000
  C   C29       1.0  0.7601174074528388  0.7604567146454501  0.25367639023665595  1.0000
  C   C30       1.0  0.7568843768556305  0.8574996422405615  0.2866175860346302  1.0000
  C   C31       1.0  0.35521621355464833  0.9159421512547679  0.8268820495410837  1.0000
  C   C32       1.0  0.40454952260171234  0.903171531300856  0.9155321909852674  1.0000
  C   C33       1.0  0.4042613209012559  0.7987173531897154  0.751199720805822  1.0000
  C   C34       1.0  0.43130896190301354  0.7706574128168806  0.8366114974575892  1.0000
  C   C35       1.0  0.25355096473457905  0.7601800355482164  0.7601027775753267  1.0000
  C   C36       1.0  0.2864294144281346  0.7567603420896345  0.8571232441945255  1.0000
  I   I1        1.0  0.3566344408219209  0.6052346828304208  0.9941739713238179  1.0000
  I   I2        1.0  0.5056620669683981  0.7311686235222792  0.2770773687378211  1.0000
  I   I3        1.0  0.07490907460893227  0.601727572485849  0.8379595074554941  1.0000
  I   I4        1.0  0.3658330079838946  0.8866841697486548  0.13064248353519048  1.0000
  I   I5        1.0  0.9941292833684867  0.356489471156891  0.6050988716144516  1.0000
  I   I6        1.0  0.27734741252162814  0.5055029293058977  0.7311469316786372  1.0000
  I   I7        1.0  0.8382494416198439  0.07480070831113753  0.6017221648340795  1.0000
  I   I8        1.0  0.13062707350650976  0.36582918356221916  0.8865756813961525  1.0000
  I   I9        1.0  0.6052174784332892  0.9941036059976083  0.3567087592944063  1.0000
  I   I10       1.0  0.7309621149926002  0.27690607678677986  0.5053956651739001  1.0000
  I   I11       1.0  0.6017151390280446  0.8382478912228423  0.07490413128182646  1.0000
  I   I12       1.0  0.8869944073097142  0.13092960421585073  0.366065753748387  1.0000
  I   I13       1.0  0.6434622447431693  0.39480283043074843  0.005907352952448333  1.0000
  I   I14       1.0  0.49442403905541005  0.26886980360147567  0.722875894320744  1.0000
  I   I15       1.0  0.9250396320193842  0.3982483202305644  0.16203963376857194  1.0000
  I   I16       1.0  0.634288406308123  0.11332245320333105  0.8694373233212148  1.0000
  I   I17       1.0  0.005682565928751197  0.643426266950115  0.39477415227305096  1.0000
  I   I18       1.0  0.7226492050137097  0.49450244532699367  0.26881192297903306  1.0000
  I   I19       1.0  0.1617004575208227  0.9251875338978903  0.39824627601441875  1.0000
  I   I20       1.0  0.8693081238879898  0.6341524882444886  0.11341906948431561  1.0000
  I   I21       1.0  0.3948496130001189  0.0059847219949987675  0.6433388031440687  1.0000
  I   I22       1.0  0.2689549842661236  0.7230827100826713  0.4945326031348499  1.0000
  I   I23       1.0  0.39837763652490565  0.16180368885408566  0.9251797029198202  1.0000
  I   I24       1.0  0.11301887025700097  0.8691005204198274  0.6339175800613006  1.0000
  N   N1        1.0  0.2513443168776135  0.6749256927720636  0.1695248526291095  1.0000
  N   N2        1.0  0.09915862219433079  0.6140595518367957  0.19527181244733777  1.0000
  N   N3        1.0  0.1694737608992085  0.251228337034739  0.6747553860429676  1.0000
  N   N4        1.0  0.19503326843177143  0.09905776015686737  0.6138623805581531  1.0000
  N   N5        1.0  0.6748855748083571  0.16948143335289256  0.25146345558528793  1.0000
  N   N6        1.0  0.6141016751121526  0.19525275764087266  0.09935073167503816  1.0000
  N   N7        1.0  0.7486206920998414  0.3250023948195064  0.8304541234633194  1.0000
  N   N8        1.0  0.900776265106316  0.3859033993997016  0.8047064716854778  1.0000
  N   N9        1.0  0.8304837570944201  0.7487891730366556  0.3252042224938095  1.0000
  N   N10       1.0  0.8049543464885289  0.9009761097390833  0.38612048160875634  1.0000
  N   N11       1.0  0.32519316599670134  0.8305500086125545  0.7485822126429369  1.0000
  N   N12       1.0  0.3859667825458643  0.804751117093552  0.9007066253221937  1.0000
