data_image0
_chemical_formula_structural       Cu2H28Pd2C20N16
_chemical_formula_sum              "Cu2 H28 Pd2 C20 N16"
_cell_length_a       8.898649170242795
_cell_length_b       8.978667527712284
_cell_length_c       10.928506917572909
_cell_angle_alpha    73.99373284275633
_cell_angle_beta     72.57516135749283
_cell_angle_gamma    62.625420393960745

_space_group_name_H-M_alt    "P 1"
_space_group_IT_number       1

loop_
  _space_group_symop_operation_xyz
  'x, y, z'

loop_
  _atom_site_type_symbol
  _atom_site_label
  _atom_site_symmetry_multiplicity
  _atom_site_fract_x
  _atom_site_fract_y
  _atom_site_fract_z
  _atom_site_occupancy
  Cu  Cu1       1.0  0.8529430409664515  0.13629137106386932  0.7601467834172838  1.0000
  Cu  Cu2       1.0  0.14705795645166134  0.8637071546712247  0.23984939413536216  1.0000
  H   H1        1.0  0.7007055895325319  0.4650203568839332  0.7331100634712371  1.0000
  H   H2        1.0  0.2992954078855802  0.5349781688511542  0.2668861140814087  1.0000
  H   H3        1.0  0.6074453937557182  0.38692789265069655  0.8748796850301517  1.0000
  H   H4        1.0  0.392557303135753  0.6130693567665446  0.125117287867198  1.0000
  H   H5        1.0  0.8939397829776324  0.35584274367147384  0.5560463988483378  1.0000
  H   H6        1.0  0.10606118276017903  0.6441557623272232  0.4439525358023885  1.0000
  H   H7        1.0  0.07741461293825576  0.24643770669903384  0.6064829204297696  1.0000
  H   H8        1.0  0.9225869864910051  0.7535620653144478  0.39351650293367874  1.0000
  H   H9        1.0  0.01810612443198778  0.15671873610283174  0.5281748398852102  1.0000
  H   H10       1.0  0.9818971955908252  0.8432797727503923  0.4718235407575479  1.0000
  H   H11       1.0  0.6207231242917287  0.1191898593293388  0.9711260657979183  1.0000
  H   H12       1.0  0.37927786256628326  0.880808659826954  0.02887103078742114  1.0000
  H   H13       1.0  0.7063650385119615  0.943323195707791  0.9076766269753946  1.0000
  H   H14       1.0  0.2936365925976006  0.0566765960420881  0.0923200392899659  1.0000
  H   H15       1.0  0.8185674279780102  0.9716541592615117  0.9874578704451834  1.0000
  H   H16       1.0  0.1814331479097504  0.028348181399792304  0.012537570155480198  1.0000
  H   H17       1.0  0.21802023018098973  0.981687346117731  0.8033890501631051  1.0000
  H   H18       1.0  0.781984176743933  0.0183086335604514  0.19660779904625517  1.0000
  H   H19       1.0  0.4753169081262953  0.7070004381904553  0.7965436782235712  1.0000
  H   H20       1.0  0.5246856668444763  0.2929942608880864  0.20345479734245236  1.0000
  H   H21       1.0  0.18024665268308124  0.5155953375950801  0.6817766822058572  1.0000
  H   H22       1.0  0.8197518262889291  0.4844006086315887  0.3182252281542118  1.0000
  H   H23       1.0  0.9313269312050496  0.7970121291740496  0.7024926872252307  1.0000
  H   H24       1.0  0.06867218145841038  0.2029850830674107  0.29750971184755315  1.0000
  H   H25       1.0  0.45598149982566133  0.31492626432084597  0.7635425571774234  1.0000
  H   H26       1.0  0.5440199988031009  0.6850709705115322  0.2364565307893046  1.0000
  H   H27       1.0  0.5514465235733254  0.4076011892595801  0.617033127185465  1.0000
  H   H28       1.0  0.4485538084730364  0.5923960507243393  0.3829653187525538  1.0000
  Pd  Pd1       1.0  0.9999934268162679  0.5000105563433337  8.244551501857035e-06  1.0000
  Pd  Pd2       1.0  0.49999968034061476  0.9999999877879304  0.5000019119200091  1.0000
  C   C1        1.0  0.24198730283735867  0.3641551007250996  0.024798095599507547  1.0000
  C   C2        1.0  0.7580023321173145  0.6358560374336689  0.9752108002708367  1.0000
  C   C3        1.0  0.9999616154050415  0.32265223414122357  0.9253603261843467  1.0000
  C   C4        1.0  2.7759388544217924e-05  0.6773513187894411  0.07464388736506318  1.0000
  C   C5        1.0  0.6497225755444376  0.0377539855445193  0.5789043378589085  1.0000
  C   C6        1.0  0.3502796470161724  0.9622470459049455  0.42109649324994086  1.0000
  C   C7        1.0  0.3512515468427323  0.2472862871563777  0.4841177745719349  1.0000
  C   C8        1.0  0.6487470012494756  0.7527121765149972  0.5158872282829349  1.0000
  C   C9        1.0  0.21561713053249318  0.8739868593674345  0.7776398317791476  1.0000
  C   C10       1.0  0.7843843786563768  0.12601038204374504  0.22235833715487982  1.0000
  C   C11       1.0  0.35964307062853595  0.7192337453489941  0.772116844231661  1.0000
  C   C12       1.0  0.6403613362963867  0.2807622343291953  0.22788000497769906  1.0000
  C   C13       1.0  0.35184887008480087  0.5860988921071951  0.7355507774663935  1.0000
  C   C14       1.0  0.6481497308079086  0.41389960445817303  0.26444963022500184  1.0000
  C   C15       1.0  0.19465956342232713  0.6148978716070135  0.7100152737314005  1.0000
  C   C16       1.0  0.8053407475038413  0.3850993552193033  0.28998501027200524  1.0000
  C   C17       1.0  0.05576337735106311  0.7717354741921838  0.7200618192801329  1.0000
  C   C18       1.0  0.9442340358390453  0.2282630143671227  0.27993978444794004  1.0000
  C   C19       1.0  0.5020845910975353  0.4160638309460367  0.7210694717308499  1.0000
  C   C20       1.0  0.49791691809132754  0.5839334104651428  0.27892869720317737  1.0000
  N   N1        1.0  0.3856545523472975  0.2875173304796661  0.03878453940569667  1.0000
  N   N2        1.0  0.6143351190881817  0.7124913560223831  0.9612120736428906  1.0000
  N   N3        1.0  0.9950612101912669  0.21762157463216172  0.8840836239742914  1.0000
  N   N4        1.0  0.004936506183476218  0.7824149504799821  0.11592604480661349  1.0000
  N   N5        1.0  0.7395733935669712  0.06232071333206331  0.6231863495024116  1.0000
  N   N6        1.0  0.2604303374261007  0.9376739740161498  0.37681368712502206  1.0000
  N   N7        1.0  0.263078728507864  0.39365977449322287  0.47444482851211944  1.0000
  N   N8        1.0  0.7369215612980967  0.6063374391754905  0.5255572935566803  1.0000
  N   N9        1.0  0.0657637058435654  0.9010276619209064  0.7519018712878278  1.0000
  N   N10       1.0  0.9342389804878053  0.09896958091753309  0.24809602064222264  1.0000
  N   N11       1.0  0.6483633412424937  0.37826447866878254  0.7779793478002333  1.0000
  N   N12       1.0  0.3516376456155185  0.6217340404875102  0.2220177487851061  1.0000
  N   N13       1.0  0.9731070525025276  0.2360006965978059  0.5946875352419382  1.0000
  N   N14       1.0  0.02689509037778478  0.7639978108281512  0.4053111224048039  1.0000
  N   N15       1.0  0.7344498092416955  0.0334221999581175  0.9248625596625645  1.0000
  N   N16       1.0  0.2655518218678665  0.9665775917917545  0.07513410660279615  1.0000
