data_image0
_chemical_formula_structural       Cd4H16C8I4N20
_chemical_formula_sum              "Cd4 H16 C8 I4 N20"
_cell_length_a       7.1738773003316405
_cell_length_b       9.745788771720994
_cell_length_c       10.90035680314476
_cell_angle_alpha    89.99897194909659
_cell_angle_beta     109.86550722607507
_cell_angle_gamma    89.99852005461484

_space_group_name_H-M_alt    "P 1"
_space_group_IT_number       1

loop_
  _space_group_symop_operation_xyz
  'x, y, z'

loop_
  _atom_site_type_symbol
  _atom_site_label
  _atom_site_symmetry_multiplicity
  _atom_site_fract_x
  _atom_site_fract_y
  _atom_site_fract_z
  _atom_site_occupancy
  Cd  Cd1       1.0  0.2872788097221671  0.07843200764691718  0.8589542392482982  1.0000
  Cd  Cd2       1.0  0.7127352990400695  0.5784473772164489  0.641053573293334  1.0000
  Cd  Cd3       1.0  0.7127262178887507  0.9215609176359646  0.1410535248885552  1.0000
  Cd  Cd4       1.0  0.2872786031543697  0.42155580860359265  0.3589551917111322  1.0000
  H   H1        1.0  0.09547543751079247  0.3165557485577252  0.9440564089876702  1.0000
  H   H2        1.0  0.9045196532890927  0.8165580503539898  0.555928016798255  1.0000
  H   H3        1.0  0.9045264124064473  0.683441280850296  0.0559396583487342  1.0000
  H   H4        1.0  0.0954806613513526  0.18345026595073927  0.4440649657662021  1.0000
  H   H5        1.0  0.050616743818707684  0.35608343738849163  0.0815317411393721  1.0000
  H   H6        1.0  0.94938407489888  0.8560885254905132  0.418460055942333  1.0000
  H   H7        1.0  0.9493732854950989  0.6439187228641429  0.9184636052588857  1.0000
  H   H8        1.0  0.050617846378934  0.14391671269284248  0.5815396963756925  1.0000
  H   H9        1.0  0.7049439420638987  0.0339939769427886  0.42106031640530256  1.0000
  H   H10       1.0  0.2950195485279821  0.5339561441916132  0.07893448108700342  1.0000
  H   H11       1.0  0.2950269101942595  0.9660328100636659  0.5789354702027154  1.0000
  H   H12       1.0  0.7049705695730494  0.4660306249248761  0.9210654724376965  1.0000
  H   H13       1.0  0.5959388495625786  0.16972171909760184  0.4718373456871134  1.0000
  H   H14       1.0  0.4040764071431155  0.6697384917140995  0.028156343013861794  1.0000
  H   H15       1.0  0.40406591094237126  0.8302712058041661  0.5281565986893568  1.0000
  H   H16       1.0  0.5959314778162577  0.33026161591263997  0.9718465338152525  1.0000
  C   C1        1.0  0.30614193975697646  0.25405215506457063  0.11127043490201768  1.0000
  C   C2        1.0  0.6938764984574204  0.7540593618600365  0.3887412947723162  1.0000
  C   C3        1.0  0.693875945367914  0.7459387169445648  0.8887153375552045  1.0000
  C   C4        1.0  0.3061195304497842  0.24595613740261507  0.6112590181241728  1.0000
  C   C5        1.0  0.524290042327628  0.15812922912243008  0.2754022008756536  1.0000
  C   C6        1.0  0.4757266250746994  0.6581250615317272  0.22460828429409926  1.0000
  C   C7        1.0  0.4757271087722117  0.8418688265898878  0.7246219462346843  1.0000
  C   C8        1.0  0.5242682420409678  0.3418729948032463  0.7754082925023268  1.0000
  I   I1        1.0  0.8827796972849381  0.07581201178150108  0.7648380994160461  1.0000
  I   I2        1.0  0.11721784629418859  0.5758127960896783  0.7351571595234461  1.0000
  I   I3        1.0  0.11721472465411147  0.9241860439182902  0.23515544444640568  1.0000
  I   I4        1.0  0.8827839679923812  0.4241832071833186  0.2648370652142162  1.0000
  N   N1        1.0  0.3974871776708255  0.1616402223366009  0.061453589778437824  1.0000
  N   N2        1.0  0.6024981951284971  0.6616304327324157  0.43853517939817993  1.0000
  N   N3        1.0  0.6024761038218358  0.838367069074117  0.9385323035362986  1.0000
  N   N4        1.0  0.39749467339590433  0.3383583881544254  0.5614543590945118  1.0000
  N   N5        1.0  0.5398572291475857  0.09894005240042959  0.16839794472107167  1.0000
  N   N6        1.0  0.46011887244863897  0.5989349037269491  0.33160191083443635  1.0000
  N   N7        1.0  0.4601153365903271  0.9010836566370912  0.8316101395446651  1.0000
  N   N8        1.0  0.5398607112087886  0.40105699590807825  0.6683875076852956  1.0000
  N   N9        1.0  0.15869999904344917  0.3424959322178083  0.040222638873885296  1.0000
  N   N10       1.0  0.8413151843217577  0.8425083984837302  0.4597723936873593  1.0000
  N   N11       1.0  0.841319546123451  0.6574908356619601  0.9597726673249554  1.0000
  N   N12       1.0  0.15869270065415714  0.15749273522722257  0.5402304831057805  1.0000
  N   N13       1.0  0.3821000712087965  0.25785468429400277  0.24341115201367813  1.0000
  N   N14       1.0  0.6179424338057018  0.7578693509856719  0.2566174146609725  1.0000
  N   N15       1.0  0.6179377035189475  0.7421279793249979  0.7566110323525095  1.0000
  N   N16       1.0  0.38208914599673693  0.2421338341228321  0.7433896675288096  1.0000
  N   N17       1.0  0.6377700340439317  0.12807550914078542  0.39985968843808445  1.0000
  N   N18       1.0  0.36220543598185617  0.6280841084111585  0.10013319652075128  1.0000
  N   N19       1.0  0.36223049406626723  0.8719194683740734  0.600144350402374  1.0000
  N   N20       1.0  0.6377862534732088  0.3719201042173808  0.8998716834032622  1.0000
