data_image0
_chemical_formula_structural       Cd6H36C48N24O24
_chemical_formula_sum              "Cd6 H36 C48 N24 O24"
_cell_length_a       12.80201275055395
_cell_length_b       12.797840178324806
_cell_length_c       12.7336
_cell_angle_alpha    108.30534615957883
_cell_angle_beta     108.29916834679592
_cell_angle_gamma    108.50099560148115

_space_group_name_H-M_alt    "P 1"
_space_group_IT_number       1

loop_
  _space_group_symop_operation_xyz
  'x, y, z'

loop_
  _atom_site_type_symbol
  _atom_site_label
  _atom_site_symmetry_multiplicity
  _atom_site_fract_x
  _atom_site_fract_y
  _atom_site_fract_z
  _atom_site_occupancy
  Cd  Cd1       1.0  0.5432245584032459  0.8105304472839308  0.3163471537432443  1.0000
  Cd  Cd2       1.0  0.3178353324634742  0.5436686199739498  0.811167773886055  1.0000
  Cd  Cd3       1.0  0.8119172384059966  0.3181071576447749  0.5443158047500629  1.0000
  Cd  Cd4       1.0  0.8182789040702688  0.3119240238682508  0.04431797377188217  1.0000
  Cd  Cd5       1.0  0.3106258832635405  0.0433895498667383  0.8164215870121295  1.0000
  Cd  Cd6       1.0  0.04350176170349581  0.8175902594428734  0.31107072496600097  1.0000
  H   H1        1.0  0.5713932825568547  0.4086545828696515  0.11802477052097518  1.0000
  H   H2        1.0  0.11763062882991451  0.571066442902989  0.4080463115660677  1.0000
  H   H3        1.0  0.4086862572576352  0.11797586231965342  0.5713874680142297  1.0000
  H   H4        1.0  0.617892816783403  0.9085458735442201  0.07129330084615763  1.0000
  H   H5        1.0  0.908799156016329  0.0714200655543067  0.6181047774421415  1.0000
  H   H6        1.0  0.07113484763342372  0.6176296612842762  0.9080393275036724  1.0000
  H   H7        1.0  0.6706917285585021  0.9739562855944968  0.8070372657473752  1.0000
  H   H8        1.0  0.8062931694884413  0.6705309396747481  0.9739737104513962  1.0000
  H   H9        1.0  0.973835075372932  0.8064290767773982  0.6704849214011119  1.0000
  H   H10       1.0  0.3063487291047409  0.47385718967372975  0.17047761219759386  1.0000
  H   H11       1.0  0.47392580310540217  0.170669335463927  0.3070442129949598  1.0000
  H   H12       1.0  0.1705586694946959  0.3063680166383023  0.4739802533129732  1.0000
  H   H13       1.0  0.8535106980024879  0.9161502467724532  0.3707126482313398  1.0000
  H   H14       1.0  0.37126398237627006  0.853907009322775  0.9172219235897783  1.0000
  H   H15       1.0  0.9159955435066893  0.3706401383444273  0.8534921808998064  1.0000
  H   H16       1.0  0.8707141952790922  0.4161476318588484  0.35357848833234584  1.0000
  H   H17       1.0  0.4159876800282448  0.3535008440426637  0.8706308131499296  1.0000
  H   H18       1.0  0.3538353758608892  0.8712708075065976  0.41722816684287506  1.0000
  H   H19       1.0  0.4487527632558539  0.6468791773893088  0.4609149987205257  1.0000
  H   H20       1.0  0.46119749019013784  0.44849196180910417  0.6464425161767764  1.0000
  H   H21       1.0  0.6469785114258428  0.46119962369520096  0.448803747300765  1.0000
  H   H22       1.0  0.9612713861623234  0.1469220198733083  0.9487708722569577  1.0000
  H   H23       1.0  0.14694551632052819  0.9487942244661197  0.960935677007022  1.0000
  H   H24       1.0  0.9484876793695989  0.9611094684096101  0.14644000139239935  1.0000
  H   H25       1.0  0.5251762227436673  0.7456265605212663  0.7173373409481698  1.0000
  H   H26       1.0  0.7164662960940619  0.5248668837025576  0.7451766943244776  1.0000
  H   H27       1.0  0.7457471015813937  0.7166293793580536  0.5252276296843377  1.0000
  H   H28       1.0  0.2165143384876629  0.24563136722359497  0.025154860424628087  1.0000
  H   H29       1.0  0.24565827330283704  0.025199169208057995  0.217370379999501  1.0000
  H   H30       1.0  0.024915128267608097  0.2165469820731403  0.24525673798290626  1.0000
  H   H31       1.0  0.6939922451161992  0.029472164583104598  0.633703577871657  1.0000
  H   H32       1.0  0.6342951811794679  0.6945259516972229  0.030253419617757557  1.0000
  H   H33       1.0  0.029561639403894363  0.6341483229534148  0.6940465659815728  1.0000
  H   H34       1.0  0.134220520698527  0.5296677415110409  0.19411698493425425  1.0000
  H   H35       1.0  0.5294313393844022  0.1939630047804641  0.13368538721469037  1.0000
  H   H36       1.0  0.1944890819449157  0.1342505383649026  0.5301924278658773  1.0000
  C   C1        1.0  0.80179038151649  0.8156383744517512  0.3220299297065238  1.0000
  C   C2        1.0  0.3225116380336956  0.8020920699649068  0.8163426647546002  1.0000
  C   C3        1.0  0.815522303047608  0.32206287893856  0.8018447851761578  1.0000
  C   C4        1.0  0.8221238495799383  0.315629265624203  0.301898581233651  1.0000
  C   C5        1.0  0.3155234351140308  0.3017860964999315  0.8219719547955576  1.0000
  C   C6        1.0  0.3020432769035182  0.8225117185103059  0.3163516329090398  1.0000
  C   C7        1.0  0.7552694372577947  0.6220677876138936  0.2213041275262313  1.0000
  C   C8        1.0  0.22128690196389306  0.755178180230658  0.6220188327983321  1.0000
  C   C9        1.0  0.6220484186647681  0.2211817812250558  0.7555156074510734  1.0000
  C   C10       1.0  0.7212007245656907  0.1220698112102525  0.2555071363568048  1.0000
  C   C11       1.0  0.12205783575141281  0.2552998773839761  0.7212729779522532  1.0000
  C   C12       1.0  0.255149557559335  0.7212873710597663  0.12200130712157178  1.0000
  C   C13       1.0  0.7671492879656158  0.5124087736523038  0.15536761973039154  1.0000
  C   C14       1.0  0.155139457535725  0.7669933928004724  0.5120592289505339  1.0000
  C   C15       1.0  0.5125708059215769  0.1553205060066745  0.7678495110481691  1.0000
  C   C16       1.0  0.6553058210988213  0.0125388201235523  0.2678065070543454  1.0000
  C   C17       1.0  0.012493384141578188  0.2672440405306773  0.6553897627519447  1.0000
  C   C18       1.0  0.2669344560030352  0.6551227372900071  0.011996865757978996  1.0000
  C   C19       1.0  0.6533096041142558  0.6290162755338002  0.2366451380970247  1.0000
  C   C20       1.0  0.23683751365523875  0.6533860791610309  0.6291344360209974  1.0000
  C   C21       1.0  0.628920623288785  0.2366419349213444  0.6530886607806536  1.0000
  C   C22       1.0  0.7366737732289651  0.1289561430966941  0.15309421694069414  1.0000
  C   C23       1.0  0.1289408990251033  0.1532739954123699  0.7366007585341305  1.0000
  C   C24       1.0  0.15340913829369643  0.7368412226572474  0.1291680161630353  1.0000
  C   C25       1.0  0.5300127322501638  0.5353471331059154  0.20251592911908742  1.0000
  C   C26       1.0  0.2025221605478862  0.5300833520034445  0.5352391375121996  1.0000
  C   C27       1.0  0.535329463678096  0.2026722710811413  0.5295282963943533  1.0000
  C   C28       1.0  0.7026579169858351  0.0352934945827528  0.02952497627797611  1.0000
  C   C29       1.0  0.035335965832416605  0.029938798685066097  0.7025323370601484  1.0000
  C   C30       1.0  0.030157897378309366  0.7025171766561087  0.03529329395541938  1.0000
  C   C31       1.0  0.510030121857085  0.741040001872932  0.5346642092943198  1.0000
  C   C32       1.0  0.5348014228019267  0.5099475802675926  0.7408706303032203  1.0000
  C   C33       1.0  0.7411498513616763  0.5348192706724859  0.5100767393505805  1.0000
  C   C34       1.0  0.03482032053585731  0.2411329402644995  0.010065528446745013  1.0000
  C   C35       1.0  0.24107520978595431  0.010055361891034  0.03468965175279241  1.0000
  C   C36       1.0  0.009929038271088998  0.0347721260632667  0.24085403714665427  1.0000
  C   C37       1.0  0.5469700524366701  0.7880364570844733  0.6604940810457619  1.0000
  C   C38       1.0  0.6600317815101633  0.5467856986669872  0.7877901036473105  1.0000
  C   C39       1.0  0.7880937177680138  0.6601258341327423  0.5470042983774162  1.0000
  C   C40       1.0  0.1600860000189641  0.2880626009326193  0.0469819801385611  1.0000
  C   C41       1.0  0.2880530332318259  0.04698810589361099  0.16051608548579568  1.0000
  C   C42       1.0  0.0467923526750411  0.160054569271729  0.2878057585233904  1.0000
  C   C43       1.0  0.6362186099319231  0.9384058175599677  0.6196555403927276  1.0000
  C   C44       1.0  0.6199867779410226  0.6365705528544652  0.9388418301199124  1.0000
  C   C45       1.0  0.9385164000672648  0.6199767473239817  0.6363051420678191  1.0000
  C   C46       1.0  0.11998321537507912  0.4385664781969467  0.1363364207878917  1.0000
  C   C47       1.0  0.43839118563357005  0.1362154111839047  0.11966726752034157  1.0000
  C   C48       1.0  0.13655212821381474  0.1199778432183436  0.4388081418797397  1.0000
  N   N1        1.0  0.6852904969881735  0.751975752954351  0.2998968469523715  1.0000
  N   N2        1.0  0.300512375613593  0.6856682530778286  0.7525963766477871  1.0000
  N   N3        1.0  0.7518169945086726  0.3000364505430611  0.6850189248711088  1.0000
  N   N4        1.0  0.8000988846597253  0.251903560391348  0.1850612470964279  1.0000
  N   N5        1.0  0.2518499829817387  0.1852528107777971  0.7998414013775555  1.0000
  N   N6        1.0  0.1856566159187807  0.8005010610486707  0.25263310971552505  1.0000
  N   N7        1.0  0.8479979583890511  0.7412431686091735  0.27682261695010607  1.0000
  N   N8        1.0  0.2769398455798679  0.8480133185677516  0.7414961688389781  1.0000
  N   N9        1.0  0.7411722723830394  0.2767010346368863  0.8483462502427982  1.0000
  N   N10       1.0  0.7767406714661006  0.24123220437764556  0.3483690421289793  1.0000
  N   N11       1.0  0.24119345096401903  0.3480311130979672  0.7767727036734654  1.0000
  N   N12       1.0  0.34795256113194034  0.7769457797703936  0.2414812190000504  1.0000
  N   N13       1.0  0.5664237380964395  0.8360765770369837  0.5102400549881736  1.0000
  N   N14       1.0  0.510832735760232  0.5666431598052455  0.8363085013902775  1.0000
  N   N15       1.0  0.8362416438942334  0.510800138398217  0.5665156687338778  1.0000
  N   N16       1.0  0.010831939966763605  0.336274345753651  0.06652747021455237  1.0000
  N   N17       1.0  0.3360912155589304  0.0664429443673527  0.010261026366393438  1.0000
  N   N18       1.0  0.06662087059511633  0.010791029570668798  0.33627345762537425  1.0000
  N   N19       1.0  0.6262299291119859  0.912368933453152  0.7120412849008487  1.0000
  N   N20       1.0  0.7117472888664339  0.6263546985188171  0.9125408279129488  1.0000
  N   N21       1.0  0.9124411018088808  0.7118192445296572  0.6262958074282352  1.0000
  N   N22       1.0  0.211782954680821  0.412456305632773  0.1263096482492685  1.0000
  N   N23       1.0  0.412357258419668  0.1262249884323126  0.21205182490215438  1.0000
  N   N24       1.0  0.12635451462417543  0.211784160046335  0.41254306347143904  1.0000
  O   O1        1.0  0.46025282452021093  0.5697574553923133  0.23812645997321608  1.0000
  O   O2        1.0  0.23825487137875004  0.46042220942592843  0.5697441217128016  1.0000
  O   O3        1.0  0.5699473000549419  0.2386559759459246  0.4596813607682648  1.0000
  O   O4        1.0  0.7386378776468804  0.0698763694396547  0.9596595399969345  1.0000
  O   O5        1.0  0.06976834029188693  0.9602077420734076  0.7381839881617296  1.0000
  O   O6        1.0  0.9604994100393469  0.7382095830954114  0.06980516285541677  1.0000
  O   O7        1.0  0.49593159695021427  0.41795293993523325  0.13619736878798958  1.0000
  O   O8        1.0  0.1358216886720598  0.4957954863799898  0.4173959053633709  1.0000
  O   O9        1.0  0.4179876812990885  0.1362534469655756  0.495478491179746  1.0000
  O   O10       1.0  0.63620032464258  0.91790638664326  0.9954383378077977  1.0000
  O   O11       1.0  0.9179848978466013  0.9958667512410031  0.6362261749037896  1.0000
  O   O12       1.0  0.9959041433134814  0.6358376682808  0.9174438088576763  1.0000
  O   O13       1.0  0.6716324853266828  0.405238784135193  0.10217751484316302  1.0000
  O   O14       1.0  0.10163127355345132  0.6714558585607477  0.4045454026884627  1.0000
  O   O15       1.0  0.40535583987603735  0.10211957987279159  0.6719755128738285  1.0000
  O   O16       1.0  0.6020646857580588  0.905273868618515  0.17193615727612874  1.0000
  O   O17       1.0  0.905377756374911  0.1716721813172484  0.6022551179949076  1.0000
  O   O18       1.0  0.1714460289381208  0.6016063924788568  0.9044747611027829  1.0000
  O   O19       1.0  0.8678967542780498  0.525000472789408  0.1516061903259143  1.0000
  O   O20       1.0  0.15152876170799348  0.8678179006924651  0.5248354001202883  1.0000
  O   O21       1.0  0.5249978860329847  0.1514779643559052  0.8689400163907519  1.0000
  O   O22       1.0  0.651471961772181  0.024988580855882996  0.3689061272747266  1.0000
  O   O23       1.0  0.0250440476007157  0.3679998984752615  0.6516046782406589  1.0000
  O   O24       1.0  0.3677300677046773  0.6515130488392273  0.02479329037287675  1.0000
