data_image0
_chemical_formula_structural       Co8H54C76N18O30
_chemical_formula_sum              "Co8 H54 C76 N18 O30"
_cell_length_a       12.204403500712726
_cell_length_b       15.503523380751584
_cell_length_c       16.021556510361325
_cell_angle_alpha    74.22691419619234
_cell_angle_beta     66.5228113243085
_cell_angle_gamma    67.42808629456393

_space_group_name_H-M_alt    "P 1"
_space_group_IT_number       1

loop_
  _space_group_symop_operation_xyz
  'x, y, z'

loop_
  _atom_site_type_symbol
  _atom_site_label
  _atom_site_symmetry_multiplicity
  _atom_site_fract_x
  _atom_site_fract_y
  _atom_site_fract_z
  _atom_site_occupancy
  Co  Co1       1.0  0.22740351736323566  0.6795753188127095  0.03102648247294571  1.0000
  Co  Co2       1.0  0.7727432270156952  0.32034634462009154  0.96885033326609  1.0000
  Co  Co3       1.0  0.038352627521632515  0.6339646342171934  0.2608126509051516  1.0000
  Co  Co4       1.0  0.9617422885733335  0.36593557802250837  0.7392391845036884  1.0000
  Co  Co5       1.0  0.43353359782640416  0.6618897575598552  0.8069617541802216  1.0000
  Co  Co6       1.0  0.5664651314856002  0.33817816124800976  0.19305436943177057  1.0000
  Co  Co7       1.0  0.05604114133244308  0.028808959715846103  0.2144876148549741  1.0000
  Co  Co8       1.0  0.9440046212338659  0.9711225967600827  0.7854668072718737  1.0000
  H   H1        1.0  0.6481195235066649  0.8367448073070635  0.8377017572415184  1.0000
  H   H2        1.0  0.3519492655677681  0.16315834336229074  0.16226038778310678  1.0000
  H   H3        1.0  0.642800419018478  0.9196429200612432  0.07608780579667483  1.0000
  H   H4        1.0  0.35702282163715177  0.0804957919831182  0.9238194218503751  1.0000
  H   H5        1.0  0.40467070568089974  0.7593906478493297  0.10459188601559076  1.0000
  H   H6        1.0  0.59531295424852  0.24059251628664677  0.8953818971452846  1.0000
  H   H7        1.0  0.3936542491966719  0.741511052149555  0.26383276948847356  1.0000
  H   H8        1.0  0.6064673086684208  0.2585212687013083  0.7361218862697001  1.0000
  H   H9        1.0  0.2949900359959301  0.8434120315940918  0.21497402499722534  1.0000
  H   H10       1.0  0.7049714942662533  0.15652964742222517  0.7849767912950866  1.0000
  H   H11       1.0  0.41928252225758184  0.9524285459413521  0.2950609656422429  1.0000
  H   H12       1.0  0.5806142343601836  0.047696265154030505  0.7048277945705337  1.0000
  H   H13       1.0  0.3198003244051009  0.0190465510748226  0.44240354932419734  1.0000
  H   H14       1.0  0.6801712650067627  0.9809870191599829  0.5575337620620006  1.0000
  H   H15       1.0  0.07315621022605975  0.84776235470342  0.5456927302260651  1.0000
  H   H16       1.0  0.9269303998166619  0.15222931267956602  0.4542400800021937  1.0000
  H   H17       1.0  0.1791493995325766  0.7764726939586097  0.40117706154840255  1.0000
  H   H18       1.0  0.8208524563344143  0.22357910623701124  0.5987347947521825  1.0000
  H   H19       1.0  0.1976217026513041  0.4755344487411009  0.7999582228068719  1.0000
  H   H20       1.0  0.8022735718835107  0.5244805069842188  0.2001719439702326  1.0000
  H   H21       1.0  0.02108962116792412  0.3209141919138006  0.05291133985078739  1.0000
  H   H22       1.0  0.9786736513319809  0.6791798516700214  0.9472347007768747  1.0000
  H   H23       1.0  0.2636402577767569  0.46514815136377063  0.04824134318874225  1.0000
  H   H24       1.0  0.7363077554019666  0.5348541219489463  0.951850036132072  1.0000
  H   H25       1.0  0.06975768588198152  0.24281783491653638  0.1956878007346958  1.0000
  H   H26       1.0  0.9299900536354286  0.7571642087084387  0.8044097446014076  1.0000
  H   H27       1.0  0.9501469551997915  0.3561012942530369  0.2035746380404077  1.0000
  H   H28       1.0  0.04963135598239182  0.6439277130082176  0.7965482259602226  1.0000
  H   H29       1.0  0.17046550315050268  0.17035434902999924  0.3126060196544742  1.0000
  H   H30       1.0  0.8293788192291273  0.8295914667712766  0.6874973508640493  1.0000
  H   H31       1.0  0.1887445903345792  0.17612333637387678  0.46217640240962515  1.0000
  H   H32       1.0  0.8114054936980466  0.8239373101896562  0.5377845002492521  1.0000
  H   H33       1.0  0.9310043608950379  0.45766319478813244  0.4680124099473417  1.0000
  H   H34       1.0  0.06915657760735174  0.5424056308724944  0.5319563152613399  1.0000
  H   H35       1.0  0.9158464347671753  0.45455101229295997  0.3182240297205611  1.0000
  H   H36       1.0  0.08399811479520747  0.5454113879498265  0.6818963479070136  1.0000
  H   H37       1.0  0.18598073885682  0.9058255417640669  0.047732442024816524  1.0000
  H   H38       1.0  0.8140330634263009  0.09411191509462212  0.9523286713746444  1.0000
  H   H39       1.0  0.9930914524959603  0.8296584062824695  0.3262120411863591  1.0000
  H   H40       1.0  0.00689987616444646  0.1702476223524557  0.6738087109605502  1.0000
  H   H41       1.0  0.24481488731656498  0.4315300535250728  0.3200813561977115  1.0000
  H   H42       1.0  0.7550676185349873  0.568424379529951  0.6797725050700762  1.0000
  H   H43       1.0  0.48189696689477324  0.5189960325126036  0.06272415666148844  1.0000
  H   H44       1.0  0.5181197999511794  0.4809359321943347  0.93717389962724  1.0000
  H   H45       1.0  0.2395793191831075  0.8354172040349682  0.7030068509841952  1.0000
  H   H46       1.0  0.760453042560883  0.16470957340133197  0.2967797650433964  1.0000
  H   H47       1.0  0.9943416247448835  0.8630345046249347  0.9745547662189935  1.0000
  H   H48       1.0  0.005786692861775598  0.13676858178232013  0.025295414159785392  1.0000
  H   H49       1.0  0.1502719492959628  0.05050804058318191  0.6591668322198957  1.0000
  H   H50       1.0  0.8497572707650675  0.9493854082317769  0.34087072492626896  1.0000
  H   H51       1.0  0.5557830940813416  0.7681359768816663  0.6919739253162546  1.0000
  H   H52       1.0  0.4442542861809358  0.23217929553218403  0.3089288379249169  1.0000
  H   H53       1.0  0.5738473583991849  0.7092315278942325  0.6194281630778421  1.0000
  H   H54       1.0  0.42638977977426146  0.29114369706172744  0.3813331828742221  1.0000
  C   C1        1.0  0.46950675707061157  0.744638684171342  0.9314469974848834  1.0000
  C   C2        1.0  0.5304834996253263  0.2554407462945534  0.06850385654305303  1.0000
  C   C3        1.0  0.5197717451707787  0.7953363286236765  0.9679893305352891  1.0000
  C   C4        1.0  0.4801777185025742  0.20469308221601068  0.032013678537993036  1.0000
  C   C5        1.0  0.6104900878858146  0.8388601349017365  0.9113734695777822  1.0000
  C   C6        1.0  0.38951886937343966  0.16110244738352014  0.08859791080683982  1.0000
  C   C7        1.0  0.6553628727071297  0.8824010951658539  0.9514835583717556  1.0000
  C   C8        1.0  0.34462541682812997  0.1175729695319561  0.048485501072335055  1.0000
  C   C9        1.0  0.6075306966588769  0.8849960587619848  0.04614852230735511  1.0000
  C   C10       1.0  0.3923167317391005  0.11510195348108712  0.9537928773742195  1.0000
  C   C11       1.0  0.5146978243775635  0.8430084550012541  0.10198757219299633  1.0000
  C   C12       1.0  0.48521213366476706  0.15705356107315546  0.8979710081671115  1.0000
  C   C13       1.0  0.472729305965288  0.7965239700486039  0.06331367060234777  1.0000
  C   C14       1.0  0.5272161585255759  0.20348035732666148  0.9366818255680512  1.0000
  C   C15       1.0  0.7583383033967123  0.9235485897306148  0.8960262094534027  1.0000
  C   C16       1.0  0.24173317407867498  0.07631959909965501  0.10392764904045751  1.0000
  C   C17       1.0  0.3650854242312818  0.8194243809960184  0.25033375632756366  1.0000
  C   C18       1.0  0.6348577028305016  0.18062791179917073  0.7496416998916687  1.0000
  C   C19       1.0  0.30606309748139887  0.8604447008703673  0.338721685719605  1.0000
  C   C20       1.0  0.6938632637128562  0.13963194815948302  0.6612295862437209  1.0000
  C   C21       1.0  0.34462187946316203  0.9292051346648122  0.3505513597650348  1.0000
  C   C22       1.0  0.6553351938746702  0.07087603753114995  0.6493515355317925  1.0000
  C   C23       1.0  0.2883044049092476  0.9668613343502843  0.43247339943382457  1.0000
  C   C24       1.0  0.7116949153829567  0.03318142744000601  0.5674352324918885  1.0000
  C   C25       1.0  0.18989423582291204  0.9380767092191961  0.5029261658114808  1.0000
  C   C26       1.0  0.8101584520987899  0.06191758433282501  0.4969967624799664  1.0000
  C   C27       1.0  0.1492520428223046  0.8702271948453416  0.49075582123763434  1.0000
  C   C28       1.0  0.8507986164856619  0.1297739220559677  0.5091822354968728  1.0000
  C   C29       1.0  0.20844323103725054  0.831031274049842  0.4095427818271417  1.0000
  C   C30       1.0  0.7915345571206345  0.16900003704338226  0.5904007349964147  1.0000
  C   C31       1.0  0.13079476427612483  0.9766323624111595  0.5898231929978053  1.0000
  C   C32       1.0  0.8692638969524608  0.023306551076530006  0.41014613778408215  1.0000
  C   C33       1.0  0.30941385348366884  0.5461425991605113  0.8733525392684384  1.0000
  C   C34       1.0  0.6905187584485405  0.453864050602661  0.12658691144132203  1.0000
  C   C35       1.0  0.2382624699764549  0.47761387354010765  0.9191253812804233  1.0000
  C   C36       1.0  0.7616107778458671  0.5224357588579025  0.0809989408246209  1.0000
  C   C37       1.0  0.18297183595428373  0.4507626672848417  0.8727759311234637  1.0000
  C   C38       1.0  0.8169071583190044  0.5492614644038628  0.12736304220960185  1.0000
  C   C39       1.0  0.10456503331457156  0.3950044156762332  0.9223701997156226  1.0000
  C   C40       1.0  0.8953452446648669  0.6049958245362606  0.07774730936764467  1.0000
  C   C41       1.0  0.08473876881340203  0.3627494115732476  0.016531619275625065  1.0000
  C   C42       1.0  0.9150695850163328  0.6373106285315374  0.9836032281977011  1.0000
  C   C43       1.0  0.145438240479514  0.3862779158711405  0.060724401553194696  1.0000
  C   C44       1.0  0.8544018167561378  0.6137678688741559  0.9394014272248157  1.0000
  C   C45       1.0  0.22129420672029457  0.4441595866865882  0.01199335231139288  1.0000
  C   C46       1.0  0.7785741582601345  0.55588446332537  0.9881331995544755  1.0000
  C   C47       1.0  0.033623697604269906  0.37336078127707856  0.8778486570137929  1.0000
  C   C48       1.0  0.9665344730983205  0.6265235615084069  0.12213271071574633  1.0000
  C   C49       1.0  0.04235803785297778  0.3143851735842988  0.21182432409192836  1.0000
  C   C50       1.0  0.9574212308891389  0.6855955728997006  0.7882903514484383  1.0000
  C   C51       1.0  0.04194237940515678  0.31210608567747045  0.30625037305652114  1.0000
  C   C52       1.0  0.9578674355203276  0.6878496734840809  0.693872046704648  1.0000
  C   C53       1.0  0.11888949227236618  0.23339854033234536  0.3466881195591256  1.0000
  C   C54       1.0  0.8810145394735613  0.7665744336212371  0.6533787736716334  1.0000
  C   C55       1.0  0.12917953017063866  0.2361992054036436  0.42946111562069694  1.0000
  C   C56       1.0  0.870879598295261  0.763821364197625  0.5705332175333027  1.0000
  C   C57       1.0  0.06153997249281674  0.31691590878560316  0.4736359541343588  1.0000
  C   C58       1.0  0.9385533806797353  0.6831129026064817  0.5263423558095327  1.0000
  C   C59       1.0  0.9828474248247616  0.3949761700100325  0.43388359578599284  1.0000
  C   C60       1.0  0.017207039710939374  0.6050553757574024  0.5661318558476509  1.0000
  C   C61       1.0  0.9740169639136909  0.3926040714649092  0.35049154979959946  1.0000
  C   C62       1.0  0.025888116290865026  0.6073812781759431  0.649591909766002  1.0000
  C   C63       1.0  0.07220513799946103  0.3159722390496  0.5641231541994571  1.0000
  C   C64       1.0  0.9279431601492405  0.6839935299959733  0.43585764567222185  1.0000
  C   C65       1.0  0.14098784460998806  0.8671218651121891  0.11129490373237155  1.0000
  C   C66       1.0  0.8590325469026041  0.13277801292075964  0.8887411836064987  1.0000
  C   C67       1.0  0.04296188475792931  0.8299313985764484  0.253033663311399  1.0000
  C   C68       1.0  0.9570439682976328  0.16996954858299063  0.7469877697175705  1.0000
  C   C69       1.0  0.2812430568279254  0.46918525056496213  0.2527260173081487  1.0000
  C   C70       1.0  0.7187132009931219  0.5307798302722163  0.7471587209129282  1.0000
  C   C71       1.0  0.40001292284981094  0.5138735928876486  0.12185279618386603  1.0000
  C   C72       1.0  0.599997670192515  0.4861035892170308  0.8780751178027515  1.0000
  C   C73       1.0  0.20007580312299217  0.8272417558714693  0.7773627814628269  1.0000
  C   C74       1.0  0.8000394312183374  0.17278372539737322  0.22243255099222373  1.0000
  C   C75       1.0  0.07675640964966866  0.8409883884984594  0.9156532204276858  1.0000
  C   C76       1.0  0.9233583494099946  0.15891688537129772  0.08416795430671443  1.0000
  N   N1        1.0  0.13682492659582127  0.7806944730279498  0.11991330442351966  1.0000
  N   N2        1.0  0.8632449871203959  0.21918474985112374  0.8801056766099722  1.0000
  N   N3        1.0  0.0727300993666162  0.7570114802095633  0.21081802657050022  1.0000
  N   N4        1.0  0.9273305207489669  0.24286637797970914  0.7892059426771213  1.0000
  N   N5        1.0  0.0834086933370131  0.9011499208564973  0.1934124983395974  1.0000
  N   N6        1.0  0.9165913197410588  0.09875876250622181  0.8066118638341352  1.0000
  N   N7        1.0  0.28496950747666017  0.5729779762524531  0.12984244822784058  1.0000
  N   N8        1.0  0.7150521093891697  0.42698449078573486  0.8700253066035301  1.0000
  N   N9        1.0  0.20853550597920642  0.5451085051374208  0.21464246865968306  1.0000
  N   N10       1.0  0.7914905473389453  0.45490422406928843  0.785236357623944  1.0000
  N   N11       1.0  0.40272471871676174  0.4472018376703489  0.1969368257084909  1.0000
  N   N12       1.0  0.5972378049137178  0.5527945390342669  0.8030112473864008  1.0000
  N   N13       1.0  0.18361038693360146  0.7752422088965929  0.9205161853561706  1.0000
  N   N14       1.0  0.8165825640415318  0.2247565594644456  0.07927136977097868  1.0000
  N   N15       1.0  0.2629710414580019  0.76656237253453  0.831590838479606  1.0000
  N   N16       1.0  0.7371683746727558  0.2334783881636611  0.1681947019129807  1.0000
  N   N17       1.0  0.08203153780577564  0.8758067852909762  0.8269459077761425  1.0000
  N   N18       1.0  0.9180616007328268  0.1241467274195216  0.17290211330116279  1.0000
  O   O1        1.0  0.3964195456853048  0.7002183964473191  0.9915685054635901  1.0000
  O   O2        1.0  0.6041514877773864  0.29934029042792787  0.008306165315552533  1.0000
  O   O3        1.0  0.5021072878052164  0.7466954881709144  0.8448026425877586  1.0000
  O   O4        1.0  0.4973223676208177  0.2538924896841693  0.15512654144756508  1.0000
  O   O5        1.0  0.8010379469120037  0.9279482249826219  0.8068991550052189  1.0000
  O   O6        1.0  0.1991178041081412  0.07184603586326692  0.19305990088944472  1.0000
  O   O7        1.0  0.8091943461223747  0.9518539112234663  0.934029757651601  1.0000
  O   O8        1.0  0.1908802730769708  0.04801804814421472  0.0659022447352982  1.0000
  O   O9        1.0  0.030760822442232463  0.9660550334002735  0.6484420269011723  1.0000
  O   O10       1.0  0.9694079438152913  0.03371635991168631  0.3515887770414634  1.0000
  O   O11       1.0  0.19554235855343188  0.023179662822677496  0.6016568146310348  1.0000
  O   O12       1.0  0.8043977022373455  0.9769056375497982  0.3982657318416826  1.0000
  O   O13       1.0  0.47093431221608006  0.8505270153377326  0.19357508552638342  1.0000
  O   O14       1.0  0.5289526387319441  0.1496274018421246  0.8063603818978962  1.0000
  O   O15       1.0  0.3327356536855887  0.5843065830542573  0.9247382378163352  1.0000
  O   O16       1.0  0.6672864610570741  0.4158051531237278  0.07508016841804727  1.0000
  O   O17       1.0  0.34915036384552417  0.5684264321131566  0.7868453784744888  1.0000
  O   O18       1.0  0.6507246679244787  0.4314631605503507  0.21309122851586437  1.0000
  O   O19       1.0  0.0707063659301781  0.38443557015889956  0.7893252507074922  1.0000
  O   O20       1.0  0.9295159054507494  0.6155105640623761  0.21064587022427617  1.0000
  O   O21       1.0  0.9397566607806737  0.3457777517379271  0.9293861803342479  1.0000
  O   O22       1.0  0.060521723813664566  0.653910028069781  0.0704673994234781  1.0000
  O   O23       1.0  0.15067023751792874  0.2490851846772486  0.5945035380178325  1.0000
  O   O24       1.0  0.849503861057535  0.7508599788417955  0.4054254013221836  1.0000
  O   O25       1.0  0.9913605545184795  0.3864031212059872  0.6086753509426542  1.0000
  O   O26       1.0  0.008755898750443735  0.6135010065818776  0.39137968783565225  1.0000
  O   O27       1.0  0.13531988439795842  0.3597302880125071  0.15114807851490752  1.0000
  O   O28       1.0  0.8644990451840895  0.640251298406426  0.8489745231085309  1.0000
  O   O29       1.0  0.5119300030732107  0.7408565152591606  0.6717563700244895  1.0000
  O   O30       1.0  0.4881127471192882  0.25978636377143266  0.32876633403952843  1.0000
