data_image0
_chemical_formula_structural       Zn2H44C48N8O8
_chemical_formula_sum              "Zn2 H44 C48 N8 O8"
_cell_length_a       9.52259599659063
_cell_length_b       12.249145105631678
_cell_length_c       12.573994463810507
_cell_angle_alpha    104.62125564641003
_cell_angle_beta     96.83937141211898
_cell_angle_gamma    105.10025091544331

_space_group_name_H-M_alt    "P 1"
_space_group_IT_number       1

loop_
  _space_group_symop_operation_xyz
  'x, y, z'

loop_
  _atom_site_type_symbol
  _atom_site_label
  _atom_site_symmetry_multiplicity
  _atom_site_fract_x
  _atom_site_fract_y
  _atom_site_fract_z
  _atom_site_occupancy
  Zn  Zn1       1.0  0.2952246788957424  0.2695770643309245  0.7240296259181206  1.0000
  Zn  Zn2       1.0  0.7047762156772638  0.7304220181860757  0.27596978556853463  1.0000
  H   H1        1.0  0.7806090923254705  0.0138523519613045  0.37870300688291547  1.0000
  H   H2        1.0  0.219392804076918  0.9861406441304866  0.6212990479270462  1.0000
  H   H3        1.0  0.2462812778232006  0.4249501945592796  0.9536145078348001  1.0000
  H   H4        1.0  0.753712702246297  0.5750471545144222  0.04638792177237156  1.0000
  H   H5        1.0  0.3530034101693148  0.32046606258889915  0.4869373676532407  1.0000
  H   H6        1.0  0.6469875704397766  0.6795347437854105  0.5130632377251843  1.0000
  H   H7        1.0  0.4939325847850924  0.43799010047184334  0.37750125628240033  1.0000
  H   H8        1.0  0.5060595566508611  0.5620107982665985  0.6225034415004418  1.0000
  H   H9        1.0  0.9631364870108785  0.20604130719785727  0.22617295261930792  1.0000
  H   H10       1.0  0.03685786204407282  0.793954246175886  0.7738274982578658  1.0000
  H   H11       1.0  0.5368062410557217  0.21862753631732088  0.8949635075705445  1.0000
  H   H12       1.0  0.4631924722467389  0.7813714796056811  0.10503332638750607  1.0000
  H   H13       1.0  0.1035056522721902  0.3242739557436423  0.11741241069727693  1.0000
  H   H14       1.0  0.8964869246071532  0.6757197690888006  0.8825850860013632  1.0000
  H   H15       1.0  0.33349403540228206  0.5282759713505598  0.16121189811758543  1.0000
  H   H16       1.0  0.6665002534884509  0.4717195313942142  0.838786149639482  1.0000
  H   H17       1.0  0.5015987508876023  0.517441510605657  0.22932611161351701  1.0000
  H   H18       1.0  0.4983920274676735  0.4825557976441743  0.7706752553408692  1.0000
  H   H19       1.0  0.1239609541908067  0.21537285463406863  0.5177599469707062  1.0000
  H   H20       1.0  0.8760351269302833  0.7846244935283408  0.4822418560049187  1.0000
  H   H21       1.0  0.9564382759087952  0.21502381398157405  0.4389574501459492  1.0000
  H   H22       1.0  0.04355766312269074  0.7849700866853198  0.5610475175257579  1.0000
  H   H23       1.0  0.05134339799187875  0.8008601309797856  0.27561849487763374  1.0000
  H   H24       1.0  0.9486613930099212  0.19913808162604602  0.7243802324588842  1.0000
  H   H25       1.0  0.5789412177339557  0.3260118644828792  0.1271313959578038  1.0000
  H   H26       1.0  0.4210603916083643  0.6739863241754094  0.8728670697659808  1.0000
  H   H27       1.0  0.582027977835864  0.0958754491974148  0.3469193939635105  1.0000
  H   H28       1.0  0.4179716693976091  0.9041289022851801  0.6530803464328943  1.0000
  H   H29       1.0  0.22845855558936282  0.03942376926769949  0.35724743607934784  1.0000
  H   H30       1.0  0.7715413385947018  0.9605753558957559  0.6427542913231649  1.0000
  H   H31       1.0  0.679650134225689  0.20999481431253747  0.22117788963522142  1.0000
  H   H32       1.0  0.32034758183468887  0.7900015298394153  0.7788174475015313  1.0000
  H   H33       1.0  0.8405884346630403  0.3767085003525281  0.19280586316102705  1.0000
  H   H34       1.0  0.15941643826414523  0.6232931091198496  0.8071872963593094  1.0000
  H   H35       1.0  0.984647873117247  0.45912453554449684  0.30604679070964386  1.0000
  H   H36       1.0  0.01535740575801006  0.540878026398083  0.693949804897926  1.0000
  H   H37       1.0  0.6114185687490096  0.07374745145422422  0.530571013042959  1.0000
  H   H38       1.0  0.3885768531796927  0.9262595993921464  0.4694329923136423  1.0000
  H   H39       1.0  0.7314921211253351  0.18889367226816495  0.6431115871913278  1.0000
  H   H40       1.0  0.26851243983375633  0.8111124979506454  0.3568897669162752  1.0000
  H   H41       1.0  0.7793429195875349  0.40561638950737944  0.6305739426627144  1.0000
  H   H42       1.0  0.22066478606842574  0.5943870564888272  0.3694222582404053  1.0000
  H   H43       1.0  0.872971740996832  0.5207359351061385  0.5045080994582136  1.0000
  H   H44       1.0  0.1270409416958245  0.47926666583773436  0.49548830553905543  1.0000
  C   C1        1.0  0.30744458935769353  0.38935895443773205  0.24135070177085546  1.0000
  C   C2        1.0  0.6925441111475906  0.6106356571822076  0.7586482801179529  1.0000
  C   C3        1.0  0.1486487700895154  0.25702554189592053  0.3639333787975758  1.0000
  C   C4        1.0  0.8513402329432864  0.7429726522301152  0.6360688467154461  1.0000
  C   C5        1.0  0.8784312043187655  0.987466043585343  0.3636560339169608  1.0000
  C   C6        1.0  0.1215698738937547  0.0125304764010536  0.6363467741928517  1.0000
  C   C7        1.0  0.33242782189311987  0.38438025605993437  0.9688451341784374  1.0000
  C   C8        1.0  0.6675738676681534  0.6156180001036375  0.03115653570547749  1.0000
  C   C9        1.0  0.29838015524838113  0.32097786168970543  0.40579659660601664  1.0000
  C   C10       1.0  0.7016073580815886  0.6790220695247982  0.5942051173126474  1.0000
  C   C11       1.0  0.3775097601415211  0.3868564676152601  0.3444516980966412  1.0000
  C   C12       1.0  0.6224773039840344  0.6131451917939046  0.6555487903918831  1.0000
  C   C13       1.0  0.07992541313273449  0.2563535818109414  0.2587124747873446  1.0000
  C   C14       1.0  0.9200640190497399  0.7436428672441128  0.7412901751157791  1.0000
  C   C15       1.0  0.4851892101003231  0.2786165519773647  0.9425916065782829  1.0000
  C   C16       1.0  0.5148096034758394  0.7213825483272556  0.05740923257994273  1.0000
  C   C17       1.0  0.1585805310134063  0.3223947010013077  0.19796300039013912  1.0000
  C   C18       1.0  0.8414103908719073  0.6776000109652712  0.8020401611073426  1.0000
  C   C19       1.0  0.7863633834216089  0.3737649952718911  0.35339432092700224  1.0000
  C   C20       1.0  0.21364454913020134  0.6262332075288484  0.6466030659421947  1.0000
  C   C21       1.0  0.39118350239926514  0.466034476095281  0.17885571446940673  1.0000
  C   C22       1.0  0.6088118871541113  0.5339610683846558  0.8211440225719784  1.0000
  C   C23       1.0  0.0598444775175224  0.19193220747352774  0.43258715520609314  1.0000
  C   C24       1.0  0.9401509922548146  0.8080634045117066  0.5674157859954293  1.0000
  C   C25       1.0  0.838367017922245  0.5516783405941722  0.26549756187640844  1.0000
  C   C26       1.0  0.1616299232046075  0.4483188467875223  0.7344963179031225  1.0000
  C   C27       1.0  0.5072757576430932  0.17844783729593422  0.6365257597650924  1.0000
  C   C28       1.0  0.49273385598436203  0.821566313572106  0.3634778560947965  1.0000
  C   C29       1.0  0.6760519409207789  0.2418877372719237  0.49830130340664885  1.0000
  C   C30       1.0  0.32395292885954763  0.7581165866179587  0.50169566885085  1.0000
  C   C31       1.0  0.024489973863509772  0.8814927620887545  0.3109667638657215  1.0000
  C   C32       1.0  0.9755120213721401  0.1185063621634157  0.6890343369052518  1.0000
  C   C33       1.0  0.5066068961587504  0.3303761624863881  0.05609831346875181  1.0000
  C   C34       1.0  0.4933889225442983  0.6696176369225667  0.9439018479627421  1.0000
  C   C35       1.0  0.6450633886007466  0.1896241893487556  0.38199727331892325  1.0000
  C   C36       1.0  0.3549419736403295  0.8103757256816096  0.6179987137116285  1.0000
  C   C37       1.0  0.11120884821429658  0.997573887042435  0.3506002094206481  1.0000
  C   C38       1.0  0.8887926978169393  0.002426965404389105  0.6493996659201856  1.0000
  C   C39       1.0  0.7002728197903566  0.2547090332734072  0.31113753178907194  1.0000
  C   C40       1.0  0.2997328681798308  0.7452917667218699  0.688858687168569  1.0000
  C   C41       1.0  0.8639155801978834  0.4370050435533983  0.27853335513226096  1.0000
  C   C42       1.0  0.13609019113812346  0.5629931095296571  0.7214622552483689  1.0000
  C   C43       1.0  0.6351630317253766  0.1679874162193542  0.575517700645321  1.0000
  C   C44       1.0  0.3648438124843808  0.8320222343363214  0.4244814642147433  1.0000
  C   C45       1.0  0.755900961292902  0.36260912306104137  0.5403745219820949  1.0000
  C   C46       1.0  0.24411217060416854  0.6373917496881703  0.45962310844532084  1.0000
  C   C47       1.0  0.809284906130195  0.4275264935929853  0.46940451619916973  1.0000
  C   C48       1.0  0.19072647049914337  0.5724752819087513  0.5305947738268985  1.0000
  N   N1        1.0  0.37625573488585223  0.31325785436536796  0.8892447597161921  1.0000
  N   N2        1.0  0.6237423639210037  0.6867421397979713  0.11075702520491151  1.0000
  N   N3        1.0  0.4097694441478695  0.3970858448810334  0.07084206795285301  1.0000
  N   N4        1.0  0.5902290436991819  0.6029123704586752  0.9291585392782906  1.0000
  N   N5        1.0  0.8797158630551747  0.8764897349359513  0.3199443594432907  1.0000
  N   N6        1.0  0.12028758177383034  0.12350761847510232  0.6800556508419646  1.0000
  N   N7        1.0  0.016928609276426695  0.06301751227565688  0.3833521056744758  1.0000
  N   N8        1.0  0.983071019342738  0.9369807785518558  0.6166517929210543  1.0000
  O   O1        1.0  0.7411506023160755  0.589356500857349  0.3154712490905355  1.0000
  O   O2        1.0  0.2588453584765773  0.41064074604712897  0.6845257476448766  1.0000
  O   O3        1.0  0.9116494937582476  0.6019563077798722  0.20556930989594951  1.0000
  O   O4        1.0  0.08835467816065548  0.398051641262569  0.7944332219016134  1.0000
  O   O5        1.0  0.45138931853499303  0.2630580274806178  0.6317068569510483  1.0000
  O   O6        1.0  0.5486224331066651  0.7369588706462833  0.368301547094525  1.0000
  O   O7        1.0  0.46586177936654855  0.1064311971408856  0.6902511983956785  1.0000
  O   O8        1.0  0.5341410850485958  0.8935819702381808  0.3097492591915271  1.0000
