data_image0
_chemical_formula_structural       Co6H6C36O30
_chemical_formula_sum              "Co6 H6 C36 O30"
_cell_length_a       6.980922312878495
_cell_length_b       14.88890477665691
_cell_length_c       14.75112948577602
_cell_angle_alpha    117.62758900634182
_cell_angle_beta     98.98087841070712
_cell_angle_gamma    99.26598818721617

_space_group_name_H-M_alt    "P 1"
_space_group_IT_number       1

loop_
  _space_group_symop_operation_xyz
  'x, y, z'

loop_
  _atom_site_type_symbol
  _atom_site_label
  _atom_site_symmetry_multiplicity
  _atom_site_fract_x
  _atom_site_fract_y
  _atom_site_fract_z
  _atom_site_occupancy
  Co  Co1       1.0  0.6169173763466775  0.5745737880164868  0.316678854280994  1.0000
  Co  Co2       1.0  0.3156957179925613  0.6859978267683716  0.26938603419847595  1.0000
  Co  Co3       1.0  0.03568977581123522  0.7345522285894148  0.416132545593932  1.0000
  Co  Co4       1.0  0.38308144634399355  0.42547417235466883  0.68333791501756  1.0000
  Co  Co5       1.0  0.6842244511588831  0.31400362761083755  0.7305986636519461  1.0000
  Co  Co6       1.0  0.9643822833822995  0.2654355248148264  0.5839216846667199  1.0000
  H   H1        1.0  0.6883981219282517  0.552753002420907  0.5307183914555864  1.0000
  H   H2        1.0  0.15591873685136895  0.477288677241809  0.022916304069546797  1.0000
  H   H3        1.0  0.1334334710165734  0.9744894060351756  0.4484744452550513  1.0000
  H   H4        1.0  0.3116469005034546  0.4472497075946436  0.46935987168681936  1.0000
  H   H5        1.0  0.8440191142164652  0.5227512295202033  0.9770618448827975  1.0000
  H   H6        1.0  0.8665925287417906  0.025478294291922103  0.5514674797483322  1.0000
  C   C1        1.0  0.6386386972458882  0.43915282571705216  0.24569543028030688  1.0000
  C   C2        1.0  0.3967208001347445  0.7506766283443866  0.20250874346528042  1.0000
  C   C3        1.0  0.18664374544775336  0.8002199213659723  0.5462500851901879  1.0000
  C   C4        1.0  0.36143191864412216  0.5609140668270668  0.7543237788491124  1.0000
  C   C5        1.0  0.6032555652918604  0.24937528740372983  0.7975258945269486  1.0000
  C   C6        1.0  0.8134547477368345  0.19980630893474677  0.45380162226884824  1.0000
  C   C7        1.0  0.9378993614899755  0.5681431570586781  0.46613988430826936  1.0000
  C   C8        1.0  0.4699047324340667  0.5388508938191947  0.10250879270578389  1.0000
  C   C9        1.0  0.36994312129422713  0.8974407023451151  0.4329864919603779  1.0000
  C   C10       1.0  0.062099615407852575  0.4318326038461606  0.5338757337660239  1.0000
  C   C11       1.0  0.5300512441141833  0.46116398254357444  0.897486761456683  1.0000
  C   C12       1.0  0.6300851767504484  0.10254207830408998  0.5670053460340653  1.0000
  C   C13       1.0  0.8256346676241151  0.5292724918413114  0.517272924927525  1.0000
  C   C14       1.0  0.30704016977205845  0.486989272145415  0.01224028920400141  1.0000
  C   C15       1.0  0.29520226408540395  0.9860347829047881  0.4711963930283146  1.0000
  C   C16       1.0  0.1743762838222551  0.47070959753924774  0.48275328169466286  1.0000
  C   C17       1.0  0.6929169445650843  0.5130365912497793  0.987755051547026  1.0000
  C   C18       1.0  0.70482050965618  0.013943212157947497  0.5287745125270716  1.0000
  C   C19       1.0  0.11704967575725793  0.5373103954102377  0.4476871488738751  1.0000
  C   C20       1.0  0.6690075124437912  0.5533098997125804  0.0903813003980147  1.0000
  C   C21       1.0  0.5812760868865539  0.9115706458431633  0.46345228465299454  1.0000
  C   C22       1.0  0.8829329399075478  0.462641739151934  0.5523094927381674  1.0000
  C   C23       1.0  0.3309537607013268  0.44670106158818607  0.9096148382445575  1.0000
  C   C24       1.0  0.41874600370300646  0.08840891329747082  0.5365172684478166  1.0000
  C   C25       1.0  0.2452221327555648  0.5660550673721474  0.3883249600653044  1.0000
  C   C26       1.0  0.8578397056963922  0.6129423695108542  0.1792148054403809  1.0000
  C   C27       1.0  0.6820976470114459  0.824273878273651  0.43656015007431387  1.0000
  C   C28       1.0  0.7547460545474679  0.4339001757565129  0.6116680346787999  1.0000
  C   C29       1.0  0.14212210263255537  0.3870725224307563  0.8207832062447975  1.0000
  C   C30       1.0  0.3179134367470553  0.17570407875891184  0.5634038015612857  1.0000
  C   C31       1.0  0.8161036142325812  0.7858861584271395  0.6768788478516398  1.0000
  C   C32       1.0  0.14025421515754746  0.32251646158237446  0.10806070752229154  1.0000
  C   C33       1.0  0.03193851424088466  0.8912686295830738  0.2139288248940048  1.0000
  C   C34       1.0  0.18377066646306156  0.21407352985030306  0.3230708738274472  1.0000
  C   C35       1.0  0.8597922899214795  0.6773995366560115  0.892134463389361  1.0000
  C   C36       1.0  0.967942642011117  0.10867542936951928  0.7860378194547689  1.0000
  O   O1        1.0  0.8642051800504973  0.632105737951669  0.43699761626665173  1.0000
  O   O2        1.0  0.42843692242362164  0.570465217454725  0.19772043528973884  1.0000
  O   O3        1.0  0.23097975404337484  0.8030687518977189  0.3668728151600219  1.0000
  O   O4        1.0  0.13579638020537027  0.3678779024472547  0.5630266099284426  1.0000
  O   O5        1.0  0.5715349149298348  0.42955518902341794  0.8022801888676481  1.0000
  O   O6        1.0  0.7690211115192583  0.19691023314924652  0.6331674923207941  1.0000
  O   O7        1.0  0.18368508188881083  0.6166260576326437  0.3431447178563757  1.0000
  O   O8        1.0  0.8363046845555219  0.6580392690973017  0.27514332636244626  1.0000
  O   O9        1.0  0.5686944424560139  0.730402300433198  0.39493120960069206  1.0000
  O   O10       1.0  0.8162722390259703  0.38331344529143513  0.6568387974952329  1.0000
  O   O11       1.0  0.16372201144723422  0.3419427869550305  0.7248670409230157  1.0000
  O   O12       1.0  0.4312878844951414  0.2695787915073637  0.6050423206666408  1.0000
  O   O13       1.0  0.4050877819713463  0.5367139119773158  0.3822338617073626  1.0000
  O   O14       1.0  0.02400845649955126  0.6181394657602439  0.15680879830348007  1.0000
  O   O15       1.0  0.8726668566430361  0.8477334652643905  0.4591096740762736  1.0000
  O   O16       1.0  0.5948965388584854  0.4632562568455398  0.6177577615400479  1.0000
  O   O17       1.0  0.9759421297791706  0.38189969235421023  0.8431753340650159  1.0000
  O   O18       1.0  0.12733283708458737  0.1522310403526035  0.5408254913839343  1.0000
  O   O19       1.0  0.6504679774711589  0.3534010416096151  0.20790916293890396  1.0000
  O   O20       1.0  0.4404361050824121  0.7885494191141972  0.15307646535083552  1.0000
  O   O21       1.0  0.2853725084886634  0.8466837755465022  0.6328591904516755  1.0000
  O   O22       1.0  0.34983115788758556  0.6467078294341703  0.7921398599155934  1.0000
  O   O23       1.0  0.5597133575997049  0.21157752109366607  0.8470347064704171  1.0000
  O   O24       1.0  0.7147754739016462  0.153432771762823  0.36719550183981636  1.0000
  O   O25       1.0  0.6448061792200974  0.7581840378831683  0.6451582281723415  1.0000
  O   O26       1.0  0.006375511322438899  0.3582648633713319  0.11442796105519192  1.0000
  O   O27       1.0  0.8885298228180858  0.885498334033528  0.24150124163912776  1.0000
  O   O28       1.0  0.35506071918113946  0.2418112310737968  0.354874012160515  1.0000
  O   O29       1.0  0.9935471334725604  0.641558738459416  0.8851722147517049  1.0000
  O   O30       1.0  0.11138930637446258  0.1146044972241711  0.7585273150331343  1.0000
