data_image0
_chemical_formula_structural       K4H48C60N4O20
_chemical_formula_sum              "K4 H48 C60 N4 O20"
_cell_length_a       7.026546027047519
_cell_length_b       13.1944966110817
_cell_length_c       14.9561077601712
_cell_angle_alpha    89.9996150204493
_cell_angle_beta     89.99960370098064
_cell_angle_gamma    90.00012294372328

_space_group_name_H-M_alt    "P 1"
_space_group_IT_number       1

loop_
  _space_group_symop_operation_xyz
  'x, y, z'

loop_
  _atom_site_type_symbol
  _atom_site_label
  _atom_site_symmetry_multiplicity
  _atom_site_fract_x
  _atom_site_fract_y
  _atom_site_fract_z
  _atom_site_occupancy
  K   K1        1.0  0.7879629975337393  0.6972016661304392  0.4192126562408945  1.0000
  K   K2        1.0  0.7120336683432952  0.30279967704678507  0.9192143596475406  1.0000
  K   K3        1.0  0.21203000759226845  0.19719794204164737  0.08078813343232841  1.0000
  K   K4        1.0  0.2879638854500043  0.8027985723553994  0.5807879596651091  1.0000
  H   H1        1.0  0.6711183203253627  0.17760185214206808  0.7592052530424525  1.0000
  H   H2        1.0  0.8288963211971063  0.8223954044104003  0.2592053470066418  1.0000
  H   H3        1.0  0.3288801644078704  0.6776048819793702  0.7407931280686242  1.0000
  H   H4        1.0  0.17110002255340354  0.32238965593901264  0.24079202602435154  1.0000
  H   H5        1.0  0.6870210242574755  0.0053560642172740995  0.6912930145897962  1.0000
  H   H6        1.0  0.8129874863726555  0.9946424674298413  0.19129481442135443  1.0000
  H   H7        1.0  0.3129767832173442  0.5053593161226216  0.8087050503506819  1.0000
  H   H8        1.0  0.1869967260925804  0.494636978270762  0.30870020029973944  1.0000
  H   H9        1.0  0.6988251100614916  0.9861489477036398  0.5263755234063083  1.0000
  H   H10       1.0  0.8011758302941702  0.013852355718689998  0.0263771587139132  1.0000
  H   H11       1.0  0.3011760110380023  0.48614839927911646  0.9736216972630203  1.0000
  H   H12       1.0  0.1988079149174382  0.5138466391343781  0.47361602577651507  1.0000
  H   H13       1.0  0.7128412250271907  0.0624697258911553  0.3765083631183757  1.0000
  H   H14       1.0  0.7871532138734095  0.9375342161866196  0.8765114050717956  1.0000
  H   H15       1.0  0.28716832846519935  0.5624660213648979  0.1234878762349254  1.0000
  H   H16       1.0  0.2128292148035555  0.437529409954095  0.6234854352065754  1.0000
  H   H17       1.0  0.706410906296071  0.215471761248672  0.27924999567785136  1.0000
  H   H18       1.0  0.7935806737376436  0.784535953119082  0.7792492430549487  1.0000
  H   H19       1.0  0.2936049414595131  0.7154642919627107  0.22074934841713664  1.0000
  H   H20       1.0  0.2064096924008609  0.2845326723015375  0.7207485041814933  1.0000
  H   H21       1.0  0.704019803880641  0.3890938788360997  0.34969495229392317  1.0000
  H   H22       1.0  0.7959821398178093  0.6109117832509766  0.849694552385671  1.0000
  H   H23       1.0  0.2959953033718534  0.8890892225215193  0.15030536842926523  1.0000
  H   H24       1.0  0.20401892901693938  0.11090827823302617  0.6503055613264195  1.0000
  H   H25       1.0  0.6322310491773919  0.5339626659570768  0.7223764973718758  1.0000
  H   H26       1.0  0.8677684715933012  0.4660356289651232  0.22237590113500974  1.0000
  H   H27       1.0  0.3677682939299345  0.033966719744945785  0.7776247410991814  1.0000
  H   H28       1.0  0.1322312832583776  0.9660320850178221  0.2776266379911405  1.0000
  H   H29       1.0  0.9782204482292443  0.5228052304141214  0.7107699991692016  1.0000
  H   H30       1.0  0.5217820872717951  0.47720148972667426  0.2107657973968671  1.0000
  H   H31       1.0  0.021780274128715894  0.022799696165890292  0.7892359858315248  1.0000
  H   H32       1.0  0.4782162883247523  0.9771982622855047  0.2892346696697743  1.0000
  H   H33       1.0  0.9106840683929605  0.6515756002172564  0.6962525828493896  1.0000
  H   H34       1.0  0.5893072922636902  0.3484289568029481  0.1962489217339822  1.0000
  H   H35       1.0  0.08930862125190941  0.15157230812205563  0.8037519701823612  1.0000
  H   H36       1.0  0.41069200016978863  0.8484255397705451  0.3037529773201086  1.0000
  H   H37       1.0  0.9767611696709012  0.5783174244782925  0.601946737730735  1.0000
  H   H38       1.0  0.5232429441842825  0.4216916402304775  0.10194352883663531  1.0000
  H   H39       1.0  0.0232440404866452  0.0783110631569741  0.8980582495648761  1.0000
  H   H40       1.0  0.47675948266803647  0.9216868244092067  0.3980572672911435  1.0000
  H   H41       1.0  0.31496696189960005  0.7114604682815365  0.3919723491987739  1.0000
  H   H42       1.0  0.1850281104801681  0.288536707739432  0.8919708830841913  1.0000
  H   H43       1.0  0.6850289456434453  0.21146315342856772  0.10802969317062151  1.0000
  H   H44       1.0  0.8149708104172432  0.7885390439081658  0.6080308521439121  1.0000
  H   H45       1.0  0.4058531308915646  0.6259314588075283  0.4502356061998825  1.0000
  H   H46       1.0  0.09414109645338439  0.3740660313807281  0.9502332641684106  1.0000
  H   H47       1.0  0.5941424403578637  0.12593448131487148  0.0497662745629839  1.0000
  H   H48       1.0  0.9058567375730036  0.8740674018588307  0.5497672954222564  1.0000
  C   C1        1.0  0.669491184347109  0.35751506635656227  0.6734678435504264  1.0000
  C   C2        1.0  0.8305190080556598  0.642484358971046  0.1734609751995464  1.0000
  C   C3        1.0  0.33051227729257693  0.8575159293386246  0.8265334827699604  1.0000
  C   C4        1.0  0.1694823209822829  0.14248022925131915  0.32653813295658546  1.0000
  C   C5        1.0  0.6809606384758311  0.25583798630110266  0.6331996277039239  1.0000
  C   C6        1.0  0.819057253786127  0.7441625035706138  0.1332008865189707  1.0000
  C   C7        1.0  0.3190481160950254  0.7558377713055788  0.8667982896150264  1.0000
  C   C8        1.0  0.18094020551438209  0.24415732275127763  0.3667989561436187  1.0000
  C   C9        1.0  0.6906431558911451  0.24547872827669437  0.5390521528294414  1.0000
  C   C10       1.0  0.8093718323540385  0.7545217207222306  0.0390527135472709  1.0000
  C   C11       1.0  0.309369827466938  0.7454793007145497  0.9609464945131734  1.0000
  C   C12       1.0  0.19062282134141376  0.25451735000195436  0.4609457304616599  1.0000
  C   C13       1.0  0.6972700318643985  0.33188315129708457  0.483014578937727  1.0000
  C   C14       1.0  0.8027456331110585  0.6681177059990514  0.9830118117464013  1.0000
  C   C15       1.0  0.3027476967927925  0.8318825497985  0.0169860809150535  1.0000
  C   C16       1.0  0.1972513911342233  0.16811445050397106  0.5169879628541736  1.0000
  C   C17       1.0  0.7076705003680102  0.4334314040311255  0.5228949576733726  1.0000
  C   C18       1.0  0.7923475685756003  0.5665775048259147  0.0228966886994257  1.0000
  C   C19       1.0  0.29234464516888176  0.9334250124643899  0.9771039127467418  1.0000
  C   C20       1.0  0.20765488513305289  0.06656848362164419  0.47710688118510797  1.0000
  C   C21       1.0  0.6791227617824304  0.1696617005177501  0.6868682611745527  1.0000
  C   C22       1.0  0.8208943520789375  0.8303376227286632  0.1868690030792877  1.0000
  C   C23       1.0  0.3208799612554856  0.6696634121887897  0.8131294983796096  1.0000
  C   C24       1.0  0.1791020228977374  0.33033057482417405  0.3131283228739363  1.0000
  C   C25       1.0  0.686483505325725  0.07236825606793218  0.6486527122044166  1.0000
  C   C26       1.0  0.8135270469379277  0.9276321161118303  0.148653570257359  1.0000
  C   C27       1.0  0.3135174119823816  0.5723681522943379  0.8513449554917402  1.0000
  C   C28       1.0  0.18646117156533384  0.42762857524323267  0.3513425103127403  1.0000
  C   C29       1.0  0.6929724012414766  0.06102145465665389  0.5567585055649857  1.0000
  C   C30       1.0  0.8070337911433467  0.9389803752672418  0.05675998637894251  1.0000
  C   C31       1.0  0.3070313178066185  0.5610198855462939  0.9432378921485596  1.0000
  C   C32       1.0  0.1929544719768046  0.43897462636216017  0.4432360269249997  1.0000
  C   C33       1.0  0.6950337388658028  0.14676272300683726  0.4998610917859169  1.0000
  C   C34       1.0  0.8049717195248431  0.8532410375327327  0.9998625688169867  1.0000
  C   C35       1.0  0.30497614605307877  0.6467599787581478  0.000136653743489  1.0000
  C   C36       1.0  0.19501607041627975  0.3532371498807762  0.5001341025177126  1.0000
  C   C37       1.0  0.7022911735606456  0.13814813188499636  0.40531043597473376  1.0000
  C   C38       1.0  0.7977042707843438  0.8618555908456428  0.905311885888459  1.0000
  C   C39       1.0  0.2977172543114719  0.6381454169447874  0.09468736062439831  1.0000
  C   C40       1.0  0.20228212984515884  0.3618517494962958  0.5946860716275282  1.0000
  C   C41       1.0  0.7016754954406607  0.22366959726222996  0.3517748644990633  1.0000
  C   C42       1.0  0.798322148552792  0.7763345331920203  0.8517761507267778  1.0000
  C   C43       1.0  0.2983403845606388  0.7236657174303287  0.14822376236519827  1.0000
  C   C44       1.0  0.20166818532958078  0.2763295255052397  0.648222313756115  1.0000
  C   C45       1.0  0.7004685526293597  0.3208614852406979  0.3906677188821845  1.0000
  C   C46       1.0  0.7995356431459442  0.6791431069078511  0.8906682400259458  1.0000
  C   C47       1.0  0.2995477095187695  0.8208571451311072  0.1093316690743507  1.0000
  C   C48       1.0  0.20046000126419014  0.17913839399250964  0.6093328064688208  1.0000
  C   C49       1.0  0.6962459320794565  0.5430053635703586  0.6557266713924292  1.0000
  C   C50       1.0  0.803754555382362  0.45699495473854757  0.1557250026140835  1.0000
  C   C51       1.0  0.3037534465765574  0.04300580327397088  0.844274513484045  1.0000
  C   C52       1.0  0.19624374074927425  0.9569924938847405  0.3442775901044897  1.0000
  C   C53       1.0  0.9030687289974608  0.5758160926246632  0.6665452244304149  1.0000
  C   C54       1.0  0.5969316015769477  0.4241894485401401  0.1665417577033779  1.0000
  C   C55       1.0  0.09692935546363658  0.07581258319761727  0.8334591090732673  1.0000
  C   C56       1.0  0.4030722582733617  0.924185796344794  0.333459023611546  1.0000
  C   C57       1.0  0.5670065608416763  0.6190098945134324  0.6054956758577532  1.0000
  C   C58       1.0  0.9329960783239315  0.38098853267069904  0.10549536868020232  1.0000
  C   C59       1.0  0.4329945398289964  0.11901086080558797  0.8945063957048023  1.0000
  C   C60       1.0  0.0670047652955574  0.8809862959058065  0.39450834322371975  1.0000
  N   N1        1.0  0.6855437515990345  0.440891724521343  0.615557449625875  1.0000
  N   N2        1.0  0.8144687038601006  0.5591081418250566  0.11555647745101541  1.0000
  N   N3        1.0  0.3144643074037248  0.9408921276837031  0.8844427138072248  1.0000
  N   N4        1.0  0.1855337205132415  0.05910662145520009  0.38444446219718753  1.0000
  O   O1        1.0  0.648774896853709  0.3716804991268176  0.7547784293288444  1.0000
  O   O2        1.0  0.8512298466272554  0.6283167911198362  0.2547822746188473  1.0000
  O   O3        1.0  0.3512215046571328  0.8716842792991738  0.7452174640364007  1.0000
  O   O4        1.0  0.14877284987164066  0.12831174071099835  0.24521758614644543  1.0000
  O   O5        1.0  0.7367720467872445  0.5108214333105536  0.4780267232943771  1.0000
  O   O6        1.0  0.7632436905332369  0.4891749146278526  0.9780224726411929  1.0000
  O   O7        1.0  0.2632415731120402  0.010824280191293697  0.021976508436125607  1.0000
  O   O8        1.0  0.2367602887850637  0.9891749557800789  0.5219787418226502  1.0000
  O   O9        1.0  0.630558674358312  0.7085056237828338  0.5934373557721813  1.0000
  O   O10       1.0  0.8694398701615071  0.29149289522597843  0.0934391259603586  1.0000
  O   O11       1.0  0.36943708549338067  0.20850490807042374  0.906566191141799  1.0000
  O   O12       1.0  0.13055919836983068  0.7914913989025576  0.406567790968225  1.0000
  O   O13       1.0  0.40120115746692164  0.5903138245821606  0.583946309929928  1.0000
  O   O14       1.0  0.09880265199572587  0.4096811499894385  0.0839449288818486  1.0000
  O   O15       1.0  0.5988026767355166  0.09031785237755227  0.9160545944833985  1.0000
  O   O16       1.0  0.90119545811811  0.9096812411781626  0.4160559384368483  1.0000
  O   O17       1.0  0.41718493426342446  0.6594358079378678  0.3918493081928035  1.0000
  O   O18       1.0  0.0828087167263689  0.3405613690192267  0.8918478707704055  1.0000
  O   O19       1.0  0.5828093455480071  0.15943761462709458  0.1081523739615875  1.0000
  O   O20       1.0  0.9171875623815067  0.8405630659900821  0.608153556061083  1.0000
