data_image0
_chemical_formula_structural       Cu8H24C32I8N8
_chemical_formula_sum              "Cu8 H24 C32 I8 N8"
_cell_length_a       4.342693953401422
_cell_length_b       13.470920756391964
_cell_length_c       17.430394084032258
_cell_angle_alpha    90.00008015402128
_cell_angle_beta     90.00020486562934
_cell_angle_gamma    93.67771160204116

_space_group_name_H-M_alt    "P 1"
_space_group_IT_number       1

loop_
  _space_group_symop_operation_xyz
  'x, y, z'

loop_
  _atom_site_type_symbol
  _atom_site_label
  _atom_site_symmetry_multiplicity
  _atom_site_fract_x
  _atom_site_fract_y
  _atom_site_fract_z
  _atom_site_occupancy
  Cu  Cu1       1.0  0.3606147636516894  0.18719946269389  0.43597262296466255  1.0000
  Cu  Cu2       1.0  0.13938197880207784  0.31280171724042566  0.9359727592935769  1.0000
  Cu  Cu3       1.0  0.6393845836688712  0.812801079270095  0.564028138062298  1.0000
  Cu  Cu4       1.0  0.8606061278081326  0.6872002962798902  0.06402742801855511  1.0000
  Cu  Cu5       1.0  0.027057485752138195  0.2604473217123555  0.32552233950498544  1.0000
  Cu  Cu6       1.0  0.4729372511738958  0.23955139307395254  0.8255221278638134  1.0000
  Cu  Cu7       1.0  0.9729390062377234  0.7395502415580992  0.6744778478085822  1.0000
  Cu  Cu8       1.0  0.5270600687959471  0.7604506333841954  0.1744780594525253  1.0000
  H   H1        1.0  0.7360974104957946  0.10867926690036002  0.7048134896159368  1.0000
  H   H2        1.0  0.763904168744638  0.3913194013929413  0.2048146322779942  1.0000
  H   H3        1.0  0.26391128817694204  0.8913220318654637  0.295186697705212  1.0000
  H   H4        1.0  0.236087716573671  0.6086781554098053  0.7951867024544442  1.0000
  H   H5        1.0  0.6807195022678697  0.0875368776077963  0.562902719991712  1.0000
  H   H6        1.0  0.8192757014209633  0.412462971867015  0.06290393600772862  1.0000
  H   H7        1.0  0.31928661707162576  0.9124629301943444  0.43709746732746174  1.0000
  H   H8        1.0  0.18071429454742827  0.5875368132951236  0.937097398725051  1.0000
  H   H9        1.0  0.018337000213818986  0.3261794641884491  0.4859421518321626  1.0000
  H   H10       1.0  0.4816604622778868  0.17382182140961794  0.9859424510548181  1.0000
  H   H11       1.0  0.9816622091142122  0.6738203339115287  0.5140591829048375  1.0000
  H   H12       1.0  0.5183367196870278  0.826179461182704  0.0140565888400772  1.0000
  H   H13       1.0  0.7615308257003405  0.46094633371666294  0.5531470110856986  1.0000
  H   H14       1.0  0.7384712854140076  0.039054248694789406  0.053146029885930104  1.0000
  H   H15       1.0  0.23846824563103297  0.539052720518697  0.44685432365082534  1.0000
  H   H16       1.0  0.2615330825598363  0.9609485313295352  0.9468524363025564  1.0000
  H   H17       1.0  0.829812032855166  0.484639040383442  0.6938713546747479  1.0000
  H   H18       1.0  0.6701919680316877  0.0153610957334109  0.1938702855866765  1.0000
  H   H19       1.0  0.1701924731360052  0.5153644835085345  0.3061299800666789  1.0000
  H   H20       1.0  0.3298115719621677  0.9846372211032133  0.806128180599025  1.0000
  H   H21       1.0  0.15813727049570048  0.37390110200622917  0.767907753825064  1.0000
  H   H22       1.0  0.3418612429117616  0.1260974974194724  0.2679075345422888  1.0000
  H   H23       1.0  0.8418763108501821  0.6261016909577536  0.232092433499119  1.0000
  H   H24       1.0  0.6581330837265895  0.8739008064799236  0.7320915053497005  1.0000
  C   C1        1.0  0.5922468352141977  0.1572107245210361  0.6722261202970687  1.0000
  C   C2        1.0  0.9077495297779378  0.3427871245302542  0.17222676834771997  1.0000
  C   C3        1.0  0.4077527880914289  0.8427913051709695  0.3277734933098345  1.0000
  C   C4        1.0  0.09224221753957104  0.6572096884072708  0.8277739926737624  1.0000
  C   C5        1.0  0.5589399500050122  0.14477580108280821  0.5924298532034271  1.0000
  C   C6        1.0  0.9410577064942202  0.35522262633297413  0.09242997136154683  1.0000
  C   C7        1.0  0.4410640039912437  0.8552247473494817  0.4075703341151496  1.0000
  C   C8        1.0  0.05893417881995333  0.6447749304691685  0.9075707896604046  1.0000
  C   C9        1.0  0.24190022242784437  0.2755654428187809  0.5878808283638153  1.0000
  C   C10       1.0  0.2581001655619559  0.2244320385334504  0.08788063851498153  1.0000
  C   C11       1.0  0.7581107795972031  0.7244358591833233  0.4121210800898681  1.0000
  C   C12       1.0  0.7418940230879941  0.7755655215025429  0.9121195487975273  1.0000
  C   C13       1.0  0.052570544915624885  0.3387071410152771  0.547228224021538  1.0000
  C   C14       1.0  0.4474275059414197  0.16129322659929812  0.047228712783990504  1.0000
  C   C15       1.0  0.9474308297556532  0.6612919164545373  0.45277311071604504  1.0000
  C   C16       1.0  0.5525744207082539  0.838708806327766  0.9527714745344583  1.0000
  C   C17       1.0  0.9091533704129872  0.41299874794495384  0.5849334825920567  1.0000
  C   C18       1.0  0.5908445920527684  0.08700189521250222  0.08493299192487312  1.0000
  C   C19       1.0  0.09084611489596735  0.5870025378824336  0.41506613101438466  1.0000
  C   C20       1.0  0.40915489324379445  0.9129993906130665  0.9150649005500853  1.0000
  C   C21       1.0  0.9483868680597994  0.4265225475752955  0.6647670441608611  1.0000
  C   C22       1.0  0.5516142721111024  0.07347677989961447  0.1647659293807564  1.0000
  C   C23       1.0  0.0516170859488483  0.5734780008588204  0.3352348642891983  1.0000
  C   C24       1.0  0.44838968187274736  0.9265237685308637  0.8352325368063377  1.0000
  C   C25       1.0  0.12954611264679974  0.36544848367546473  0.7060399439665873  1.0000
  C   C26       1.0  0.37045150927979625  0.13454998492765924  0.20604033361359345  1.0000
  C   C27       1.0  0.8704699100273885  0.6345550563863753  0.2939590959381278  1.0000
  C   C28       1.0  0.6295405140186503  0.8654483157372824  0.7939587062773372  1.0000
  C   C29       1.0  0.2795716501240548  0.2890848191393758  0.6688939379924862  1.0000
  C   C30       1.0  0.2204366772440949  0.21091209935806182  0.1688931254647841  1.0000
  C   C31       1.0  0.7204439585725381  0.7109164893304295  0.3311068230423189  1.0000
  C   C32       1.0  0.7795596767449738  0.789084720047164  0.8311064881378203  1.0000
  I   I1        1.0  0.5417417464249467  0.358811117631589  0.3694086117681294  1.0000
  I   I2        1.0  0.958257873858699  0.14118937996739328  0.8694088544601684  1.0000
  I   I3        1.0  0.45825515954663837  0.6411886772314972  0.630590428125835  1.0000
  I   I4        1.0  0.041743914777768426  0.8588119090926366  0.1305890380158417  1.0000
  I   I5        1.0  0.8615420503738632  0.08528370264197349  0.3908728411859244  1.0000
  I   I6        1.0  0.6384555758590693  0.41471683710996377  0.8908730864631877  1.0000
  I   I7        1.0  0.13845946228580888  0.9147160986912438  0.609127346131139  1.0000
  I   I8        1.0  0.3615372754317576  0.585285926744497  0.1091276745620036  1.0000
  N   N1        1.0  0.4580970732069503  0.22806674775069516  0.7108161598678039  1.0000
  N   N2        1.0  0.041902644892225296  0.2719302464576927  0.2108169711476151  1.0000
  N   N3        1.0  0.5419051294236468  0.7719367729037855  0.2891823063200932  1.0000
  N   N4        1.0  0.9580958744400832  0.7280658323173766  0.789182642455579  1.0000
  N   N5        1.0  0.38796265424812043  0.20229211389716545  0.5498817147399749  1.0000
  N   N6        1.0  0.1120306901709469  0.2977075089952804  0.04988261784271231  1.0000
  N   N7        1.0  0.6120346657217296  0.7977099125609898  0.45011847257637083  1.0000
  N   N8        1.0  0.887961333135763  0.7022907916708689  0.9501175694691996  1.0000
