data_image0
_chemical_formula_structural       K4H16C12N36O12
_chemical_formula_sum              "K4 H16 C12 N36 O12"
_cell_length_a       7.5262920959748
_cell_length_b       7.734093525688003
_cell_length_c       17.510563571891996
_cell_angle_alpha    84.47664340507562
_cell_angle_beta     78.47864782220098
_cell_angle_gamma    69.97579929444275

_space_group_name_H-M_alt    "P 1"
_space_group_IT_number       1

loop_
  _space_group_symop_operation_xyz
  'x, y, z'

loop_
  _atom_site_type_symbol
  _atom_site_label
  _atom_site_symmetry_multiplicity
  _atom_site_fract_x
  _atom_site_fract_y
  _atom_site_fract_z
  _atom_site_occupancy
  K   K1        1.0  0.8511130018899207  0.7951862531214858  0.002307884751786606  1.0000
  K   K2        1.0  0.1488832672035798  0.20481660203880378  0.9976923273176084  1.0000
  K   K3        1.0  0.34976860669534904  0.8625530045513088  0.5679119407545057  1.0000
  K   K4        1.0  0.6502241515384811  0.13744434266628494  0.432087658731433  1.0000
  H   H1        1.0  0.7704527412422092  0.9441553879778084  0.7117252886016273  1.0000
  H   H2        1.0  0.22954767185381544  0.055843344534608284  0.28827416726843313  1.0000
  H   H3        1.0  0.8155218879451169  0.42980622275199915  0.864036733041324  1.0000
  H   H4        1.0  0.18447892259820262  0.5701952690462874  0.13596200333995506  1.0000
  H   H5        1.0  0.7705287678750922  0.8139312367987227  0.8023550263474062  1.0000
  H   H6        1.0  0.22947300185973774  0.18606749407093293  0.19764488418059756  1.0000
  H   H7        1.0  0.649402925502322  0.3063681083682326  0.885801342580443  1.0000
  H   H8        1.0  0.3505978850409974  0.693633383430054  0.11419739380083628  1.0000
  H   H9        1.0  0.8218621813234606  0.4686065974007504  0.09332544717197776  1.0000
  H   H10       1.0  0.1781364022566407  0.5313934988599127  0.9066758225795368  1.0000
  H   H11       1.0  0.9145791325221923  0.505392668085129  0.16135205397089428  1.0000
  H   H12       1.0  0.08541945240163781  0.4946074245037692  0.8386497869031755  1.0000
  H   H13       1.0  0.19891348222493832  0.3092318008440315  0.5298292001498054  1.0000
  H   H14       1.0  0.8010855769197321  0.6907669259676152  0.4701709433074084  1.0000
  H   H15       1.0  0.17970727004219367  0.2408146288902131  0.4513262704255681  1.0000
  H   H16       1.0  0.8202917891024766  0.7591840979214337  0.5486738730316459  1.0000
  C   C1        1.0  0.9687044145456839  0.669761406765069  0.7031336454144748  1.0000
  C   C2        1.0  0.0312959998940698  0.3302373220755754  0.2968663815781411  1.0000
  C   C3        1.0  0.8603483379516564  0.8400909269236361  0.7477416667301638  1.0000
  C   C4        1.0  0.13965207648809755  0.15990780191701492  0.2522583602624522  1.0000
  C   C5        1.0  0.2027551319517755  0.027455642127122794  0.7726682248859759  1.0000
  C   C6        1.0  0.7972461581872992  0.9725444692068448  0.22733109856866918  1.0000
  C   C7        1.0  0.6697724609933076  0.3956735424505381  0.6668652113769012  1.0000
  C   C8        1.0  0.3302261158681504  0.6043265721689506  0.3331332027618429  1.0000
  C   C9        1.0  0.526718718583304  0.595765846275178  0.9070204312123304  1.0000
  C   C10       1.0  0.4732812162606878  0.4042342630297853  0.09297900870691927  1.0000
  C   C11       1.0  0.6679769031928159  0.4372613395785477  0.8626112398155922  1.0000
  C   C12       1.0  0.3320239073505035  0.5627401522197318  0.1373874965656867  1.0000
  N   N1        1.0  0.9897124274040651  0.9207567073215441  0.7721375904194613  1.0000
  N   N2        1.0  0.010288864078738408  0.07924340034065838  0.22786230415773187  1.0000
  N   N3        1.0  0.14199493940220978  0.9424493779900373  0.7258176546541931  1.0000
  N   N4        1.0  0.8580049954417817  0.05755073131492589  0.27418178526505693  1.0000
  N   N5        1.0  0.0935000842922022  0.0572177091312369  0.844101805162367  1.0000
  N   N6        1.0  0.9065012058468727  0.9427824022027307  0.15589751829227783  1.0000
  N   N7        1.0  0.37612810144808156  0.07414809176471947  0.7490200182173152  1.0000
  N   N8        1.0  0.6238736642555623  0.9258506501202318  0.25097817894302915  1.0000
  N   N9        1.0  0.9568328231516293  0.9876723086506302  0.8434955205202141  1.0000
  N   N10       1.0  0.043167990079148004  0.012329175804119097  0.15650435810617577  1.0000
  N   N11       1.0  0.2658200996097619  0.7685006873993597  0.9721387437433292  1.0000
  N   N12       1.0  0.734180313486256  0.23149804511305658  0.02786071212672427  1.0000
  N   N13       1.0  0.974055088654545  0.6513101024258816  0.6268876886002486  1.0000
  N   N14       1.0  0.02594532578520868  0.34868862641476983  0.3731123383923672  1.0000
  N   N15       1.0  0.07492476087789161  0.5128152537833444  0.7350820072729363  1.0000
  N   N16       1.0  0.9250756535618622  0.4871834750573071  0.2649180197196727  1.0000
  N   N17       1.0  0.14863275835648448  0.3936408058482  0.6768565325969929  1.0000
  N   N18       1.0  0.8513676560832621  0.6063579229924442  0.32314349439562295  1.0000
  N   N19       1.0  0.08802321276790785  0.4755452100669046  0.6124517211084849  1.0000
  N   N20       1.0  0.9119772016718457  0.5244535187737469  0.3875483058841309  1.0000
  N   N21       1.0  0.6445004190040465  0.45358518587485713  0.7804858067805325  1.0000
  N   N22       1.0  0.35549856067962093  0.5464176733434413  0.219514172359652  1.0000
  N   N23       1.0  0.537497516034449  0.5649179024269628  0.6764789415077315  1.0000
  N   N24       1.0  0.4625028970615688  0.4350808300854466  0.32352051436232176  1.0000
  N   N25       1.0  0.7402789379360686  0.3213166448513932  0.730890547823243  1.0000
  N   N26       1.0  0.2597214791911425  0.6786820766457282  0.2691106214144766  1.0000
  N   N27       1.0  0.5219558017277207  0.6018500751076773  0.7497873282443803  1.0000
  N   N28       1.0  0.47804413446000643  0.3981500305255209  0.25021268279741793  1.0000
  N   N29       1.0  0.7254893463188025  0.2993101529139182  0.59484972759639  1.0000
  N   N30       1.0  0.2745082753823241  0.7006927116189059  0.4051492257632957  1.0000
  N   N31       1.0  0.3432738652140872  0.6088896552367659  0.9347397233822501  1.0000
  N   N32       1.0  0.6567274249249876  0.3911104560972021  0.06525960007238749  1.0000
  N   N33       1.0  0.5655581119944914  0.7418439139646081  0.9257049844315615  1.0000
  N   N34       1.0  0.4344413445974737  0.25815757213290874  0.07429443953687809  1.0000
  N   N35       1.0  0.39900282858140906  0.8475866865732015  0.9669337875433893  1.0000
  N   N36       1.0  0.6009957509675062  0.15241342070275715  0.033065768840465574  1.0000
  O   O1        1.0  0.9352614241120137  0.4965845384144172  0.10377909886737764  1.0000
  O   O2        1.0  0.06473572605573713  0.5034196845521349  0.8962226941542678  1.0000
  O   O3        1.0  0.47133789587695674  0.0266134354085352  0.6833222797587835  1.0000
  O   O4        1.0  0.528660685015687  0.9733866681956584  0.31667784774762703  1.0000
  O   O5        1.0  0.2603050609274505  0.20750559331560223  0.4925155388444579  1.0000
  O   O6        1.0  0.7396939982172126  0.7924931334960376  0.507484604612756  1.0000
  O   O7        1.0  0.41869105026766124  0.1549232156914897  0.7963438279674404  1.0000
  O   O8        1.0  0.5813124735532825  0.8450782728212756  0.2036558177297322  1.0000
  O   O9        1.0  0.8470393756853554  0.14345864577769163  0.5926312272816714  1.0000
  O   O10       1.0  0.15296286961404354  0.8565387156429405  0.40736755695203186  1.0000
  O   O11       1.0  0.6431415829284504  0.3809212316998439  0.5405279666946398  1.0000
  O   O12       1.0  0.35685835594673426  0.6190788665898238  0.4594731865922697  1.0000
