data_image0
_chemical_formula_structural       In6H24C72O48
_chemical_formula_sum              "In6 H24 C72 O48"
_cell_length_a       17.88345755928304
_cell_length_b       17.883593539147718
_cell_length_c       17.883716145757486
_cell_angle_alpha    109.47113311119355
_cell_angle_beta     109.47067038973826
_cell_angle_gamma    109.47181597234983

_space_group_name_H-M_alt    "P 1"
_space_group_IT_number       1

loop_
  _space_group_symop_operation_xyz
  'x, y, z'

loop_
  _atom_site_type_symbol
  _atom_site_label
  _atom_site_symmetry_multiplicity
  _atom_site_fract_x
  _atom_site_fract_y
  _atom_site_fract_z
  _atom_site_occupancy
  In  In1       1.0  0.8749986630261047  0.7500066206829177  0.12500107263885218  1.0000
  In  In2       1.0  0.6249957379668131  0.24999873089161187  0.3750004503787707  1.0000
  In  In3       1.0  0.7500001773631909  0.8750077762878804  0.6250008810548806  1.0000
  In  In4       1.0  0.24998941326732174  0.6250019397811497  0.8749981764382112  1.0000
  In  In5       1.0  0.12499316632521834  0.3749914785300987  0.24999625753417115  1.0000
  In  In6       1.0  0.3749961455404147  0.12499398472530043  0.7500033750003468  1.0000
  H   H1        1.0  0.5446454608225793  0.6649518397252836  0.983239763900599  1.0000
  H   H2        1.0  0.8182856702470572  0.8350426634450658  0.879707039516468  1.0000
  H   H3        1.0  0.6817166327272729  0.061426032703813874  0.5167545742453113  1.0000
  H   H4        1.0  0.9553340762032647  0.43858253117826257  0.6202949455633088  1.0000
  H   H5        1.0  0.5614085801902676  0.01675309361834129  0.6817006135998299  1.0000
  H   H6        1.0  0.9385603722584009  0.1202877791768914  0.955326524871481  1.0000
  H   H7        1.0  0.16496262352067964  0.48324037236213263  0.5446645065117294  1.0000
  H   H8        1.0  0.335041619025205  0.379690067186168  0.8182659030367462  1.0000
  H   H9        1.0  0.8796989927689937  0.3182701537671806  0.3350388925733654  1.0000
  H   H10       1.0  0.9832493099155285  0.04467190091048695  0.16495802296266507  1.0000
  H   H11       1.0  0.6203076440570571  0.45535634343504955  0.9385880577871433  1.0000
  H   H12       1.0  0.5167734890976377  0.18173564377404727  0.5614361758385159  1.0000
  H   H13       1.0  0.37969702577684233  0.3350400868823941  0.3182872215860116  1.0000
  H   H14       1.0  0.4832503792621382  0.16495664089077178  0.04467308032704416  1.0000
  H   H15       1.0  0.12030194421833335  0.9385750754918547  0.4553386954628777  1.0000
  H   H16       1.0  0.0167644661422557  0.561418052318011  0.18173350025766408  1.0000
  H   H17       1.0  0.04466107050717477  0.9832287066133105  0.6649537913166553  1.0000
  H   H18       1.0  0.318285351578652  0.8797095331863575  0.8350412758777565  1.0000
  H   H19       1.0  0.1817290438395105  0.5167716962558941  0.06143103544687983  1.0000
  H   H20       1.0  0.4553442772336709  0.6203004130140002  0.4385789070176214  1.0000
  H   H21       1.0  0.06139691823196366  0.6816957961558999  0.016754915337322877  1.0000
  H   H22       1.0  0.4385601706906854  0.9553269796926145  0.12028730337184608  1.0000
  H   H23       1.0  0.6649644211920033  0.5446630927320016  0.4832356317472203  1.0000
  H   H24       1.0  0.8350396199978789  0.8182881083160255  0.3797027629014949  1.0000
  C   C1        1.0  0.525168157615667  0.5928440780977056  0.9528403584553471  1.0000
  C   C2        1.0  0.8599899805679385  0.907144031632818  0.9323227875761545  1.0000
  C   C3        1.0  0.640006224296279  0.07234213761752531  0.5471553181444548  1.0000
  C   C4        1.0  0.9748180338025065  0.42766515789893594  0.5676748994339463  1.0000
  C   C5        1.0  0.5723323156352366  0.04715451275090751  0.6400031642962886  1.0000
  C   C6        1.0  0.9276533932708801  0.06766693454637374  0.9748112993643332  1.0000
  C   C7        1.0  0.09285782127871293  0.45284579346456155  0.525186094046944  1.0000
  C   C8        1.0  0.407146719416005  0.43231838678824647  0.8599809782370472  1.0000
  C   C9        1.0  0.9323305271068208  0.3599893168264503  0.4071505788978414  1.0000
  C   C10       1.0  0.9528460273135763  0.0251895841349852  0.09284604461417717  1.0000
  C   C11       1.0  0.567674439869066  0.47482079385470405  0.927660151380458  1.0000
  C   C12       1.0  0.5471624755139644  0.1400224901469472  0.5723469044539727  1.0000
  C   C13       1.0  0.4323352437420311  0.40715332789441316  0.3600012043738444  1.0000
  C   C14       1.0  0.45285131420047975  0.09285531574584381  0.025193632922111027  1.0000
  C   C15       1.0  0.06767336495129694  0.9276588109475484  0.4748190489168067  1.0000
  C   C16       1.0  0.04715740110769669  0.5723334427449274  0.1400158039791464  1.0000
  C   C17       1.0  0.02517827984669911  0.9528361478176136  0.592849919701905  1.0000
  C   C18       1.0  0.35999199740169985  0.9323338569108301  0.9071442681935763  1.0000
  C   C19       1.0  0.14001366715906738  0.5471656371004486  0.07234302137199931  1.0000
  C   C20       1.0  0.4748256333922429  0.5676796084481028  0.4276663545192959  1.0000
  C   C21       1.0  0.07232811955972811  0.640004814480676  0.04715757935036886  1.0000
  C   C22       1.0  0.4276554674954768  0.9748185499576396  0.0676690495481438  1.0000
  C   C23       1.0  0.5928585954912506  0.5251809835357619  0.4528412361804115  1.0000
  C   C24       1.0  0.9071441509907529  0.8599914079129435  0.43232615664459917  1.0000
  C   C25       1.0  0.6908529996454719  0.6390451846865164  0.02273427780373548  1.0000
  C   C26       1.0  0.8837035335889426  0.8609694418078819  0.0518213932291545  1.0000
  C   C27       1.0  0.6162996070391175  0.16811967795160862  0.4772669081273407  1.0000
  C   C28       1.0  0.8091569267066135  0.3318897060392489  0.44819154262619076  1.0000
  C   C29       1.0  0.6681135092965533  0.9772703334648725  0.6162951082775335  1.0000
  C   C30       1.0  0.8318810852105116  0.9481805989499749  0.809152715173802  1.0000
  C   C31       1.0  0.13903234712674375  0.5227218596099946  0.6908460513105937  1.0000
  C   C32       1.0  0.3609523272522779  0.5517802982411695  0.8836782306901084  1.0000
  C   C33       1.0  0.05182123378621382  0.3837013577815114  0.3609722298211863  1.0000
  C   C34       1.0  0.022726949862729388  0.19084793840817577  0.13901837562007557  1.0000
  C   C35       1.0  0.44820146189702104  0.3091570766934808  0.8318838358825928  1.0000
  C   C36       1.0  0.477268153713169  0.11630852241808058  0.6681171689443275  1.0000
  C   C37       1.0  0.5518148722907908  0.3609712158850515  0.3836988769670385  1.0000
  C   C38       1.0  0.5227280340882886  0.13902738754740804  0.19084679478014982  1.0000
  C   C39       1.0  0.9481890121604623  0.8318770432618053  0.3091492971799  1.0000
  C   C40       1.0  0.9772722001193159  0.6681154462747046  0.11632075762850017  1.0000
  C   C41       1.0  0.19085417964842596  0.02272951178766664  0.6390329597838261  1.0000
  C   C42       1.0  0.3837026672190761  0.05182544704214116  0.860973558086208  1.0000
  C   C43       1.0  0.11631334982947555  0.47727202230002774  0.1681169753352093  1.0000
  C   C44       1.0  0.30916110377498274  0.4482021002002056  0.3318890775486593  1.0000
  C   C45       1.0  0.1681103390574919  0.6163045469652816  0.9772715927937057  1.0000
  C   C46       1.0  0.331875772895991  0.809147073066555  0.9481722556920218  1.0000
  C   C47       1.0  0.6390399490949434  0.6908438874813287  0.522728652929871  1.0000
  C   C48       1.0  0.8609636097263476  0.883698117445981  0.5518090585450678  1.0000
  C   C49       1.0  0.5924430048454854  0.5673841795559584  0.9665291202296374  1.0000
  C   C50       1.0  0.8991554945285644  0.932631115147828  0.025076963414960622  1.0000
  C   C51       1.0  0.6008520480161508  0.1259291654335827  0.5334699396537061  1.0000
  C   C52       1.0  0.9075507359922668  0.3740783871310145  0.4749236099874923  1.0000
  C   C53       1.0  0.6259245279281487  0.03347129186835932  0.600833600555987  1.0000
  C   C54       1.0  0.8740735746241838  0.9749226472620195  0.9075467498947131  1.0000
  C   C55       1.0  0.06737234019043116  0.46652708412759847  0.5924504382763941  1.0000
  C   C56       1.0  0.43262290467743003  0.525069593247423  0.89915057558283  1.0000
  C   C57       1.0  0.025077889958787108  0.39915045225909307  0.4326265528864538  1.0000
  C   C58       1.0  0.9665282969613429  0.09246072550878666  0.06737007549010345  1.0000
  C   C59       1.0  0.4749248584206356  0.4075494218663493  0.8740758694467629  1.0000
  C   C60       1.0  0.5334714657695869  0.10085132317782106  0.6259197249152706  1.0000
  C   C61       1.0  0.5250792541718354  0.43262540351099693  0.3991563537299712  1.0000
  C   C62       1.0  0.46653103855829403  0.06736743787730867  0.09246495082655314  1.0000
  C   C63       1.0  0.9749202452813464  0.8740730090819682  0.4075491287507446  1.0000
  C   C64       1.0  0.03346493081826911  0.6259097560897615  0.10085017163027027  1.0000
  C   C65       1.0  0.09245146395649351  0.9665230447219957  0.5673785522333288  1.0000
  C   C66       1.0  0.3991591044433421  0.025077035200681268  0.932630268093611  1.0000
  C   C67       1.0  0.1008547010480214  0.5334726545920105  0.12593100003424235  1.0000
  C   C68       1.0  0.4075587322288285  0.4749317639250635  0.3740840285287774  1.0000
  C   C69       1.0  0.12591545420293218  0.6008375171854112  0.033472457211580195  1.0000
  C   C70       1.0  0.37407695022294274  0.9075518498163718  0.9749266458686563  1.0000
  C   C71       1.0  0.5673744533849145  0.5924462896587386  0.46652601444232994  1.0000
  C   C72       1.0  0.9326249101380099  0.8991514997843241  0.525076506112171  1.0000
  O   O1        1.0  0.751769411707478  0.6141416990134658  0.030083336732339056  1.0000
  O   O2        1.0  0.9159534361736023  0.8858842730420876  0.13764471572876144  1.0000
  O   O3        1.0  0.5840403528296747  0.2216908813741583  0.46991945865925533  1.0000
  O   O4        1.0  0.7482340691527227  0.2783153294176728  0.3623574605274271  1.0000
  O   O5        1.0  0.7216873411628483  0.969925453644919  0.5840343882394308  1.0000
  O   O6        1.0  0.7783054086219179  0.8623575312701989  0.7482273350586153  1.0000
  O   O7        1.0  0.11412939895780032  0.5300776636890987  0.7517652447423656  1.0000
  O   O8        1.0  0.3858443260766933  0.6376084108662425  0.9159318977191973  1.0000
  O   O9        1.0  0.13763726832284112  0.415945626438358  0.38586872839602643  1.0000
  O   O10       1.0  0.030073582939763803  0.2517677842885249  0.11410910763216715  1.0000
  O   O11       1.0  0.3623756293113019  0.2482375179134735  0.7783201498390824  1.0000
  O   O12       1.0  0.46992454006092294  0.08406061229497656  0.7216903372419453  1.0000
  O   O13       1.0  0.6376385713258302  0.3858735249851436  0.4159561769471054  1.0000
  O   O14       1.0  0.5300748816333681  0.11411394727693407  0.25177173281776544  1.0000
  O   O15       1.0  0.8623691520519043  0.7783137657731771  0.2482387888851603  1.0000
  O   O16       1.0  0.9699217930988125  0.721678492300704  0.08407017539314401  1.0000
  O   O17       1.0  0.2517671290867511  0.030073387661950293  0.6141278418778953  1.0000
  O   O18       1.0  0.4159564622439119  0.1376477081340752  0.8858849695702986  1.0000
  O   O19       1.0  0.08405938254341547  0.4699162119320591  0.22168513102439383  1.0000
  O   O20       1.0  0.2482330800959289  0.3623669395377007  0.278309415509824  1.0000
  O   O21       1.0  0.22167942614945702  0.5840372862346613  0.9699150593393496  1.0000
  O   O22       1.0  0.27829752371734173  0.7482274268757864  0.8623538674329437  1.0000
  O   O23       1.0  0.6141414414927697  0.7517690028907328  0.5300832373218968  1.0000
  O   O24       1.0  0.8858708018651811  0.9159566921179236  0.6376364450300966  1.0000
  O   O25       1.0  0.7154012447073795  0.7231215914461799  0.06389047978274212  1.0000
  O   O26       1.0  0.8407872759752522  0.7769031095016034  0.9923121394792389  1.0000
  O   O27       1.0  0.6592195731747026  0.15152629773636062  0.43610728606866905  1.0000
  O   O28       1.0  0.784581933183297  0.3484790830708278  0.5076954271952374  1.0000
  O   O29       1.0  0.6515198207755333  0.9361161815307923  0.6592150047253894  1.0000
  O   O30       1.0  0.8484744801445886  0.007689109847490447  0.7845830717909765  1.0000
  O   O31       1.0  0.22311077392618012  0.5638791433746349  0.7154098779567163  1.0000
  O   O32       1.0  0.276873061278515  0.4922745345011281  0.8407665873948744  1.0000
  O   O33       1.0  0.9923035332765621  0.34078565265275546  0.2768946454876726  1.0000
  O   O34       1.0  0.06388445574788193  0.21541807358643442  0.2230996886924004  1.0000
  O   O35       1.0  0.5077243852341341  0.2846058467479083  0.8484869788957498  1.0000
  O   O36       1.0  0.4361090921929645  0.15922472911142915  0.6515131909285827  1.0000
  O   O37       1.0  0.49229486103048  0.2768933995304792  0.3407796855522278  1.0000
  O   O38       1.0  0.5638834407539691  0.22309916303814267  0.21541281676209686  1.0000
  O   O39       1.0  0.007706992585149046  0.8484752155985406  0.2845989799261801  1.0000
  O   O40       1.0  0.9361096623364914  0.651508001183153  0.1592378493623697  1.0000
  O   O41       1.0  0.2154090885232022  0.06388453211107493  0.7231036128480496  1.0000
  O   O42       1.0  0.3407844986281034  0.9923045189861173  0.7768952090027241  1.0000
  O   O43       1.0  0.15923581695746944  0.4361209896225589  0.15152145437728845  1.0000
  O   O44       1.0  0.2845951470390701  0.5077080189424236  0.3484827527300283  1.0000
  O   O45       1.0  0.15151684520252234  0.6592233855381053  0.9361154123294141  1.0000
  O   O46       1.0  0.34847701527988306  0.7845784821560642  0.007683268647987601  1.0000
  O   O47       1.0  0.7231238224803962  0.7154117530042898  0.5639008600605422  1.0000
  O   O48       1.0  0.7768920543314409  0.8407812323074922  0.49230661213222504  1.0000
