data_image0
_chemical_formula_structural       Zn3H26C40N2O16
_chemical_formula_sum              "Zn3 H26 C40 N2 O16"
_cell_length_a       8.940522135476353
_cell_length_b       10.121409866253305
_cell_length_c       10.989568498029033
_cell_angle_alpha    100.51392645187268
_cell_angle_beta     89.02997377311152
_cell_angle_gamma    105.88668382125634

_space_group_name_H-M_alt    "P 1"
_space_group_IT_number       1

loop_
  _space_group_symop_operation_xyz
  'x, y, z'

loop_
  _atom_site_type_symbol
  _atom_site_label
  _atom_site_symmetry_multiplicity
  _atom_site_fract_x
  _atom_site_fract_y
  _atom_site_fract_z
  _atom_site_occupancy
  Zn  Zn1       1.0  0.49128774446820245  0.9529784488902421  0.06172026805887746  1.0000
  Zn  Zn2       1.0  0.6032828569947527  0.7555243248834955  0.2311738017909022  1.0000
  Zn  Zn3       1.0  0.2874069711860372  0.7723137759517514  0.5811380799305823  1.0000
  H   H1        1.0  0.8693039646475712  0.42025138524052613  0.3067537092360269  1.0000
  H   H2        1.0  0.6948315227452326  0.37117070353847487  0.12372488434525052  1.0000
  H   H3        1.0  0.02960534265438505  0.6769656640317124  0.960864910434111  1.0000
  H   H4        1.0  0.696922803562572  0.8333328198112115  0.7413538624289586  1.0000
  H   H5        1.0  0.8204316222983794  0.741803913496021  0.5501561066787843  1.0000
  H   H6        1.0  0.9137177404335048  0.5298402052228327  0.5437763215188696  1.0000
  H   H7        1.0  0.8803848347150095  0.4114509804845882  0.7269338556631126  1.0000
  H   H8        1.0  0.7704714663274573  0.022838292437370504  0.6843136165318882  1.0000
  H   H9        1.0  0.11889663842631394  0.31577150571249757  0.5187888575598976  1.0000
  H   H10       1.0  0.9520318087866998  0.25575133056464955  0.32892039420474356  1.0000
  H   H11       1.0  0.9038390364865379  0.29420016888715145  0.9150132517942637  1.0000
  H   H12       1.0  0.8710758873779199  0.18910790767565544  0.10509156290839168  1.0000
  H   H13       1.0  0.9737386358168366  0.9825759120425135  0.11237095488260002  1.0000
  H   H14       1.0  0.09807010122405312  0.8840008774942807  0.9276190318059889  1.0000
  H   H15       1.0  0.518792934530559  0.0041110086220613  0.8098336779049973  1.0000
  H   H16       1.0  0.468216304974824  0.17046058291558813  0.6909874705632503  1.0000
  H   H17       1.0  0.3614618299904323  0.40598308369143155  0.03738422166672709  1.0000
  H   H18       1.0  0.4102869728011811  0.22442466321033552  0.14093481456502127  1.0000
  H   H19       1.0  0.21494652264429706  0.6813864826154586  0.8154090600886477  1.0000
  H   H20       1.0  0.24917145844994346  0.5010388139442554  0.9306035073147498  1.0000
  H   H21       1.0  0.5042379803131923  0.35581010882816605  0.6200416254053067  1.0000
  H   H22       1.0  0.44921198540517093  0.5366732999134385  0.5163553499859789  1.0000
  H   H23       1.0  0.9130844167773661  0.7351214015330286  0.278202260372808  1.0000
  H   H24       1.0  0.8927826634947567  0.8692477877051843  0.36576596721172894  1.0000
  H   H25       1.0  0.4193119366459896  0.5291507207406597  0.2953921378308948  1.0000
  H   H26       1.0  0.5886317759674357  0.5105303379409635  0.3124551309841266  1.0000
  C   C1        1.0  0.25905451681158104  0.7367782218149302  0.13369451156145828  1.0000
  C   C2        1.0  0.163752233415913  0.5952843886276471  0.3474688597970754  1.0000
  C   C3        1.0  0.09860811758768054  0.6421383795497776  0.13687825397157383  1.0000
  C   C4        1.0  0.05651589665986025  0.5693540234610454  0.23548611493617239  1.0000
  C   C5        1.0  0.9082853707394707  0.4747501948482267  0.23023574545635478  1.0000
  C   C6        1.0  0.8077461441219215  0.44750742527123316  0.12786482864004967  1.0000
  C   C7        1.0  0.8524879392867748  0.5190280815885729  0.03006322934888319  1.0000
  C   C8        1.0  0.9959293072550679  0.6186549611235678  0.03553718471309249  1.0000
  C   C9        1.0  0.7778722876575089  0.5601262310490895  0.8356596027855331  1.0000
  C   C10       1.0  0.727016787716437  0.6810992699046923  0.8425936600034588  1.0000
  C   C11       1.0  0.7411671173561772  0.7425927013342104  0.736819753178345  1.0000
  C   C12       1.0  0.8076900293325837  0.6901456241590936  0.6299670616447273  1.0000
  C   C13       1.0  0.8597228610974171  0.5713654905410833  0.6261711656674719  1.0000
  C   C14       1.0  0.8432270270128512  0.5056762338785247  0.7285988523737499  1.0000
  C   C15       1.0  0.658235943326673  0.7466198207084318  0.9553782731980432  1.0000
  C   C16       1.0  0.6663751853891712  0.08859620744207321  0.284221116477525  1.0000
  C   C17       1.0  0.5719740867847919  0.9158211524415666  0.49448411613268217  1.0000
  C   C18       1.0  0.7675189158458054  0.10127324685163334  0.3954593981357846  1.0000
  C   C19       1.0  0.7192691765596424  0.03161912123093202  0.4953497498878576  1.0000
  C   C20       1.0  0.8109452797258855  0.0718777519913658  0.6051516867344162  1.0000
  C   C21       1.0  0.9530979052481926  0.1738135509160585  0.6137025725763081  1.0000
  C   C22       1.0  0.006008810036284731  0.23850483354600985  0.5128818200217111  1.0000
  C   C23       1.0  0.9118786722877774  0.20343303282764685  0.4064946695021803  1.0000
  C   C24       1.0  0.014532701563851405  0.1462107611514085  0.8167275467368427  1.0000
  C   C25       1.0  0.9440993411806532  0.20298644046314962  0.9196070987013343  1.0000
  C   C26       1.0  0.9271949892546447  0.1438944603668162  0.02589396238793279  1.0000
  C   C27       1.0  0.9835051756721498  0.0288975087150973  0.029494644397118505  1.0000
  C   C28       1.0  0.051740844016272526  0.9722052104427732  0.9254567631327645  1.0000
  C   C29       1.0  0.06655104439712288  0.026876953311415302  0.8158996168657922  1.0000
  C   C30       1.0  0.13696857600935183  0.9571035256266355  0.7055136865391205  1.0000
  C   C31       1.0  0.4843355481405283  0.0949101896192417  0.8568146511600361  1.0000
  C   C32       1.0  0.45680147375812646  0.1908959420584965  0.7908572128446778  1.0000
  C   C33       1.0  0.4097963230664449  0.3059378866653121  0.8528686411664735  1.0000
  C   C34       1.0  0.39207121779620735  0.31740093326292407  0.9813828873659247  1.0000
  C   C35       1.0  0.42045394513177575  0.2169445903084224  0.041180503351391486  1.0000
  C   C36       1.0  0.27665163410723187  0.6053629751085694  0.7761683484310282  1.0000
  C   C37       1.0  0.2988172174599768  0.5055684485693988  0.839894801009379  1.0000
  C   C38       1.0  0.38155902695748983  0.4115522951817426  0.7862657193983651  1.0000
  C   C39       1.0  0.43696593849225  0.423412266396582  0.6672718839081425  1.0000
  C   C40       1.0  0.4092072117820181  0.5253721350836714  0.6088643844048036  1.0000
  N   N1        1.0  0.46689099558022923  0.10730529493304891  0.9801233881552348  1.0000
  N   N2        1.0  0.33024477432441307  0.6154763162191728  0.6619111178005638  1.0000
  O   O1        1.0  0.27439824381372807  0.8465863951405836  0.08654609461386542  1.0000
  O   O2        1.0  0.36776296020450877  0.6970136496235143  0.1732325256534395  1.0000
  O   O3        1.0  0.16107137033021962  0.705703845142537  0.42633018794511196  1.0000
  O   O4        1.0  0.23911810495795296  0.5099458472066161  0.3587673605126867  1.0000
  O   O5        1.0  0.7509377938116018  0.4816726869542052  0.9294762147644419  1.0000
  O   O6        1.0  0.68121930402247  0.7140615890063984  0.05822424298152378  1.0000
  O   O7        1.0  0.5827670987757615  0.832617209441395  0.9372535468897566  1.0000
  O   O8        1.0  0.6215943988922206  0.9664363347199015  0.21020810567438988  1.0000
  O   O9        1.0  0.6325441117923063  0.19347627480046728  0.2627910569228362  1.0000
  O   O10       1.0  0.5339446126375834  0.8125898428991365  0.40586100814705617  1.0000
  O   O11       1.0  0.4907172744603231  0.9234937349435628  0.5911467956086227  1.0000
  O   O12       1.0  0.04323773549447203  0.22129139408387752  0.7202737912330051  1.0000
  O   O13       1.0  0.14667869186626364  0.9975374763441284  0.604349686356528  1.0000
  O   O14       1.0  0.1850796257004746  0.8522463237842147  0.7259109765475316  1.0000
  O   O15       1.0  0.8356265976025841  0.7821876927052644  0.31312237802553966  1.0000
  O   O16       1.0  0.5248888341068394  0.5417673528003705  0.25917598593945  1.0000
