data_image0
_chemical_formula_structural       Cu2Ag4H12C28N4O20
_chemical_formula_sum              "Cu2 Ag4 H12 C28 N4 O20"
_cell_length_a       7.006316400208415
_cell_length_b       7.00633578519302
_cell_length_c       17.134625546329637
_cell_angle_alpha    84.04380824042171
_cell_angle_beta     84.04356900121127
_cell_angle_gamma    66.9637352646928

_space_group_name_H-M_alt    "P 1"
_space_group_IT_number       1

loop_
  _space_group_symop_operation_xyz
  'x, y, z'

loop_
  _atom_site_type_symbol
  _atom_site_label
  _atom_site_symmetry_multiplicity
  _atom_site_fract_x
  _atom_site_fract_y
  _atom_site_fract_z
  _atom_site_occupancy
  Cu  Cu1       1.0  0.08269949206253116  0.9172996565611341  0.2500045248220886  1.0000
  Cu  Cu2       1.0  0.9172862009885634  0.0827012603266652  0.7500011067037207  1.0000
  Ag  Ag1       1.0  0.29098035450044796  0.28326304145817716  0.2929458190340171  1.0000
  Ag  Ag2       1.0  0.7167281349847413  0.7090265082771054  0.20705271199267378  1.0000
  Ag  Ag3       1.0  0.709014474934527  0.7167203095827759  0.7070515218562436  1.0000
  Ag  Ag4       1.0  0.2832645605230937  0.29098025692520213  0.7929434413484912  1.0000
  H   H1        1.0  0.43723255473920375  0.8464341325320107  0.8867084851307041  1.0000
  H   H2        1.0  0.15357196617122076  0.5627714466115706  0.6132938249676485  1.0000
  H   H3        1.0  0.5627782412268374  0.1535658147653152  0.11329988809323772  1.0000
  H   H4        1.0  0.8464455938864077  0.43723411060293677  0.386701008193306  1.0000
  H   H5        1.0  0.40166793972360193  0.6352350033153228  0.9920519498880296  1.0000
  H   H6        1.0  0.36476534544242173  0.5983632187102188  0.5079542962947272  1.0000
  H   H7        1.0  0.598366117009384  0.36475766262029913  0.007959035998361194  1.0000
  H   H8        1.0  0.6352392905764717  0.40167208551167016  0.4920436865484774  1.0000
  H   H9        1.0  0.130053700135484  0.3055967133563016  0.9906802420904268  1.0000
  H   H10       1.0  0.694402660082183  0.8699368911579057  0.5093265285796846  1.0000
  H   H11       1.0  0.869931679209948  0.6943980142934195  0.009326920472965086  1.0000
  H   H12       1.0  0.3055962366611523  0.1300404339038295  0.4906738419579426  1.0000
  C   C1        1.0  0.24963815280000293  0.7679330068511447  0.1006456852147579  1.0000
  C   C2        1.0  0.23206282245271836  0.7503797226043217  0.39935935751224605  1.0000
  C   C3        1.0  0.7503722273038776  0.23206064903781956  0.8993624782417626  1.0000
  C   C4        1.0  0.7679301551933477  0.24964124768470705  0.6006383236410642  1.0000
  C   C5        1.0  0.318651694190571  0.7763587068591845  0.022234350642996486  1.0000
  C   C6        1.0  0.22364601818465238  0.6813660962931041  0.477770156952289  1.0000
  C   C7        1.0  0.6813701983565678  0.2236352141029627  0.9777749077646122  1.0000
  C   C8        1.0  0.7763583016438459  0.31865496878531024  0.5222257178104357  1.0000
  C   C9        1.0  0.2794849541106644  0.9709232029829095  0.9812850032531274  1.0000
  C   C10       1.0  0.029077899012115428  0.7205229281981997  0.518721659929689  1.0000
  C   C11       1.0  0.7205203385402683  0.029068817298131894  0.018723535389710815  1.0000
  C   C12       1.0  0.9709257593528875  0.2794857243472819  0.48127669663987405  1.0000
  C   C13       1.0  0.16593957956681754  0.15198751037208066  0.020808756506056608  1.0000
  C   C14       1.0  0.8480114060930007  0.8340600537832897  0.4791985025895825  1.0000
  C   C15       1.0  0.8340577390072993  0.8480027995185537  0.979199738518247  1.0000
  C   C16       1.0  0.1519876365799036  0.16593134013812974  0.5208010746868581  1.0000
  C   C17       1.0  0.1032721433972128  0.12974540659543976  0.0997245794289299  1.0000
  C   C18       1.0  0.8702521866102515  0.8967263514392769  0.4002799256820992  1.0000
  C   C19       1.0  0.8967196475305247  0.8702508748547829  0.9002803864114028  1.0000
  C   C20       1.0  0.1297400383390865  0.10327112990590591  0.5997185242154472  1.0000
  C   C21       1.0  0.2872084350273453  0.5668311543764875  0.149602775732987  1.0000
  C   C22       1.0  0.433158961765706  0.7128166834231635  0.3503973379679479  1.0000
  C   C23       1.0  0.7128111520494683  0.433153053684542  0.8504018967427244  1.0000
  C   C24       1.0  0.5668266667301508  0.28720690504622576  0.6495935983735848  1.0000
  C   C25       1.0  0.9885516615826689  0.30814015468291  0.1505902005068123  1.0000
  C   C26       1.0  0.6918661725698384  0.0114385630087455  0.3494120197515542  1.0000
  C   C27       1.0  0.01142970515073939  0.691863591394778  0.8494114260854104  1.0000
  C   C28       1.0  0.3081329016704971  0.9885448150640314  0.6505844986751512  1.0000
  N   N1        1.0  0.14500987799284107  0.9420776115851693  0.13846366239910424  1.0000
  N   N2        1.0  0.05791979967877848  0.8549942200114771  0.3615422607459138  1.0000
  N   N3        1.0  0.8549849017152553  0.0579188468178202  0.8615434630510919  1.0000
  N   N4        1.0  0.9420728411327204  0.14500955274207436  0.638456398919054  1.0000
  O   O1        1.0  0.1957089529721472  0.5864895499205645  0.21923797271899303  1.0000
  O   O2        1.0  0.41347554251920143  0.8043032854254261  0.28075791115806226  1.0000
  O   O3        1.0  0.8042827211087414  0.41347659691594163  0.7807610884147351  1.0000
  O   O4        1.0  0.5864813559467662  0.19571969144613632  0.7192311582082525  1.0000
  O   O5        1.0  0.4009725054370534  0.39847825212564186  0.12117939373125351  1.0000
  O   O6        1.0  0.6015256786921198  0.5990853111025487  0.37881383356905474  1.0000
  O   O7        1.0  0.5990772136242413  0.6015204864719479  0.8788233703850636  1.0000
  O   O8        1.0  0.3984730623427525  0.40096147278179456  0.6211674836858947  1.0000
  O   O9        1.0  0.9876929578255158  0.2651319985455629  0.22490908929496103  1.0000
  O   O10       1.0  0.734895392136714  0.012290470178335497  0.2750923045660159  1.0000
  O   O11       1.0  0.012283951350987447  0.7348905403057628  0.7750934895264692  1.0000
  O   O12       1.0  0.2651187876096588  0.9876947200991638  0.7249038538205284  1.0000
  O   O13       1.0  0.8998332423461477  0.4873701221043305  0.11711434094691242  1.0000
  O   O14       1.0  0.5126305079868416  0.10014492259163181  0.3828814694295488  1.0000
  O   O15       1.0  0.10014217839398751  0.5126252542191807  0.8828799075758553  1.0000
  O   O16       1.0  0.4873648004451638  0.8998286881604046  0.6171099635286623  1.0000
  O   O17       1.0  0.3472568710759774  0.9870039287075727  0.9054816709600643  1.0000
  O   O18       1.0  0.012995765240965932  0.6527484040500581  0.5945216748230564  1.0000
  O   O19       1.0  0.6527462413900195  0.0129894891400326  0.0945245750818131  1.0000
  O   O20       1.0  0.98701407974918  0.3472586395633641  0.40547409000556905  1.0000
