data_image0
_chemical_formula_structural       Yb4H96C96N24O48
_chemical_formula_sum              "Yb4 H96 C96 N24 O48"
_cell_length_a       15.729301413071605
_cell_length_b       15.729314145705828
_cell_length_c       16.773031720025475
_cell_angle_alpha    90.00010096712197
_cell_angle_beta     89.99980004493348
_cell_angle_gamma    120.00001006267505

_space_group_name_H-M_alt    "P 1"
_space_group_IT_number       1

loop_
  _space_group_symop_operation_xyz
  'x, y, z'

loop_
  _atom_site_type_symbol
  _atom_site_label
  _atom_site_symmetry_multiplicity
  _atom_site_fract_x
  _atom_site_fract_y
  _atom_site_fract_z
  _atom_site_occupancy
  Yb  Yb1       1.0  0.6666669713996427  0.33333517966466525  0.1734311576609784  1.0000
  Yb  Yb2       1.0  0.3333349396264396  0.6666663898180757  0.3265694709653459  1.0000
  Yb  Yb3       1.0  0.3333327417214491  0.6666651241221614  0.8265703139878297  1.0000
  Yb  Yb4       1.0  0.6666651405509753  0.3333335469152201  0.6734308082922738  1.0000
  H   H1        1.0  0.7499761431425754  0.26308304576143354  0.9959334319004328  1.0000
  H   H2        1.0  0.7369124921729409  0.4868894410813169  0.9959318499469064  1.0000
  H   H3        1.0  0.5131080285454103  0.2500238588653899  0.9959326167451368  1.0000
  H   H4        1.0  0.2630849158837876  0.7499743903347421  0.5040670835920408  1.0000
  H   H5        1.0  0.2500257443743409  0.5131078942096465  0.5040675051413075  1.0000
  H   H6        1.0  0.4868893574886999  0.7369130765686263  0.504067898530245  1.0000
  H   H7        1.0  0.25002229846731444  0.7369159865137647  0.0040674435542627  1.0000
  H   H8        1.0  0.26308658519420913  0.513110226949692  0.0040684293121345  1.0000
  H   H9        1.0  0.48689151422792065  0.7499740722492517  0.004067662511701501  1.0000
  H   H10       1.0  0.7369155313488421  0.2500251793450302  0.4959325994695334  1.0000
  H   H11       1.0  0.7499752402612715  0.4868936810887874  0.4959327741161915  1.0000
  H   H12       1.0  0.5131097198784432  0.26308659146237545  0.495932380728796  1.0000
  H   H13       1.0  0.8089361939740911  0.15824963344239512  0.9336940530672707  1.0000
  H   H14       1.0  0.8417463882456174  0.6506866731876285  0.93369559926672  1.0000
  H   H15       1.0  0.3493134967681542  0.19106351073909164  0.9336948331906783  1.0000
  H   H16       1.0  0.15825141435616533  0.8089365790319504  0.5663047110260423  1.0000
  H   H17       1.0  0.19106266504203268  0.3493122196510257  0.5663054692614792  1.0000
  H   H18       1.0  0.6506862281677002  0.8417472003575738  0.5663045276574791  1.0000
  H   H19       1.0  0.19105923920832169  0.8417485927258994  0.0663050338062661  1.0000
  H   H20       1.0  0.158252322067419  0.34931336189688966  0.06630467999322322  1.0000
  H   H21       1.0  0.6506872191654125  0.8089370617500151  0.06630544606642272  1.0000
  H   H22       1.0  0.8417496686326159  0.19106362640363955  0.43369497203502055  1.0000
  H   H23       1.0  0.8089370480823703  0.6506880841357797  0.4336942138018998  1.0000
  H   H24       1.0  0.3493134849556014  0.15825310342923865  0.43369575160105  1.0000
  H   H25       1.0  0.5832542393541831  0.9052930101912224  0.0562293422180176  1.0000
  H   H26       1.0  0.09470231249725451  0.6779580590808577  0.0562299544249356  1.0000
  H   H27       1.0  0.32203937451521364  0.416745770779414  0.05622876961129461  1.0000
  H   H28       1.0  0.9052959564475672  0.5832536439920513  0.4437691018093872  1.0000
  H   H29       1.0  0.41674595802736303  0.32203862707521586  0.4437714745581331  1.0000
  H   H30       1.0  0.6779575497937387  0.09470305256428442  0.44377026228805516  1.0000
  H   H31       1.0  0.4167425636914999  0.09470511762585673  0.9437703408483316  1.0000
  H   H32       1.0  0.9052970335719337  0.3220426117594713  0.943770324834496  1.0000
  H   H33       1.0  0.6779610727163148  0.5832537989003725  0.9437715096454156  1.0000
  H   H34       1.0  0.0947062277046484  0.41674546028298204  0.556229985053811  1.0000
  H   H35       1.0  0.583253388042934  0.6779620437651133  0.5562282085061553  1.0000
  H   H36       1.0  0.32204179627655793  0.9052976182760373  0.5562294207762405  1.0000
  H   H37       1.0  0.4649421031377871  0.9132211327159894  0.13405327904886383  1.0000
  H   H38       1.0  0.08677599765021435  0.5517194699246134  0.13405300318235186  1.0000
  H   H39       1.0  0.44827866451854703  0.5350575116381151  0.1340535895598478  1.0000
  H   H40       1.0  0.9132225577455629  0.46494224844226295  0.3659464468477651  1.0000
  H   H41       1.0  0.535058537498557  0.44827862371899824  0.3659458601837855  1.0000
  H   H42       1.0  0.5517187032437931  0.08677581861752502  0.36594732228261506  1.0000
  H   H43       1.0  0.5350556043671945  0.08677863366622052  0.8659458078222216  1.0000
  H   H44       1.0  0.9132249869864991  0.44828210537382046  0.865946679880004  1.0000
  H   H45       1.0  0.551721146957931  0.4649414222858467  0.8659460935022382  1.0000
  H   H46       1.0  0.08677889229732476  0.5350575899398039  0.634053236212388  1.0000
  H   H47       1.0  0.46494117562585296  0.5517216800678069  0.6340538228795934  1.0000
  H   H48       1.0  0.448280374123357  0.9132238494134767  0.6340529569764255  1.0000
  H   H49       1.0  0.7279953971429336  0.9790989840490807  0.9653486536180366  1.0000
  H   H50       1.0  0.020896505606174197  0.7488935439846925  0.9653496214783317  1.0000
  H   H51       1.0  0.2511037157644084  0.27200468444286935  0.9653488496557329  1.0000
  H   H52       1.0  0.9791014841915102  0.7279953680356285  0.5346501069087068  1.0000
  H   H53       1.0  0.2720046731464692  0.2511032823663868  0.5346514667934698  1.0000
  H   H54       1.0  0.7488930704879098  0.020897679210058497  0.534650495016045  1.0000
  H   H55       1.0  0.27200204166000225  0.020899779523801995  0.034650433252664904  1.0000
  H   H56       1.0  0.9791022047079637  0.2511064910998185  0.0346500615864755  1.0000
  H   H57       1.0  0.748896364414108  0.7279952522904194  0.0346508334067437  1.0000
  H   H58       1.0  0.02089996585138452  0.2720044703464452  0.4653495761514463  1.0000
  H   H59       1.0  0.7279944042217823  0.748896385664608  0.465348216270435  1.0000
  H   H60       1.0  0.2511062755812858  0.9791029916302704  0.4653497842433865  1.0000
  H   H61       1.0  0.49481784592202155  0.11271568322548112  0.15374668164727012  1.0000
  H   H62       1.0  0.8872807581869467  0.38209646405864095  0.1537468578496473  1.0000
  H   H63       1.0  0.6178977268626795  0.5051828255251393  0.15374620864034227  1.0000
  H   H64       1.0  0.11271783095019579  0.494814725140074  0.34625247651754887  1.0000
  H   H65       1.0  0.5051817582354019  0.6178969857178558  0.3462537240263188  1.0000
  H   H66       1.0  0.3820970258066294  0.8872815671297615  0.34625236003432747  1.0000
  H   H67       1.0  0.5051819655533408  0.8872832506984948  0.8462535976099659  1.0000
  H   H68       1.0  0.1127203248018347  0.6179037413769491  0.8462528252114154  1.0000
  H   H69       1.0  0.3821026220167738  0.494818114017491  0.8462540706176682  1.0000
  H   H70       1.0  0.8872840844999745  0.5051833763256326  0.6537466103452588  1.0000
  H   H71       1.0  0.49481859064295014  0.3821039538247745  0.6537471514268275  1.0000
  H   H72       1.0  0.6179026873177804  0.11271873665704385  0.6537473230290586  1.0000
  H   H73       1.0  0.33241387958127405  0.9091773109637696  0.19524100006476885  1.0000
  H   H74       1.0  0.09082225386023877  0.42323668989247654  0.1952403974680976  1.0000
  H   H75       1.0  0.5767625660851223  0.6675856557714892  0.19524159220646448  1.0000
  H   H76       1.0  0.9091772772416037  0.33241337394249376  0.304758836537232  1.0000
  H   H77       1.0  0.6675861338808817  0.5767633048961329  0.30475764596577193  1.0000
  H   H78       1.0  0.4232368978212051  0.09082238247722071  0.30475824027671905  1.0000
  H   H79       1.0  0.6675854664879212  0.09082335987655893  0.8047592791946625  1.0000
  H   H80       1.0  0.9091797335889495  0.576765154108237  0.804758093202551  1.0000
  H   H81       1.0  0.4232365112831289  0.3324140122595054  0.8047580908574402  1.0000
  H   H82       1.0  0.09082407445253449  0.6675878343023951  0.6952390579387994  1.0000
  H   H83       1.0  0.33241357924352855  0.4232369988906796  0.695242037097614  1.0000
  H   H84       1.0  0.5767628153020968  0.909177921309592  0.6952420389818029  1.0000
  H   H85       1.0  0.3195002272394376  0.013990573931231194  0.1807557193953642  1.0000
  H   H86       1.0  0.9860101602217882  0.3055092635748551  0.1807554649692378  1.0000
  H   H87       1.0  0.6944892408676824  0.6804993178340125  0.1807556567070137  1.0000
  H   H88       1.0  0.01398965266112379  0.3194978558858351  0.31924306471540825  1.0000
  H   H89       1.0  0.6804987168651168  0.6944895642091569  0.3192434755712981  1.0000
  H   H90       1.0  0.3055091033489176  0.9860102352410464  0.31924313877198773  1.0000
  H   H91       1.0  0.6804991188297508  0.9860100969090978  0.8192445598640603  1.0000
  H   H92       1.0  0.013993197092879883  0.6944924820746294  0.8192424295039444  1.0000
  H   H93       1.0  0.3055101052026146  0.3195013530063163  0.819244026357275  1.0000
  H   H94       1.0  0.9860105258727716  0.6805007109845959  0.6807548297603532  1.0000
  H   H95       1.0  0.31950163201544524  0.30551137533345957  0.6807562074915766  1.0000
  H   H96       1.0  0.6944906097754926  0.013990068545758991  0.6807565442913981  1.0000
  C   C1        1.0  0.6342248633072103  0.1454309520226858  0.06242190494359079  1.0000
  C   C2        1.0  0.854568823669915  0.4887913775541078  0.06241884717307039  1.0000
  C   C3        1.0  0.5112053275886267  0.365775550122457  0.06241990406229551  1.0000
  C   C4        1.0  0.1454305190004419  0.6342212712216834  0.4375794984855546  1.0000
  C   C5        1.0  0.3657774989327293  0.511206267134625  0.43758082428114153  1.0000
  C   C6        1.0  0.4887912682107045  0.8545689215972345  0.4375803107417795  1.0000
  C   C7        1.0  0.3657742140588311  0.8545687160083233  0.937578970510593  1.0000
  C   C8        1.0  0.145430253697235  0.511208290476894  0.9375814320859703  1.0000
  C   C9        1.0  0.4887934810753693  0.6342231150992248  0.9375809713914975  1.0000
  C   C10       1.0  0.8545697578811018  0.36577592578593243  0.5624207807694789  1.0000
  C   C11       1.0  0.634224855563943  0.4887952098126079  0.5624212435594486  1.0000
  C   C12       1.0  0.5112078091575469  0.14543074643376744  0.5624193723221254  1.0000
  C   C13       1.0  0.7143092943240106  0.18472382578728014  0.008423816213074498  1.0000
  C   C14       1.0  0.8152730014889895  0.5295799893677821  0.008422743837620298  1.0000
  C   C15       1.0  0.4704154786724288  0.28569178833905795  0.008423106940675502  1.0000
  C   C16       1.0  0.18472539651090628  0.7143047051301039  0.4915762980560033  1.0000
  C   C17       1.0  0.28569394036512824  0.47041595255427626  0.4915771231854648  1.0000
  C   C18       1.0  0.5295798458412622  0.8152730644276432  0.4915764128672181  1.0000
  C   C19       1.0  0.28569015009724547  0.815275475190205  0.9915764630450637  1.0000
  C   C20       1.0  0.1847267116343119  0.47042031441903015  0.9915775354209017  1.0000
  C   C21       1.0  0.5295834283447435  0.7143055070197731  0.9915771723166813  1.0000
  C   C22       1.0  0.8152758831831123  0.2856927605797921  0.5084227888073302  1.0000
  C   C23       1.0  0.7143086828357994  0.5295865272022692  0.5084237522652302  1.0000
  C   C24       1.0  0.4704192315269893  0.18472660360335877  0.5084232701966797  1.0000
  C   C25       1.0  0.5858096161735631  0.04143134782719207  0.07795457017554241  1.0000
  C   C26       1.0  0.9585662225196073  0.5443750984563137  0.07795318338147442  1.0000
  C   C27       1.0  0.4556214509657721  0.4141905294996774  0.07795330337732762  1.0000
  C   C28       1.0  0.04143186009324752  0.5858063175170329  0.42204636060264283  1.0000
  C   C29       1.0  0.41419268751604216  0.4556211353704283  0.4220468345805983  1.0000
  C   C30       1.0  0.5443752902833695  0.9585672696076771  0.4220458451792979  1.0000
  C   C31       1.0  0.41419009694973846  0.9585689559596272  0.9220457090829797  1.0000
  C   C32       1.0  0.041433123550689274  0.4556255723840152  0.9220464996828142  1.0000
  C   C33       1.0  0.5443780918075588  0.5858074016149715  0.9220469758795105  1.0000
  C   C34       1.0  0.9585687838435106  0.4141905124370594  0.5779533224563451  1.0000
  C   C35       1.0  0.5858090312266883  0.5443797058209796  0.5779540408702316  1.0000
  C   C36       1.0  0.45562378708599033  0.041432398423310625  0.5779532416894567  1.0000
  C   C37       1.0  0.7470239620992202  0.12572530044262448  0.9749377149925423  1.0000
  C   C38       1.0  0.8742698899583063  0.6212948796322876  0.9749379166873383  1.0000
  C   C39       1.0  0.378701925691793  0.2529758961983218  0.9749366351189297  1.0000
  C   C40       1.0  0.12572825676196706  0.7470233712029639  0.5250617218422208  1.0000
  C   C41       1.0  0.2529774517196444  0.37870226641439325  0.5250635933233953  1.0000
  C   C42       1.0  0.6212948283249203  0.8742703599840664  0.5250616115022665  1.0000
  C   C43       1.0  0.25297347670151304  0.8742734631302724  0.0250625642684383  1.0000
  C   C44       1.0  0.12572945611088926  0.3787057912080413  0.0250623625720863  1.0000
  C   C45       1.0  0.6212972500274246  0.7470224019698362  0.0250636441388181  1.0000
  C   C46       1.0  0.8742738290381808  0.25297710293490644  0.4749373650222779  1.0000
  C   C47       1.0  0.7470235329159678  0.6212993088840475  0.4749366859341038  1.0000
  C   C48       1.0  0.3787042490444321  0.125729308046921  0.4749374753664952  1.0000
  C   C49       1.0  0.6210894704974168  0.9833293859703784  0.0423189198071867  1.0000
  C   C50       1.0  0.016667043232949735  0.6377579687354427  0.04231723919848918  1.0000
  C   C51       1.0  0.3622403944189756  0.3789111234253824  0.042317651230355594  1.0000
  C   C52       1.0  0.9833319050140474  0.6210905877190455  0.4576812188837564  1.0000
  C   C53       1.0  0.3789108554747501  0.3622399246110675  0.4576825910219  1.0000
  C   C54       1.0  0.6377577996134179  0.016667453161339486  0.4576824771585635  1.0000
  C   C55       1.0  0.3789083353563214  0.016669010549009006  0.9576819556480272  1.0000
  C   C56       1.0  0.9833323028373472  0.3622427021048792  0.9576824438657993  1.0000
  C   C57       1.0  0.637759318704326  0.6210891803614372  0.9576826280281666  1.0000
  C   C58       1.0  0.016670449484834583  0.3789108892281731  0.5423196565665549  1.0000
  C   C59       1.0  0.6210888576474505  0.6377603791757522  0.5423182844317651  1.0000
  C   C60       1.0  0.3622412777559346  0.9833322148696481  0.5423166097101982  1.0000
  C   C61       1.0  0.5004763133717562  0.9928223097661545  0.1261614516443075  1.0000
  C   C62       1.0  0.007174308418200263  0.5076500766776063  0.12616006965154014  1.0000
  C   C63       1.0  0.4923456499813669  0.4995237219409103  0.12616105669145844  1.0000
  C   C64       1.0  0.9928242524095124  0.5004747118364603  0.373838777117939  1.0000
  C   C65       1.0  0.4995240353788193  0.49234489215479016  0.3738383861358585  1.0000
  C   C66       1.0  0.5076499266174679  0.00717481274198654  0.37383916366886166  1.0000
  C   C67       1.0  0.4995227639931842  0.007177358264868865  0.8738400200050193  1.0000
  C   C68       1.0  0.9928260404623545  0.49235086286501684  0.8738396134113273  1.0000
  C   C69       1.0  0.507654797251263  0.500475847738862  0.8738386263701159  1.0000
  C   C70       1.0  0.007177295984341536  0.49952375668276977  0.6261615021360641  1.0000
  C   C71       1.0  0.5004766805547476  0.5076556803343166  0.6261618931212496  1.0000
  C   C72       1.0  0.4923497865069423  0.9928254910448259  0.6261605193945242  1.0000
  C   C73       1.0  0.7012299905200194  0.024460025983302047  0.992107530048621  1.0000
  C   C74       1.0  0.9755377245173309  0.6767676019636468  0.9921082167405757  1.0000
  C   C75       1.0  0.32323051029963784  0.2987709919486647  0.9921065877416096  1.0000
  C   C76       1.0  0.02446192652235629  0.7012291573088661  0.5078908336016853  1.0000
  C   C77       1.0  0.2987713869353144  0.3232296957099691  0.5078936485451563  1.0000
  C   C78       1.0  0.6767672204348403  0.9755385138462884  0.5078917805931341  1.0000
  C   C79       1.0  0.29876935554916884  0.975540644857027  0.0078927492108107  1.0000
  C   C80       1.0  0.02446162155185756  0.32323306887668923  0.007892062518855898  1.0000
  C   C81       1.0  0.6767703039859969  0.7012282106776055  0.007893691514205202  1.0000
  C   C82       1.0  0.975539523522748  0.29877068107318616  0.49210765706818893  1.0000
  C   C83       1.0  0.7012289619419293  0.6767712438326752  0.4921078231031332  1.0000
  C   C84       1.0  0.3232321256365651  0.024462156994026405  0.4921073062760115  1.0000
  C   C85       1.0  0.3676398587411499  0.9884776317249261  0.20534114986092078  1.0000
  C   C86       1.0  0.01152182238965344  0.3791609967796674  0.2053412289687344  1.0000
  C   C87       1.0  0.6208366935525902  0.6323600256662585  0.2053416327213142  1.0000
  C   C88       1.0  0.9884767787219245  0.36763773791002996  0.29465799771242024  1.0000
  C   C89       1.0  0.6323598248088942  0.6208367486221745  0.29465759827898813  1.0000
  C   C90       1.0  0.3791612185294468  0.011522031407956526  0.29465810497834605  1.0000
  C   C91       1.0  0.6323594873291468  0.011523039115402822  0.794658533203375  1.0000
  C   C92       1.0  0.9884788935472245  0.6208395757094181  0.7946572617029517  1.0000
  C   C93       1.0  0.37916301957292126  0.3676402781205467  0.7946574541469288  1.0000
  C   C94       1.0  0.011524671323172878  0.6323621004720295  0.705340492957454  1.0000
  C   C95       1.0  0.3676398883155089  0.3791635551646307  0.705342084784398  1.0000
  C   C96       1.0  0.620837858837703  0.9884776366230453  0.7053421742806946  1.0000
  N   N1        1.0  0.49198815852703615  0.283703755471997  0.26417707266607954  1.0000
  N   N2        1.0  0.7162947848085821  0.20828887988721323  0.26417843137055286  1.0000
  N   N3        1.0  0.7917128914681086  0.5080149387713034  0.2641749787125888  1.0000
  N   N4        1.0  0.28370399191769025  0.4919889085819875  0.23582254539322628  1.0000
  N   N5        1.0  0.5080136169946599  0.7917125346173249  0.235824810766843  1.0000
  N   N6        1.0  0.20828764236605213  0.7162939805534022  0.2358234507807424  1.0000
  N   N7        1.0  0.5080105517860003  0.7162962796125283  0.7358232065938637  1.0000
  N   N8        1.0  0.2837055640697628  0.791712059655417  0.7358224440825936  1.0000
  N   N9        1.0  0.2082874574113448  0.49198600077131976  0.7358253005454217  1.0000
  N   N10       1.0  0.7162970910710913  0.5080112968535957  0.7641771376678292  1.0000
  N   N11       1.0  0.4919854603735914  0.2082871334136698  0.7641748722970617  1.0000
  N   N12       1.0  0.7917118020529944  0.2837053204241045  0.764178020867675  1.0000
  N   N13       1.0  0.4596820106063647  0.037474125196425206  0.16197893943251526  1.0000
  N   N14       1.0  0.9625231151918429  0.4222044142885153  0.16197843408308188  1.0000
  N   N15       1.0  0.5777916968208672  0.5403184392302193  0.1619785659202435  1.0000
  N   N16       1.0  0.0374754917203646  0.4596796364045089  0.338020904399812  1.0000
  N   N17       1.0  0.5403178137191987  0.577790666029351  0.33802137077441324  1.0000
  N   N18       1.0  0.42220399106327045  0.9625236110224051  0.33802128649593044  1.0000
  N   N19       1.0  0.5403170667618868  0.9625255428345768  0.8380207436313897  1.0000
  N   N20       1.0  0.03747760074393372  0.5777961582005843  0.8380206527837402  1.0000
  N   N21       1.0  0.42220901911380077  0.45968213325888024  0.8380211171417217  1.0000
  N   N22       1.0  0.9625270594848631  0.540319100817008  0.6619787786576267  1.0000
  N   N23       1.0  0.4596816307009561  0.4222086349481414  0.6619795046788611  1.0000
  N   N24       1.0  0.5777950863038797  0.03747605700859678  0.6619789927631102  1.0000
  O   O1        1.0  0.6041416411273275  0.2005284971174817  0.0966489666384902  1.0000
  O   O2        1.0  0.7994692014404664  0.40360886056462414  0.09664404516392008  1.0000
  O   O3        1.0  0.5963867102458308  0.3958592516998179  0.09664556383513909  1.0000
  O   O4        1.0  0.20052957267852636  0.6041380759128145  0.40335360890220767  1.0000
  O   O5        1.0  0.3958612500260018  0.5963876371033975  0.4033538786855502  1.0000
  O   O6        1.0  0.4036087520323405  0.7994693758802  0.403354630266719  1.0000
  O   O7        1.0  0.3958588061019909  0.7994710725623121  0.903352505008506  1.0000
  O   O8        1.0  0.20053114743898717  0.5963920789780063  0.9033562340940902  1.0000
  O   O9        1.0  0.40361146266533154  0.6041387777660391  0.9033535230337435  1.0000
  O   O10       1.0  0.7994719757153275  0.39586039260642264  0.5966466703517951  1.0000
  O   O11       1.0  0.6041417402268223  0.4036144755996531  0.5966481891545287  1.0000
  O   O12       1.0  0.5963903253359109  0.20053029215080198  0.5966450527971786  1.0000
  O   O13       1.0  0.48949477718674234  0.23340665414514217  0.2031302299244473  1.0000
  O   O14       1.0  0.7665928390392623  0.25608935968513447  0.20313039094368424  1.0000
  O   O15       1.0  0.7439097837700076  0.5105039747487794  0.2031270614960192  1.0000
  O   O16       1.0  0.23340745935997384  0.48949465628484035  0.2968700271196169  1.0000
  O   O17       1.0  0.5105039389221702  0.7439092691082789  0.29687336090730554  1.0000
  O   O18       1.0  0.2560884012680377  0.7665915268411679  0.29687081549420213  1.0000
  O   O19       1.0  0.5105049359354583  0.7665936496416775  0.7968706455292176  1.0000
  O   O20       1.0  0.2334075098390898  0.7439115798574958  0.7968704845094621  1.0000
  O   O21       1.0  0.2560909321624578  0.4894965977403345  0.7968738139562247  1.0000
  O   O22       1.0  0.7665946264368629  0.5105058178530514  0.7031308483302966  1.0000
  O   O23       1.0  0.48949640995728316  0.25609167043434394  0.703126918350705  1.0000
  O   O24       1.0  0.743911678908276  0.23340840989213507  0.7031300599585607  1.0000
  O   O25       1.0  0.5755963373676068  0.36074092028165683  0.2784862790189279  1.0000
  O   O26       1.0  0.6392626160123953  0.21486647667341424  0.278489631158834  1.0000
  O   O27       1.0  0.7851450667100648  0.42440844250033627  0.27848658461977044  1.0000
  O   O28       1.0  0.36074058534310893  0.5755964293473427  0.2215132088237581  1.0000
  O   O29       1.0  0.4244074274330672  0.7851443311230781  0.2215132779529654  1.0000
  O   O30       1.0  0.21486467841769757  0.6392612890433398  0.221512308102497  1.0000
  O   O31       1.0  0.42440264164747543  0.6392601176121886  0.721514000241406  1.0000
  O   O32       1.0  0.3607377328648483  0.7851344628692232  0.7215118404894552  1.0000
  O   O33       1.0  0.21485564922350162  0.5755921299887703  0.7215136946373376  1.0000
  O   O34       1.0  0.6392602289425254  0.4244027732789275  0.7784870704320569  1.0000
  O   O35       1.0  0.575591649935184  0.21485533690791658  0.7784864051109325  1.0000
  O   O36       1.0  0.7851337631910839  0.3607377432318655  0.7784891635473415  1.0000
  O   O37       1.0  0.41931527724455014  0.25986748931580894  0.3066793273515174  1.0000
  O   O38       1.0  0.740126906975419  0.15944736946110522  0.30667931487350597  1.0000
  O   O39       1.0  0.8405461259725728  0.5806898331112579  0.3066759218297008  1.0000
  O   O40       1.0  0.2598671817516304  0.4193155353704866  0.1933203689373215  1.0000
  O   O41       1.0  0.5806892774270764  0.8405464696427244  0.19332376915615154  1.0000
  O   O42       1.0  0.15944841893720246  0.740127669102769  0.1933213951573336  1.0000
  O   O43       1.0  0.5806838001237081  0.7401321787151856  0.6933203557123803  1.0000
  O   O44       1.0  0.2598721703917308  0.8405522985699038  0.693320964385535  1.0000
  O   O45       1.0  0.1594542229068807  0.4193111064313654  0.6933243574283096  1.0000
  O   O46       1.0  0.7401318956155194  0.5806841326605151  0.8066799103217193  1.0000
  O   O47       1.0  0.4193100686432204  0.1594542011975975  0.8066759139081369  1.0000
  O   O48       1.0  0.8405522969963642  0.25987290338633773  0.8066788840997673  1.0000
