data_image0
_chemical_formula_structural       Cu4H32C52S4N12
_chemical_formula_sum              "Cu4 H32 C52 S4 N12"
_cell_length_a       5.7112453505035035
_cell_length_b       11.062410688501597
_cell_length_c       17.865465985753612
_cell_angle_alpha    89.9992525448945
_cell_angle_beta     96.130137155121
_cell_angle_gamma    90.00077655363398

_space_group_name_H-M_alt    "P 1"
_space_group_IT_number       1

loop_
  _space_group_symop_operation_xyz
  'x, y, z'

loop_
  _atom_site_type_symbol
  _atom_site_label
  _atom_site_symmetry_multiplicity
  _atom_site_fract_x
  _atom_site_fract_y
  _atom_site_fract_z
  _atom_site_occupancy
  Cu  Cu1       1.0  0.5767564340901004  0.4576414050031092  0.4354923101802939  1.0000
  Cu  Cu2       1.0  0.576762627411732  0.04235943283839561  0.9354890848217324  1.0000
  Cu  Cu3       1.0  0.4232378583101378  0.5423525503448446  0.5645096444522935  1.0000
  Cu  Cu4       1.0  0.4232386040419841  0.9576435621913933  0.0645091695882556  1.0000
  H   H1        1.0  0.8832570365879986  0.7835865121713965  0.2811415389583019  1.0000
  H   H2        1.0  0.8832575611517371  0.7164122091398614  0.7811401362380153  1.0000
  H   H3        1.0  0.11674067296575431  0.21641467492479197  0.7188566047483462  1.0000
  H   H4        1.0  0.11673486566441231  0.28359440171482936  0.2188578413854358  1.0000
  H   H5        1.0  0.6101950681353898  0.8139044208635086  0.37955799777643767  1.0000
  H   H6        1.0  0.6102000530014706  0.6860823965634781  0.8795575315681887  1.0000
  H   H7        1.0  0.38980971507985623  0.1860940543531626  0.6204414878189438  1.0000
  H   H8        1.0  0.3897976716515856  0.31392783014770503  0.12044117233720192  1.0000
  H   H9        1.0  0.6572635699305565  0.0008846976974652  0.460268537991702  1.0000
  H   H10       1.0  0.6572755287303949  0.499105241823216  0.9602692078157631  1.0000
  H   H11       1.0  0.34275183877014115  0.9991110656370812  0.5397335206621391  1.0000
  H   H12       1.0  0.3427151821590684  0.5009076967434609  0.039730395121161194  1.0000
  H   H13       1.0  0.8708354998632829  0.19470713614782648  0.49117642077050755  1.0000
  H   H14       1.0  0.870843896543441  0.3052816127603536  0.9911796100711143  1.0000
  H   H15       1.0  0.12918869851297637  0.8052859153299254  0.5088253544366665  1.0000
  H   H16       1.0  0.12913627859509086  0.6947259019935219  0.0088207812159453  1.0000
  H   H17       1.0  0.188089401248007  0.33792275408165307  0.4685607393412425  1.0000
  H   H18       1.0  0.1880937078901255  0.1620705115081407  0.9685598793856158  1.0000
  H   H19       1.0  0.8119400948902608  0.6620684894799923  0.531441762166665  1.0000
  H   H20       1.0  0.8118793935494678  0.8379370032389488  0.031439170022110795  1.0000
  H   H21       1.0  0.7585511057270223  0.3626712852412907  0.30588218765613817  1.0000
  H   H22       1.0  0.758543983728579  0.13733525337474362  0.805874444331991  1.0000
  H   H23       1.0  0.24146078109868094  0.6373244780838548  0.6941197602881033  1.0000
  H   H24       1.0  0.24142375993875478  0.8626659336535597  0.1941216378829367  1.0000
  H   H25       1.0  0.7062306055987193  0.1876776641876746  0.2185099199345828  1.0000
  H   H26       1.0  0.7062231985788969  0.312335870341876  0.7185069599241984  1.0000
  H   H27       1.0  0.29377946044150594  0.8123217150051901  0.7814897317220684  1.0000
  H   H28       1.0  0.2937499177602731  0.6876662206266034  0.2814926497323995  1.0000
  H   H29       1.0  0.394787612908722  0.0333864688067464  0.2369708535826902  1.0000
  H   H30       1.0  0.39478634778137695  0.46662298542749187  0.7369713611712567  1.0000
  H   H31       1.0  0.6052293920227073  0.9666101985606518  0.7630250978920898  1.0000
  H   H32       1.0  0.6052026770055362  0.5333872412181648  0.2630309875705947  1.0000
  C   C1        1.0  0.89872571492041  0.8646417494262549  0.3162323608785371  1.0000
  C   C2        1.0  0.8987310745272977  0.6353517872814722  0.8162328619640532  1.0000
  C   C3        1.0  0.10127727740838571  0.1353567257977275  0.6837659489019146  1.0000
  C   C4        1.0  0.10126315814979138  0.36465482355990286  0.18376685170439797  1.0000
  C   C5        1.0  0.7447252067180798  0.8812979947380414  0.3718957013463466  1.0000
  C   C6        1.0  0.7447265694337729  0.6186934133424702  0.8718956469675732  1.0000
  C   C7        1.0  0.25528311334664266  0.11870048048202621  0.6281044551886977  1.0000
  C   C8        1.0  0.2552588885547067  0.38131681331180545  0.128104910374482  1.0000
  C   C9        1.0  0.7708375927468653  0.9838539050037414  0.4160213622383893  1.0000
  C   C10       1.0  0.7708414358105671  0.5161358032235486  0.916023305350123  1.0000
  C   C11       1.0  0.22917953196790108  0.016141858353520906  0.5839790710800514  1.0000
  C   C12       1.0  0.22914044041748843  0.4838753274074464  0.083974900358939  1.0000
  C   C13       1.0  0.985989220045795  0.17601944023022753  0.447636608230745  1.0000
  C   C14       1.0  0.9859981029414513  0.32397274970546874  0.9476385475084328  1.0000
  C   C15       1.0  0.014031471392499398  0.8239708993458166  0.5523656165063001  1.0000
  C   C16       1.0  0.013975028459576301  0.676035668991709  0.0523616223562939  1.0000
  C   C17       1.0  0.16056813553883836  0.2556091462513024  0.435236608672291  1.0000
  C   C18       1.0  0.16057307438482843  0.24438467342204723  0.9352396045684302  1.0000
  C   C19       1.0  0.8394561227103664  0.7443820972782265  0.5647674074614173  1.0000
  C   C20       1.0  0.8394053697277216  0.7556201294288204  0.0647618518333672  1.0000
  C   C21       1.0  0.6213413268726314  0.29603704426368443  0.312359760170402  1.0000
  C   C22       1.0  0.6213414477492164  0.20396672104960345  0.812356202824617  1.0000
  C   C23       1.0  0.37867409679006414  0.7039578151027615  0.6876428587166429  1.0000
  C   C24       1.0  0.37863344447696784  0.796033561993369  0.1876440224231075  1.0000
  C   C25       1.0  0.5933403032577829  0.1966676447935569  0.2635970058856287  1.0000
  C   C26       1.0  0.5933396767052983  0.3033442368717943  0.7635937693923723  1.0000
  C   C27       1.0  0.40667680649498544  0.8033290225318129  0.7364028671996223  1.0000
  C   C28       1.0  0.4066457212729304  0.6966578541475883  0.2364045470576173  1.0000
  C   C29       1.0  0.42149571391344404  0.11195130934053313  0.27344551169527875  1.0000
  C   C30       1.0  0.42149224902407667  0.38805751783685605  0.7734454434699315  1.0000
  C   C31       1.0  0.5785214108137993  0.8880453579788254  0.7265549216200355  1.0000
  C   C32       1.0  0.5784950147504375  0.611947285031498  0.22655684993592473  1.0000
  C   C33       1.0  0.27601402991594887  0.12879286639917353  0.3315266750172512  1.0000
  C   C34       1.0  0.27601712859249256  0.37121021536333404  0.8315263847536015  1.0000
  C   C35       1.0  0.7240066166488432  0.8712010890432825  0.6684738690170633  1.0000
  C   C36       1.0  0.7239718811824929  0.6287972994020239  0.1684754037675873  1.0000
  C   C37       1.0  0.09334221016867872  0.04344819832054721  0.3456718773783365  1.0000
  C   C38       1.0  0.0933441888865616  0.4565507670889347  0.8456725654649375  1.0000
  C   C39       1.0  0.9066731386091432  0.9565457571138156  0.6543279403615117  1.0000
  C   C40       1.0  0.906641313950459  0.5434540357747225  0.15432967258611535  1.0000
  C   C41       1.0  0.9484757133958013  0.0682223176288801  0.4040465109836048  1.0000
  C   C42       1.0  0.9484805147561418  0.4317732999182412  0.9040469213058131  1.0000
  C   C43       1.0  0.0515414562548742  0.9317743496724732  0.5959556030219063  1.0000
  C   C44       1.0  0.0515014062954862  0.5682305989979356  0.0959529651185136  1.0000
  C   C45       1.0  0.3103191472002679  0.23379761304721577  0.37765183469003455  1.0000
  C   C46       1.0  0.3103263146965887  0.266202871051533  0.8776496926406807  1.0000
  C   C47       1.0  0.689708558026581  0.7661918225975342  0.62234949100921  1.0000
  C   C48       1.0  0.6896556213544827  0.7338028357828393  0.1223507540074422  1.0000
  C   C49       1.0  0.06258383023528319  0.5687568478782481  0.4206544502143146  1.0000
  C   C50       1.0  0.062567425718008  0.9312411548567925  0.9206519590559807  1.0000
  C   C51       1.0  0.9374279666187276  0.4312298758619237  0.5793441363808611  1.0000
  C   C52       1.0  0.9374249711491841  0.06876545600990622  0.07934489810733679  1.0000
  S   S1        1.0  0.33165177908102095  0.62255948715832  0.4379134461524785  1.0000
  S   S2        1.0  0.33166385452067704  0.8774379536997117  0.9379133894700118  1.0000
  S   S3        1.0  0.668323083046417  0.37742994835146254  0.5620856586727143  1.0000
  S   S4        1.0  0.6683391378081183  0.12256052152426383  0.0620849203104399  1.0000
  N   N1        1.0  0.0669784941245837  0.9422427308059939  0.3028129007541196  1.0000
  N   N2        1.0  0.06698524743116961  0.5577533235745805  0.8028146107327458  1.0000
  N   N3        1.0  0.933029795953736  0.05775303253978593  0.6971861353301989  1.0000
  N   N4        1.0  0.9330072243583486  0.44225690311049715  0.1971850475683752  1.0000
  N   N5        1.0  0.4856999199013572  0.3154269279685806  0.3678585243659498  1.0000
  N   N6        1.0  0.4857030570266544  0.18457211083509154  0.8678563326249885  1.0000
  N   N7        1.0  0.5143208014983784  0.6845643155575516  0.6321448208280884  1.0000
  N   N8        1.0  0.5142788490255298  0.8154299801628896  0.1321429935755347  1.0000
  N   N9        1.0  0.8692168605768629  0.5296205396869169  0.4102367682850314  1.0000
  N   N10       1.0  0.8692369053415308  0.9703716932744939  0.910240715234238  1.0000
  N   N11       1.0  0.1307754162074133  0.47036528009951445  0.5897556071098291  1.0000
  N   N12       1.0  0.1307978137238024  0.029620454287368102  0.089759711414672  1.0000
