data_image0
_chemical_formula_structural       Mn2H38C36N12O10
_chemical_formula_sum              "Mn2 H38 C36 N12 O10"
_cell_length_a       8.958518249166362
_cell_length_b       10.241359148826678
_cell_length_c       12.013311448376411
_cell_angle_alpha    101.05372877619821
_cell_angle_beta     110.59290780935065
_cell_angle_gamma    103.48129417004738

_space_group_name_H-M_alt    "P 1"
_space_group_IT_number       1

loop_
  _space_group_symop_operation_xyz
  'x, y, z'

loop_
  _atom_site_type_symbol
  _atom_site_label
  _atom_site_symmetry_multiplicity
  _atom_site_fract_x
  _atom_site_fract_y
  _atom_site_fract_z
  _atom_site_occupancy
  Mn  Mn1       1.0  0.15891953691642158  0.3621238260032058  0.018584167726537273  1.0000
  Mn  Mn2       1.0  0.841082697095153  0.6378772135091069  0.9814152884479554  1.0000
  H   H1        1.0  0.1418106408033494  0.9065845731670237  0.048546018924248806  1.0000
  H   H2        1.0  0.8581912522917321  0.09341858784897988  0.9514570213415254  1.0000
  H   H3        1.0  0.5786482459026487  0.7753482153165548  0.18482746111296672  1.0000
  H   H4        1.0  0.42135078254995756  0.2246507120048378  0.81517082609583  1.0000
  H   H5        1.0  0.6370698863576365  0.2067560711827952  0.18610997430712925  1.0000
  H   H6        1.0  0.36293238231920094  0.7932449875034281  0.813892823644963  1.0000
  H   H7        1.0  0.0019448533070871906  0.1407088570653698  0.41784575417225506  1.0000
  H   H8        1.0  0.9980553688590985  0.8592900735430715  0.5821528419205465  1.0000
  H   H9        1.0  0.8268173695634787  0.20500454172807991  0.3862187162045386  1.0000
  H   H10       1.0  0.17318285260270724  0.7949943888803619  0.6137798798882557  1.0000
  H   H11       1.0  0.07191312469587524  0.5471997264501951  0.24526105504677528  1.0000
  H   H12       1.0  0.9280891266483307  0.4528013226490728  0.754740072016517  1.0000
  H   H13       1.0  0.027064808743119773  0.11785053849365568  0.1554580467701072  1.0000
  H   H14       1.0  0.9729346287753982  0.8821494416361445  0.8445405160375329  1.0000
  H   H15       1.0  0.9822912462169668  0.15697522502530603  0.7198064835604541  1.0000
  H   H16       1.0  0.017706605854698132  0.8430237085959785  0.28019316565313074  1.0000
  H   H17       1.0  0.3981351658364358  0.5308256137797827  0.8801728036358512  1.0000
  H   H18       1.0  0.6018638799488015  0.4691733231285653  0.11982715446173843  1.0000
  H   H19       1.0  0.3870530923654129  0.573061501769331  0.6727420343583929  1.0000
  H   H20       1.0  0.6129435659926727  0.426937428564905  0.3272573059711945  1.0000
  H   H21       1.0  0.2379898853374199  0.44115912822977066  0.5306983687437636  1.0000
  H   H22       1.0  0.7620075576683334  0.5588387525831067  0.46930100487098514  1.0000
  H   H23       1.0  0.5525719282827595  0.47659815043775916  0.5829513436520628  1.0000
  H   H24       1.0  0.4474267419207224  0.5234028888003551  0.41704885675921594  1.0000
  H   H25       1.0  0.5670595048237744  0.4217510243252038  0.7149974552173148  1.0000
  H   H26       1.0  0.43293994136105596  0.5782489605980744  0.28500194303472165  1.0000
  H   H27       1.0  0.3445408862571638  0.23960007572625128  0.44272953267957854  1.0000
  H   H28       1.0  0.6554589603272589  0.7604009572119637  0.5572693057269049  1.0000
  H   H29       1.0  0.3513620479025192  0.18490969278590086  0.5746769216399201  1.0000
  H   H30       1.0  0.648636195902419  0.8150902840568506  0.42532133228370833  1.0000
  H   H31       1.0  0.6512804398528189  0.27606499107780996  0.5065235900352577  1.0000
  H   H32       1.0  0.3487197909796861  0.7239339443241022  0.49347584150194024  1.0000
  H   H33       1.0  0.6651582529578377  0.22712594973370415  0.6416316804037053  1.0000
  H   H34       1.0  0.33483999951342  0.7728740319025178  0.35836740896433367  1.0000
  H   H35       1.0  0.44496520829399344  0.0314662235280068  0.3742054495395521  1.0000
  H   H36       1.0  0.5550326524439838  0.9685327148867628  0.6257950351184363  1.0000
  H   H37       1.0  0.650391178585643  0.0375749198239959  0.46526502968656297  1.0000
  H   H38       1.0  0.3496066734860149  0.962424013797296  0.534734619527022  1.0000
  C   C1        1.0  0.38260607263014634  0.06448860647116561  0.1084541380999653  1.0000
  C   C2        1.0  0.6173966051126029  0.9355135050234725  0.8915489354509704  1.0000
  C   C3        1.0  0.2776921993323142  0.9290882456319524  0.08599567155688699  1.0000
  C   C4        1.0  0.7223073150019204  0.07091491360342422  0.9140075863852815  1.0000
  C   C5        1.0  0.34815887983386046  0.8242999400667373  0.11256307413172807  1.0000
  C   C6        1.0  0.6518414018154106  0.1757021600603181  0.8874385462068021  1.0000
  C   C7        1.0  0.5232229484101153  0.856400926752613  0.1644527150602498  1.0000
  C   C8        1.0  0.4767757391259835  0.14360012207245632  0.8355491562398285  1.0000
  C   C9        1.0  0.62693786678264  0.9947482182161947  0.19632774412027482  1.0000
  C   C10       1.0  0.37306277311576946  0.005251769994139  0.8036719630157662  1.0000
  C   C11       1.0  0.5585696255893922  0.0992642347275705  0.16667003902996666  1.0000
  C   C12       1.0  0.44143102297532977  0.9007357582762341  0.8333305035504779  1.0000
  C   C13       1.0  0.30557748088296677  0.1728873857357982  0.07108827733406997  1.0000
  C   C14       1.0  0.6944227834336799  0.8271147048043093  0.9289116721156532  1.0000
  C   C15       1.0  0.23812683761575926  0.6796008788959115  0.0923313676632418  1.0000
  C   C16       1.0  0.7618749959962299  0.32039911260146436  0.9076686483568038  1.0000
  C   C17       1.0  0.8969830695756045  0.1533745455153621  0.34415786555277345  1.0000
  C   C18       1.0  0.10301756165648598  0.8466254379014871  0.6558410061388713  1.0000
  C   C19       1.0  0.04630127435885357  0.4385855290005837  0.2461510531104381  1.0000
  C   C20       1.0  0.9537005505868165  0.5614144577033147  0.7538481274652115  1.0000
  C   C21       1.0  0.02748890088124508  0.22150876533098804  0.19875184134181012  1.0000
  C   C22       1.0  0.9725133157977055  0.7784922645943693  0.8012459439438829  1.0000
  C   C23       1.0  0.08440307621162896  0.24673510451102487  0.7308437142859319  1.0000
  C   C24       1.0  0.9155971719535002  0.7532638404778497  0.2691573881400585  1.0000
  C   C25       1.0  0.2953343290600685  0.4360752052999147  0.8162991132929208  1.0000
  C   C26       1.0  0.7046643163255766  0.5639226835934962  0.18370140465022897  1.0000
  C   C27       1.0  0.33660329048181137  0.4598290382570627  0.6234688325816578  1.0000
  C   C28       1.0  0.6633953462375217  0.5401688458428706  0.37653084991708846  1.0000
  C   C29       1.0  0.48060197459729176  0.4064305969854233  0.6185755995009217  1.0000
  C   C30       1.0  0.5193962865402709  0.5935693894442835  0.38142432531151366  1.0000
  C   C31       1.0  0.427388752162031  0.25347931741432456  0.5403887406959953  1.0000
  C   C32       1.0  0.5726099093751316  0.746521717030312  0.45961062427088  1.0000
  C   C33       1.0  0.5793784790033101  0.20756223009739472  0.5436827675653789  1.0000
  C   C34       1.0  0.42062096718152725  0.7924377548258832  0.4563166306866577  1.0000
  C   C35       1.0  0.5356042319619191  0.05332279058660559  0.47129235258332597  1.0000
  C   C36       1.0  0.4643952228892303  0.9466771991301429  0.5287078811131138  1.0000
  N   N1        1.0  0.9641915365503235  0.2487378380745398  0.28366043274300506  1.0000
  N   N2        1.0  0.03581028839534629  0.7512621486293654  0.7163387478326371  1.0000
  N   N3        1.0  0.9748889714601816  0.3869195643776068  0.3153642879336828  1.0000
  N   N4        1.0  0.02511404719906796  0.6130804256133401  0.684635201525964  1.0000
  N   N5        1.0  0.0803391726078501  0.3406757549973064  0.1726238414715553  1.0000
  N   N6        1.0  0.9196618676901523  0.6593252812279574  0.8273753058189328  1.0000
  N   N7        1.0  0.1898716831084356  0.34465365691372807  0.8431758910641136  1.0000
  N   N8        1.0  0.8101281559907891  0.6553442352667318  0.15682493576304074  1.0000
  N   N9        1.0  0.11871988436747928  0.27239288153367625  0.6366656475753061  1.0000
  N   N10       1.0  0.8812787696844778  0.727605012153205  0.36333570581223995  1.0000
  N   N11       1.0  0.2534606554562799  0.3936696038069911  0.6930872345487701  1.0000
  N   N12       1.0  0.7465379812630459  0.6063282802929352  0.30691244794997624  1.0000
  O   O1        1.0  0.3961446014409162  0.3029005892000498  0.11508859422618657  1.0000
  O   O2        1.0  0.6038544864947822  0.6971015076399567  0.8849127172283318  1.0000
  O   O3        1.0  0.149313648447297  0.13251981337732843  0.9972564262984774  1.0000
  O   O4        1.0  0.8506858473731995  0.8674864722353702  0.0027423368898241303  1.0000
  O   O5        1.0  0.09429283173047755  0.6652628020402532  0.09473569155467489  1.0000
  O   O6        1.0  0.9057122172878989  0.3347361704772567  0.90526915274053  1.0000
  O   O7        1.0  0.2977161035796527  0.5788853287906905  0.07821806493260652  1.0000
  O   O8        1.0  0.7022817224930621  0.4211135904501688  0.9217790779477824  1.0000
  O   O9        1.0  0.7979461625404978  0.0188858499943549  0.26010085405789596  1.0000
  O   O10       1.0  0.20205405095937565  0.9811130758206018  0.7398969065905021  1.0000
