data_image0
_chemical_formula_structural       Na2H22C20S2N8O12
_chemical_formula_sum              "Na2 H22 C20 S2 N8 O12"
_cell_length_a       7.40942326238241
_cell_length_b       9.62996578260821
_cell_length_c       10.227334873457199
_cell_angle_alpha    102.15787477793069
_cell_angle_beta     102.2490846835767
_cell_angle_gamma    92.3987287937989

_space_group_name_H-M_alt    "P 1"
_space_group_IT_number       1

loop_
  _space_group_symop_operation_xyz
  'x, y, z'

loop_
  _atom_site_type_symbol
  _atom_site_label
  _atom_site_symmetry_multiplicity
  _atom_site_fract_x
  _atom_site_fract_y
  _atom_site_fract_z
  _atom_site_occupancy
  Na  Na1       1.0  0.4266241030792343  0.1527285481684615  0.099413588862248  1.0000
  Na  Na2       1.0  0.5733756920460279  0.8473073085533899  0.9005862776325984  1.0000
  H   H1        1.0  0.6389056738010126  0.9422114355616101  0.48630877851552873  1.0000
  H   H2        1.0  0.3610574515697991  0.0577947630231108  0.513668388447293  1.0000
  H   H3        1.0  0.4560305238122239  0.8958793849746843  0.33540126389738845  1.0000
  H   H4        1.0  0.5439789279265099  0.10408921672943451  0.6645769583486469  1.0000
  H   H5        1.0  0.6892785900327851  0.9116102706398979  0.3199071700963217  1.0000
  H   H6        1.0  0.310744519725894  0.0883816829650357  0.6800945850020312  1.0000
  H   H7        1.0  0.7463857823872504  0.25414553818865937  0.40616414831908537  1.0000
  H   H8        1.0  0.25363927910954237  0.7458400015966762  0.5938366442329439  1.0000
  H   H9        1.0  0.9014950866398763  0.12355120297946345  0.5768316981130255  1.0000
  H   H10       1.0  0.09850210070541722  0.8764706476845635  0.42320601100585986  1.0000
  H   H11       1.0  0.03433306308289731  0.518747104415006  0.883298473388031  1.0000
  H   H12       1.0  0.9656414378977302  0.4812749935867232  0.11669840620927373  1.0000
  H   H13       1.0  0.8818657660039552  0.6480608707442247  0.7154789121754064  1.0000
  H   H14       1.0  0.11812880650959558  0.35192921532988214  0.2844835648474628  1.0000
  H   H15       1.0  0.20698301946583803  0.9646492864003733  0.8808134352616791  1.0000
  H   H16       1.0  0.7930372690498969  0.03535439444875271  0.11919802535958011  1.0000
  H   H17       1.0  0.21271546144264875  0.8668159195536806  0.9843417210950635  1.0000
  H   H18       1.0  0.7872691740091895  0.13316662600088594  0.015651844603709688  1.0000
  H   H19       1.0  0.274269747968944  0.18408991225752666  0.3437205804549492  1.0000
  H   H20       1.0  0.7257406265970019  0.8159095985123771  0.6562747305289706  1.0000
  H   H21       1.0  0.15858381082248482  0.04777180819058201  0.2427074810924879  1.0000
  H   H22       1.0  0.8414142007787574  0.9522309094684478  0.7573030681181125  1.0000
  C   C1        1.0  0.6044505557633997  0.47564171496301816  0.320297603001805  1.0000
  C   C2        1.0  0.39555448641428365  0.5243482209506639  0.6796939411775114  1.0000
  C   C3        1.0  0.5442372360536254  0.6031462506835581  0.2737991204080004  1.0000
  C   C4        1.0  0.4558136701402305  0.39687658408589505  0.7261928318174355  1.0000
  C   C5        1.0  0.6159788812495747  0.724903560624675  0.383544227052333  1.0000
  C   C6        1.0  0.3840473973056007  0.2751053915278305  0.6164790485470988  1.0000
  C   C7        1.0  0.5982282103245496  0.8770983288915277  0.3814633679043312  1.0000
  C   C8        1.0  0.40178359748730946  0.12290222804647755  0.6185362987839796  1.0000
  C   C9        1.0  0.7993997613551757  0.4593220319661668  0.5495261689308818  1.0000
  C   C10       1.0  0.20058241982632546  0.5406723009050296  0.4504595726468281  1.0000
  C   C11       1.0  0.8080601728812268  0.3112104129739565  0.5106259142437608  1.0000
  C   C12       1.0  0.19193453085807016  0.6887955958579822  0.4893642152833451  1.0000
  C   C13       1.0  0.8949998080745657  0.23823624455508963  0.6068045342369643  1.0000
  C   C14       1.0  0.1049977789445649  0.7617632699460872  0.3932062827169177  1.0000
  C   C15       1.0  0.9743339458266433  0.310987645038047  0.741433535794407  1.0000
  C   C16       1.0  0.025656606141907925  0.6890108383028066  0.2585759215208512  1.0000
  C   C17       1.0  0.9712384072997367  0.4592523131335399  0.7794021973894091  1.0000
  C   C18       1.0  0.0287541611683864  0.5407483564041159  0.220590425885085  1.0000
  C   C19       1.0  0.8844507236199419  0.5332134764597714  0.6842066462533367  1.0000
  C   C20       1.0  0.11555147688067538  0.4667764602830788  0.31578834369707925  1.0000
  S   S1        1.0  0.06513818785056459  0.21397317209115838  0.8668318342621789  1.0000
  S   S2        1.0  0.9348396289252463  0.7860328684146654  0.1331711789386533  1.0000
  N   N1        1.0  0.7063810273250724  0.5339366206274645  0.4545818229169213  1.0000
  N   N2        1.0  0.29359205710414216  0.46605239838387286  0.5454082097521535  1.0000
  N   N3        1.0  0.7094940411992781  0.6818588948146529  0.4898377919769176  1.0000
  N   N4        1.0  0.29047908926009564  0.3181257205231063  0.5101895049390208  1.0000
  N   N5        1.0  0.4419254210529431  0.5996060439691392  0.15213426030079094  1.0000
  N   N6        1.0  0.5581886942319443  0.40042396472846065  0.8478616669688323  1.0000
  N   N7        1.0  0.35254461167380674  0.5899363694913193  0.04492799684543066  1.0000
  N   N8        1.0  0.6474284496434777  0.4100492790796936  0.9551092741368878  1.0000
  O   O1        1.0  0.5747194949517719  0.34859470703115397  0.2603353726023698  1.0000
  O   O2        1.0  0.42531044593707173  0.6513865212828661  0.7396702472047849  1.0000
  O   O3        1.0  0.9468113404263505  0.2366044415185584  0.9665616713969029  1.0000
  O   O4        1.0  0.053158996282640196  0.7633856382540644  0.033433990156773154  1.0000
  O   O5        1.0  0.0500479353556926  0.06309179406295583  0.7893488224248416  1.0000
  O   O6        1.0  0.9499188328829645  0.9369036233249448  0.2106522107927589  1.0000
  O   O7        1.0  0.2590571519981992  0.2689243190503064  0.9291661686115091  1.0000
  O   O8        1.0  0.7409311211595693  0.7310753018110605  0.07082651859880693  1.0000
  O   O9        1.0  0.2945937416341877  0.9260692606873279  0.9486137698424387  1.0000
  O   O10       1.0  0.7054088798959414  0.07392701228671682  0.05140113587273729  1.0000
  O   O11       1.0  0.2775001960794796  0.10708145098741542  0.2636950691123516  1.0000
  O   O12       1.0  0.7224830789613959  0.8929310513254408  0.7362856841703902  1.0000
