data_image0
_chemical_formula_structural       Al4H28C64Cl8O20
_chemical_formula_sum              "Al4 H28 C64 Cl8 O20"
_cell_length_a       6.626981530717756
_cell_length_b       23.943133092896872
_cell_length_c       25.141423311882793
_cell_angle_alpha    89.99508644425045
_cell_angle_beta     90.41159835188408
_cell_angle_gamma    89.70089471497522

_space_group_name_H-M_alt    "P 1"
_space_group_IT_number       1

loop_
  _space_group_symop_operation_xyz
  'x, y, z'

loop_
  _atom_site_type_symbol
  _atom_site_label
  _atom_site_symmetry_multiplicity
  _atom_site_fract_x
  _atom_site_fract_y
  _atom_site_fract_z
  _atom_site_occupancy
  Al  Al1       1.0  0.8667692760271705  0.9978575901459763  0.498427847503926  1.0000
  Al  Al2       1.0  0.3663983710159684  0.003998265674020701  0.4988645039994921  1.0000
  Al  Al3       1.0  0.1435866806169557  0.4969857206958467  0.0031912841534592  1.0000
  Al  Al4       1.0  0.6424743071552044  0.5045030368979725  0.0014490205608623996  1.0000
  H   H1        1.0  0.1016374024047266  0.06851814969515863  0.5236810637236857  1.0000
  H   H2        1.0  0.6042590142520297  0.9319276990088028  0.520786586687251  1.0000
  H   H3        1.0  0.4082943966296284  0.43353479089095276  0.9762377656604997  1.0000
  H   H4        1.0  0.9111778726085333  0.5710481601082692  0.9831990698312936  1.0000
  H   H5        1.0  0.5405575005089033  0.3783964706485392  0.0918871588422832  1.0000
  H   H6        1.0  0.48476225320182215  0.30277613474795834  0.1588597413581283  1.0000
  H   H7        1.0  0.15916440489282727  0.39223430952637983  0.14374363615008426  1.0000
  H   H8        1.0  0.33601468536710394  0.09941913495089952  0.35555321704822523  1.0000
  H   H9        1.0  0.9516109051014537  0.12755355661676762  0.4044354966833978  1.0000
  H   H10       1.0  0.9842336242192999  0.20107546807426507  0.3343076380859742  1.0000
  H   H11       1.0  0.0447607039240197  0.6216914440976283  0.9063734924403093  1.0000
  H   H12       1.0  0.9801670105519802  0.6930356662779644  0.8361054488493238  1.0000
  H   H13       1.0  0.6597884959289502  0.6051542926852421  0.8547215296387518  1.0000
  H   H14       1.0  0.8352708374129421  0.9044482488991649  0.6450333297037503  1.0000
  H   H15       1.0  0.4355497666652751  0.8661304507843611  0.591458060871453  1.0000
  H   H16       1.0  0.46917428935352484  0.7935190632332477  0.6621681148276437  1.0000
  H   H17       1.0  0.6540573236639488  0.6464877467932768  0.1033654309598759  1.0000
  H   H18       1.0  0.6031037654696405  0.720190408005351  0.1725296471868418  1.0000
  H   H19       1.0  0.0758791214694625  0.5766836869446339  0.1414978878933226  1.0000
  H   H20       1.0  0.4392416871120091  0.9257237190946699  0.3605231084366167  1.0000
  H   H21       1.0  0.861378919312088  0.8543619406807181  0.39646581168017997  1.0000
  H   H22       1.0  0.9191158207472084  0.7806941096064082  0.3275780074183244  1.0000
  H   H23       1.0  0.5712533338629839  0.3680583820659963  0.9122476625324366  1.0000
  H   H24       1.0  0.5236386596470126  0.2957416467069934  0.8420877804700452  1.0000
  H   H25       1.0  0.17023677698644946  0.4000668767507279  0.8549552279232842  1.0000
  H   H26       1.0  0.3429246631633873  0.10116317061095262  0.646726221361547  1.0000
  H   H27       1.0  0.9431803932472178  0.13208823251560636  0.5898255767854153  1.0000
  H   H28       1.0  0.994342254830883  0.20293336850465957  0.661158863354565  1.0000
  C   C1        1.0  0.6161603882880727  0.07016524776810942  0.5703085965087168  1.0000
  C   C2        1.0  0.6278424116769726  0.0672956303296104  0.42754244452706996  1.0000
  C   C3        1.0  0.1298646771146394  0.9353963333186643  0.4268571518195187  1.0000
  C   C4        1.0  0.11587943839796819  0.9317521458884104  0.5701903062080403  1.0000
  C   C5        1.0  0.8946155843766519  0.43151106318686067  0.9307180219290742  1.0000
  C   C6        1.0  0.8773752784167071  0.43345880778758794  0.0724935432698928  1.0000
  C   C7        1.0  0.3813003078514967  0.5661444459458949  0.0739680282698743  1.0000
  C   C8        1.0  0.3885938983437285  0.5691796830136653  0.9301689272568153  1.0000
  C   C9        1.0  0.8529552196418776  0.3891820322741638  0.1135095288510328  1.0000
  C   C10       1.0  0.6622434678376691  0.36440482864312435  0.11813263770301317  1.0000
  C   C11       1.0  0.6310196862462831  0.3228762802150272  0.1553991995171629  1.0000
  C   C12       1.0  0.7865323676176317  0.3065122523054171  0.19093659267148413  1.0000
  C   C13       1.0  0.9767999772212619  0.3328747197714251  0.18636488101407878  1.0000
  C   C14       1.0  0.011467632510281996  0.3728233004972169  0.14723589240098528  1.0000
  C   C15       1.0  0.7494072989918337  0.26553399208759043  0.22988096782227524  1.0000
  C   C16       1.0  0.7109572095528378  0.2300388495941235  0.263115124986733  1.0000
  C   C17       1.0  0.6834660177238876  0.18981862930245091  0.303364028235208  1.0000
  C   C18       1.0  0.5011378205078572  0.1598723280796364  0.3095430784870103  1.0000
  C   C19       1.0  0.47826194405836014  0.12139048585287071  0.35060861750672245  1.0000
  C   C20       1.0  0.6417457647893912  0.10979174578032772  0.38449474283265067  1.0000
  C   C21       1.0  0.8255183465211431  0.1378231144303683  0.37808940130116747  1.0000
  C   C22       1.0  0.8440432075810236  0.1781853539669527  0.3390572108054144  1.0000
  C   C23       1.0  0.356636097012121  0.6098810046438035  0.885787963725889  1.0000
  C   C24       1.0  0.16459316025562026  0.6342234905117154  0.8796458947058953  1.0000
  C   C25       1.0  0.1283012047044778  0.6737068542483372  0.8405879035453337  1.0000
  C   C26       1.0  0.28179676905975976  0.6894901926406334  0.8050646375530376  1.0000
  C   C27       1.0  0.4730259807914549  0.6631335366107084  0.8104154797656163  1.0000
  C   C28       1.0  0.5111763432487847  0.6244349027450087  0.8507182351232458  1.0000
  C   C29       1.0  0.24208807533246812  0.730551766805533  0.7661706149631229  1.0000
  C   C30       1.0  0.2010852639071388  0.7670220496854443  0.733855898629045  1.0000
  C   C31       1.0  0.1737676270404762  0.8082569114865026  0.6943883666418172  1.0000
  C   C32       1.0  0.9951504455993289  0.8406851329166403  0.6892132593259461  1.0000
  C   C33       1.0  0.9740132939826722  0.8801652999999163  0.6488389401505116  1.0000
  C   C34       1.0  0.13324254224136206  0.8893930701889519  0.6135730916195782  1.0000
  C   C35       1.0  0.3125931792701521  0.8584140355847866  0.6188966253111444  1.0000
  C   C36       1.0  0.33151070911210917  0.8181781520961666  0.6581181234230582  1.0000
  C   C37       1.0  0.3663697351926132  0.6078228197054828  0.11776250902104117  1.0000
  C   C38       1.0  0.5170515921329795  0.647624945836725  0.12705019441035859  1.0000
  C   C39       1.0  0.4888621117288636  0.6884269660688959  0.16558945672677786  1.0000
  C   C40       1.0  0.31207539730486644  0.6899828804510905  0.19676416228377747  1.0000
  C   C41       1.0  0.16615794979300347  0.6477006887188993  0.1883371252126125  1.0000
  C   C42       1.0  0.19147417212646192  0.6078978803074975  0.1488529690330438  1.0000
  C   C43       1.0  0.2794132910039409  0.7325063146648249  0.2345209584574235  1.0000
  C   C44       1.0  0.24505108655915817  0.7695796256475305  0.2665736273109118  1.0000
  C   C45       1.0  0.20972661017025726  0.8119609486146117  0.3042877544708489  1.0000
  C   C46       1.0  0.3537809489519717  0.8545924621161306  0.3132536201303182  1.0000
  C   C47       1.0  0.3249368826420849  0.8942791488423795  0.3526569119049796  1.0000
  C   C48       1.0  0.14820354637483757  0.8938613183343167  0.38303205487861186  1.0000
  C   C49       1.0  0.9995148490479621  0.8536479258036921  0.3732315920852755  1.0000
  C   C50       1.0  0.03145990619790239  0.8128884207259832  0.3348663962782155  1.0000
  C   C51       1.0  0.8731317158702582  0.38849637929638453  0.8880679831011236  1.0000
  C   C52       1.0  0.6909063384093059  0.3590663453586061  0.8840845844664925  1.0000
  C   C53       1.0  0.6641790853506251  0.31890667433231107  0.8452037125790284  1.0000
  C   C54       1.0  0.817261667466461  0.30745423350412443  0.8078871909195227  1.0000
  C   C55       1.0  3.4212989909599316e-05  0.33773806303273807  0.8121375710953131  1.0000
  C   C56       1.0  0.02867436449038509  0.377283301611584  0.8521207706893179  1.0000
  C   C57       1.0  0.7818676297891258  0.26708677288463895  0.7681366784482434  1.0000
  C   C58       1.0  0.7363942441291798  0.23178645316819063  0.7351826317928172  1.0000
  C   C59       1.0  0.6999557067973753  0.19184483645409503  0.6951030258507487  1.0000
  C   C60       1.0  0.5158774328409095  0.16223808126574113  0.6904405123182684  1.0000
  C   C61       1.0  0.4853868332113862  0.12347421378342463  0.649860597868738  1.0000
  C   C62       1.0  0.6400446581707442  0.11240282425880109  0.6136079697205687  1.0000
  C   C63       1.0  0.8238413267410675  0.14106210914114575  0.618087987273526  1.0000
  C   C64       1.0  0.8526277467794897  0.18037971017747625  0.6576600323367359  1.0000
  Cl  Cl1       1.0  0.16771483609336713  0.31534751531478383  0.2304876599302972  1.0000
  Cl  Cl2       1.0  0.3053801418883637  0.17101397550372613  0.265054515215482  1.0000
  Cl  Cl3       1.0  0.6612639606807064  0.6798583024712104  0.7661025725661048  1.0000
  Cl  Cl4       1.0  0.8014538516149159  0.8310641180998674  0.7337987685982483  1.0000
  Cl  Cl5       1.0  0.9521109325361861  0.6459821042856433  0.2270520924053656  1.0000
  Cl  Cl6       1.0  0.569536825082956  0.8569179843004594  0.2752467773869469  1.0000
  Cl  Cl7       1.0  0.1898524916454747  0.32544860220589567  0.7668720133022403  1.0000
  Cl  Cl8       1.0  0.32674149667238334  0.17438092309881628  0.7359346100231363  1.0000
  O   O1        1.0  0.7783745359021168  0.056382907546371513  0.5466568882939882  1.0000
  O   O2        1.0  0.45872003398529426  0.05993069885379039  0.45027147961523173  1.0000
  O   O3        1.0  0.2901783626776648  0.9618841699061706  0.4384209436277331  1.0000
  O   O4        1.0  0.9408313252551394  0.9510348190819261  0.558825456029055  1.0000
  O   O5        1.0  0.9612390978336336  0.9410635039207594  0.4505417957666467  1.0000
  O   O6        1.0  0.2797474328651575  0.9449181348382966  0.5471488842589309  1.0000
  O   O7        1.0  0.4404973192302036  0.0514237899789904  0.5594811388380023  1.0000
  O   O8        1.0  0.7918268381378367  0.042019271852289805  0.43902512122890147  1.0000
  O   O9        1.0  0.11258527365523457  0.03577752423995411  0.5012149222979616  1.0000
  O   O10       1.0  0.6130097074328944  0.9662221354248433  0.500498107738366  1.0000
  O   O11       1.0  0.0700667542451612  0.4498382454991516  0.9423076663177241  1.0000
  O   O12       1.0  0.717288568680203  0.46050500971514924  0.061028544706040605  1.0000
  O   O13       1.0  0.5471516479172607  0.5613532605622851  0.0488160078011788  1.0000
  O   O14       1.0  0.23000690166087875  0.5560064371573079  0.9555727608383717  1.0000
  O   O15       1.0  0.2216945016316885  0.5386364343266409  0.0638804927093517  1.0000
  O   O16       1.0  0.5666026315753568  0.5512469705763294  0.9403915815284734  1.0000
  O   O17       1.0  0.7309303284435911  0.4462149921656789  0.9531644195823644  1.0000
  O   O18       1.0  0.04952953090254649  0.44053484815452043  0.051133919029417996  1.0000
  O   O19       1.0  0.3980275882704731  0.4655949130764158  0.9996073968717311  1.0000
  O   O20       1.0  0.8973123817695878  0.5353732795279386  0.0009106671082222002  1.0000
