data_image0
_chemical_formula_structural       Cu8H120C192Br8N24O48
_chemical_formula_sum              "Cu8 H120 C192 Br8 N24 O48"
_cell_length_a       7.6924908051545815
_cell_length_b       30.22113736575693
_cell_length_c       32.32851464624365
_cell_angle_alpha    115.21875065271051
_cell_angle_beta     89.99945567810433
_cell_angle_gamma    89.99979834098782

_space_group_name_H-M_alt    "P 1"
_space_group_IT_number       1

loop_
  _space_group_symop_operation_xyz
  'x, y, z'

loop_
  _atom_site_type_symbol
  _atom_site_label
  _atom_site_symmetry_multiplicity
  _atom_site_fract_x
  _atom_site_fract_y
  _atom_site_fract_z
  _atom_site_occupancy
  Cu  Cu1       1.0  0.21305897913568123  0.1202229684805474  0.2569641989422919  1.0000
  Cu  Cu2       1.0  0.21305355762002162  0.3797775578338332  0.24303308132456175  1.0000
  Cu  Cu3       1.0  0.7869556760648848  0.8797822775402295  0.7430405332532714  1.0000
  Cu  Cu4       1.0  0.78694419820593  0.6202222197152379  0.7569623485144844  1.0000
  Cu  Cu5       1.0  0.7376657383953784  0.12427307893472057  0.7604950049667777  1.0000
  Cu  Cu6       1.0  0.7376735133235999  0.3757251732180363  0.7395016608195346  1.0000
  Cu  Cu7       1.0  0.2623437170612633  0.8757274200347567  0.23950473472117306  1.0000
  Cu  Cu8       1.0  0.26234374195002635  0.6242734938704114  0.2604985832373713  1.0000
  H   H1        1.0  0.3298210528190353  0.20398848918674162  0.5466005228831392  1.0000
  H   H2        1.0  0.3298422157422749  0.2960074243253387  0.9533989139004786  1.0000
  H   H3        1.0  0.6701702030503044  0.7960109078911582  0.4534006319171409  1.0000
  H   H4        1.0  0.67016593973986  0.703993440400062  0.046600972125325865  1.0000
  H   H5        1.0  0.21330922593564594  0.3296509005050297  0.6736527361013669  1.0000
  H   H6        1.0  0.21331639002081468  0.1703485884023976  0.826344682898309  1.0000
  H   H7        1.0  0.786684629863565  0.6703473962067574  0.32634921574775416  1.0000
  H   H8        1.0  0.7866891655518558  0.8296511806128206  0.1736541460941651  1.0000
  H   H9        1.0  0.06740325718929803  0.32988160872194777  0.5450845055234907  1.0000
  H   H10       1.0  0.06741310519231553  0.17011566106540954  0.9549132837104606  1.0000
  H   H11       1.0  0.9325944984789346  0.6701192482660046  0.4549184706698241  1.0000
  H   H12       1.0  0.9325898504251954  0.8298848386866876  0.045086146972813775  1.0000
  H   H13       1.0  0.3913524391556038  0.27026069760336197  0.39538902741867327  1.0000
  H   H14       1.0  0.39135980887468247  0.22973501060889837  0.1046096336525295  1.0000
  H   H15       1.0  0.6086466165157703  0.7297386979154225  0.6046127453992794  1.0000
  H   H16       1.0  0.6086405467924295  0.7702654875963189  0.8953904150650797  1.0000
  H   H17       1.0  0.37472138086035045  0.21148018999434012  0.31309310268444074  1.0000
  H   H18       1.0  0.3747259589982051  0.2885192180175053  0.18690583898153784  1.0000
  H   H19       1.0  0.6252776747878317  0.7885199354832859  0.686909580835234  1.0000
  H   H20       1.0  0.6252704967549008  0.7114809128879713  0.8130946814367161  1.0000
  H   H21       1.0  0.0538344860713309  0.11789252410198968  0.3423293691700167  1.0000
  H   H22       1.0  0.0538363311382213  0.3821047218277513  0.1576660309040605  1.0000
  H   H23       1.0  0.9461619696647292  0.8821083375373034  0.6576717529348741  1.0000
  H   H24       1.0  0.9461601246612619  0.6178939491600272  0.8423326681107423  1.0000
  H   H25       1.0  0.07003527321604253  0.17043744748708173  0.4258615606005661  1.0000
  H   H26       1.0  0.07003857268124139  0.3295557331282096  0.07413372293895283  1.0000
  H   H27       1.0  0.9299559826471508  0.8295619488158434  0.5741399032147995  1.0000
  H   H28       1.0  0.9299682828706751  0.6704429378473264  0.9258649760591878  1.0000
  H   H29       1.0  0.1991797529741959  0.19546097976079574  0.725860837507028  1.0000
  H   H30       1.0  0.1991871356175779  0.3045367035631087  0.7741399122862445  1.0000
  H   H31       1.0  0.8008180027321787  0.8045373169463943  0.27414111433584754  1.0000
  H   H32       1.0  0.8008132200528807  0.6954623292996301  0.22586047813350513  1.0000
  H   H33       1.0  0.3934751378357433  0.16263676850202557  0.7669241199657577  1.0000
  H   H34       1.0  0.39347980060595944  0.33736046206880116  0.7330741531376715  1.0000
  H   H35       1.0  0.6065252178326261  0.8373611647726236  0.23307675849191872  1.0000
  H   H36       1.0  0.6065205550365675  0.6626400330365455  0.26692713164027987  1.0000
  H   H37       1.0  0.82129778440153  0.1643078473985183  0.6894542170081195  1.0000
  H   H38       1.0  0.8213071855909675  0.33569313545261537  0.8105427334395684  1.0000
  H   H39       1.0  0.1786947714505516  0.8356922842865229  0.3105459944012949  1.0000
  H   H40       1.0  0.1786944700710436  0.6643048009203764  0.1894569089556838  1.0000
  H   H41       1.0  0.6454541567091355  0.20160656528460663  0.6470136430374183  1.0000
  H   H42       1.0  0.645464984974808  0.2983962906749298  0.8529860013030656  1.0000
  H   H43       1.0  0.3545370991159231  0.7983953912990812  0.35298884512838663  1.0000
  H   H44       1.0  0.35453537074133834  0.7016009157407409  0.14701273039255358  1.0000
  H   H45       1.0  0.2979820892904641  0.5062535476927792  0.7086622585546962  1.0000
  H   H46       1.0  0.29798746445999313  0.9937437014975784  0.7913335710826883  1.0000
  H   H47       1.0  0.7020143664715734  0.4937480501051254  0.29133730213123943  1.0000
  H   H48       1.0  0.7020193910708344  0.006256799024896499  0.20866555057925495  1.0000
  H   H49       1.0  0.14094573308703673  0.5829624488430338  0.7519964874869131  1.0000
  H   H50       1.0  0.14094999705668704  0.9170355350197354  0.7480003007133006  1.0000
  H   H51       1.0  0.859048122747794  0.41703841744914155  0.24800278053164249  1.0000
  H   H52       1.0  0.8590555585050764  0.08296496550427429  0.2519988209507246  1.0000
  H   H53       1.0  0.6613104340213027  0.5175489688779606  0.7050495272394954  1.0000
  H   H54       1.0  0.6613145218027656  0.9824539984784691  0.7949517893840222  1.0000
  H   H55       1.0  0.33868732176567573  0.4824497044331935  0.29494824472797626  1.0000
  H   H56       1.0  0.3386949336218876  0.0175490615467382  0.205048665639282  1.0000
  H   H57       1.0  0.8011547279548807  0.4353870008952541  0.6621832630028022  1.0000
  H   H58       1.0  0.8011668009193472  0.06461365664397078  0.8378163867873665  1.0000
  H   H59       1.0  0.19884042788169157  0.5646116708690271  0.3378151269990041  1.0000
  H   H60       1.0  0.19884265451479882  0.9353879388137185  0.1621841009229995  1.0000
  H   H61       1.0  0.7002549822267311  0.33535189410552146  0.17701392713307476  1.0000
  H   H62       1.0  0.7002571593168059  0.16464565183157018  0.3229829143534033  1.0000
  H   H63       1.0  0.29974667342843025  0.6646456749631324  0.8229861869565693  1.0000
  H   H64       1.0  0.2997483962511041  0.8353548494674072  0.6770158982955435  1.0000
  H   H65       1.0  0.5671875114061964  0.33643500977092333  0.04797103389078218  1.0000
  H   H66       1.0  0.5671975651814807  0.163562482117193  0.4520267056813124  1.0000
  H   H67       1.0  0.4328102442539362  0.6635680448432665  0.9520315842568575  1.0000
  H   H68       1.0  0.432802790532712  0.8364369226996898  0.5479713589535462  1.0000
  H   H69       1.0  0.8298717819382804  0.21092941896143458  0.0502941558877694  1.0000
  H   H70       1.0  0.8298775885572952  0.28906745452591304  0.4497027419408254  1.0000
  H   H71       1.0  0.17013247368041823  0.7890718177227072  0.9497034043593898  1.0000
  H   H72       1.0  0.17012536705811956  0.7109319456380943  0.5502971767803756  1.0000
  H   H73       1.0  0.6768543339784189  0.19255031803012912  0.2219724952821664  1.0000
  H   H74       1.0  0.676851121777226  0.3074458168851705  0.27802507191564263  1.0000
  H   H75       1.0  0.3231421218156143  0.8074487187120453  0.7780263500684156  1.0000
  H   H76       1.0  0.32314403411522363  0.6925499303939021  0.7219715293697746  1.0000
  H   H77       1.0  0.8625271206089239  0.15464291837039923  0.2599577576487632  1.0000
  H   H78       1.0  0.8625118956778478  0.3453560751164701  0.24003898654157743  1.0000
  H   H79       1.0  0.1374771349728903  0.8453583136639296  0.7400416566889021  1.0000
  H   H80       1.0  0.13747546040851694  0.6546407725348402  0.7599568177033335  1.0000
  H   H81       1.0  0.3053512279533806  0.16807695124221309  0.19279681370861818  1.0000
  H   H82       1.0  0.30533741502515716  0.3319251881314926  0.3072002844774175  1.0000
  H   H83       1.0  0.6946517276416416  0.8319246449981037  0.807203364997072  1.0000
  H   H84       1.0  0.6946512409478345  0.668076779304833  0.6927978774813752  1.0000
  H   H85       1.0  0.1373359098854863  0.21059825809899016  0.15376316802461787  1.0000
  H   H86       1.0  0.13733283197775853  0.28940135308994996  0.3462323708041238  1.0000
  H   H87       1.0  0.8626618458789965  0.7894015117003758  0.8462353519652693  1.0000
  H   H88       1.0  0.8626623238623099  0.7105991513211477  0.6537652058011432  1.0000
  H   H89       1.0  0.7787529512895264  0.5127225348305443  0.21382971506742615  1.0000
  H   H90       1.0  0.7787534219120007  0.9872764357204319  0.28617011035218803  1.0000
  H   H91       1.0  0.22124740433525864  0.4872783244792487  0.7861723340764684  1.0000
  H   H92       1.0  0.22124563374917733  0.012724057836500397  0.7138317924580093  1.0000
  H   H93       1.0  0.6164348289856889  0.5884907179594236  0.2570811248292273  1.0000
  H   H94       1.0  0.6164354720317677  0.9115082658629842  0.24292031044983978  1.0000
  H   H95       1.0  0.3835616267605673  0.41150904564172197  0.7429198672834116  1.0000
  H   H96       1.0  0.3835622836610568  0.08849259422484579  0.7570814296831327  1.0000
  H   H97       1.0  0.14160567574664645  0.5208391372815412  0.20812132223161933  1.0000
  H   H98       1.0  0.1416047315399069  0.9791631612267861  0.29188158557067095  1.0000
  H   H99       1.0  0.8583920800081942  0.4791587990960408  0.7918783201698856  1.0000
  H   H100      1.0  0.8583943241124673  0.0208391634270271  0.708120121873165  1.0000
  H   H101      1.0  0.28703723554993144  0.43959165810255013  0.16499331153753616  1.0000
  H   H102      1.0  0.287042978808266  0.06040941624979008  0.3350077325067033  1.0000
  H   H103      1.0  0.7129631200959493  0.5604073716603037  0.8350083149425556  1.0000
  H   H104      1.0  0.7129612767373745  0.9395921776640819  0.6649933732421544  1.0000
  H   H105      1.0  0.8958122589276629  0.2774865720911847  0.8987725107739877  1.0000
  H   H106      1.0  0.8958081637765859  0.2225127653631276  0.6012263967124198  1.0000
  H   H107      1.0  0.1041945966080533  0.7225164941368405  0.10122547213281048  1.0000
  H   H108      1.0  0.10418569206844103  0.7774870028908936  0.3987727413138841  1.0000
  H   H109      1.0  0.8867925211359309  0.21786638483060727  0.8166841117459569  1.0000
  H   H110      1.0  0.8867934308739508  0.2821340734399839  0.683314336597526  1.0000
  H   H111      1.0  0.11320783456540792  0.7821359498962791  0.1833135784996997  1.0000
  H   H112      1.0  0.1132043248768397  0.7178649617507205  0.31668512678113797  1.0000
  H   H113      1.0  0.5702176400981929  0.12313125475729686  0.8454962346938542  1.0000
  H   H114      1.0  0.5702144839980505  0.3768677635652579  0.6544986418988328  1.0000
  H   H115      1.0  0.42978271557855413  0.8768710768697116  0.1545026916121372  1.0000
  H   H116      1.0  0.4297767718999311  0.6231305377993975  0.3455014558639461  1.0000
  H   H117      1.0  0.5773784382458231  0.17685706728300224  0.9288278103314621  1.0000
  H   H118      1.0  0.5773793448246208  0.3231371692952436  0.5711691581395114  1.0000
  H   H119      1.0  0.4226258173366945  0.8231445312806825  0.07117144132689651  1.0000
  H   H120      1.0  0.42261191106106827  0.6768611305194767  0.4288315576534387  1.0000
  C   C1        1.0  0.19725380138866203  0.26430317378960666  0.5410301377395398  1.0000
  C   C2        1.0  0.19727167869886847  0.23569305491324838  0.9589684877899458  1.0000
  C   C3        1.0  0.8027426543432059  0.7356954886735068  0.4589719604411897  1.0000
  C   C4        1.0  0.8027390767090878  0.7643078082591543  0.04103201626186599  1.0000
  C   C5        1.0  0.2753400353049075  0.24047240534216732  0.5647606607719807  1.0000
  C   C6        1.0  0.2753559271725195  0.25952583406042606  0.9352385925543841  1.0000
  C   C7        1.0  0.7246499205646446  0.759526987862415  0.4352420391058018  1.0000
  C   C8        1.0  0.7246483283970022  0.7404753964239603  0.06476143981345224  1.0000
  C   C9        1.0  0.2833675315310132  0.2647356362038522  0.6122030844572918  1.0000
  C   C10       1.0  0.2833830488065844  0.2352611228333784  0.8877949397729451  1.0000
  C   C11       1.0  0.7166211243803817  0.7352630254934737  0.3877993227510216  1.0000
  C   C12       1.0  0.71661990682113  0.7647382788805643  0.11220436091808489  1.0000
  C   C13       1.0  0.21366368747016656  0.31123954165748546  0.6363642211980292  1.0000
  C   C14       1.0  0.2136769114683545  0.18875774800712716  0.8636338637168491  1.0000
  C   C15       1.0  0.7863288683388916  0.6887605846027609  0.36363815331697663  1.0000
  C   C16       1.0  0.7863299440535273  0.8112412856229267  0.13636621767740553  1.0000
  C   C17       1.0  0.13689696347663732  0.3335899666683346  0.6110729245820039  1.0000
  C   C18       1.0  0.1369107902554347  0.1664064049050538  0.8889255853474438  1.0000
  C   C19       1.0  0.8630955923371745  0.6664094273081603  0.38892946627652947  1.0000
  C   C20       1.0  0.8630947652919475  0.8335929944809235  0.11107464238467192  1.0000
  C   C21       1.0  0.12746938912162162  0.3111285507010918  0.5635787018200488  1.0000
  C   C22       1.0  0.12748491341019275  0.18886820959385633  0.9364196756372677  1.0000
  C   C23       1.0  0.8725231667030827  0.6888701117666116  0.4364233963669335  1.0000
  C   C24       1.0  0.8725245420348531  0.8111326543550486  0.06358051940154036  1.0000
  C   C25       1.0  0.25041236207018613  0.2590450725979777  0.46620524401127017  1.0000
  C   C26       1.0  0.2504223960847654  0.24094109126569657  0.033790226635730385  1.0000
  C   C27       1.0  0.7495866936025879  0.7409550559795334  0.5337962034480624  1.0000
  C   C28       1.0  0.7495779596074927  0.7590564785794597  0.9662095784409173  1.0000
  C   C29       1.0  0.288454936819214  0.22318823259188034  0.6605026513450056  1.0000
  C   C30       1.0  0.2884731011838469  0.2768103385877295  0.8394979423482026  1.0000
  C   C31       1.0  0.711532419131366  0.776811529470038  0.33949895881238484  1.0000
  C   C32       1.0  0.7115350543193841  0.7231886965907318  0.16050152101380624  1.0000
  C   C33       1.0  0.16212654060489481  0.4184893478109614  0.6579796159750941  1.0000
  C   C34       1.0  0.16212391244109634  0.08150844057891496  0.8420141452212774  1.0000
  C   C35       1.0  0.8378777149960612  0.5815122530776335  0.34201870863801526  1.0000
  C   C36       1.0  0.8378790432303447  0.9184913330891789  0.1579828296848547  1.0000
  C   C37       1.0  0.23209700839688452  0.22495045270322575  0.41728045434956573  1.0000
  C   C38       1.0  0.23210462170835205  0.2750449043405182  0.08271626126513344  1.0000
  C   C39       1.0  0.7678994473091408  0.7750507715905852  0.5827220501514389  1.0000
  C   C40       1.0  0.767900933863615  0.7249544981453367  0.9172827304066473  1.0000
  C   C41       1.0  0.31491209971153483  0.2369130533983038  0.38485160554283465  1.0000
  C   C42       1.0  0.3149146877268477  0.26308210558993744  0.11514608076604556  1.0000
  C   C43       1.0  0.6850869559659857  0.7630863428954484  0.6151498582600324  1.0000
  C   C44       1.0  0.6850882678954164  0.7369176618784008  0.8848533662607635  1.0000
  C   C45       1.0  0.30501137251693683  0.20446330892404055  0.3390316714129398  1.0000
  C   C46       1.0  0.30501688620959305  0.29553407099508167  0.1609656885716574  1.0000
  C   C47       1.0  0.69498638319768  0.7955360881462069  0.6609694833769238  1.0000
  C   C48       1.0  0.694980869545951  0.7044642319118636  0.839033791150541  1.0000
  C   C49       1.0  0.13083116168952816  0.15132979787207998  0.3553763237554719  1.0000
  C   C50       1.0  0.13083398972037227  0.34866726369267537  0.1446200656477998  1.0000
  C   C51       1.0  0.8691652940505821  0.8486699649540907  0.6446249773722524  1.0000
  C   C52       1.0  0.8691624660743573  0.651332139578862  0.8553786170234757  1.0000
  C   C53       1.0  0.1386116417970626  0.1810418030503058  0.4020267682678238  1.0000
  C   C54       1.0  0.1386193390776924  0.31895377484958937  0.09796993789787933  1.0000
  C   C55       1.0  0.8613822139987946  0.8189579590039598  0.5979748418791502  1.0000
  C   C56       1.0  0.8613862164997245  0.68104526188187  0.9020289074381223  1.0000
  C   C57       1.0  0.4073069015313139  0.201843139999383  0.6833070299827071  1.0000
  C   C58       1.0  0.4073204781398801  0.2981562517499015  0.8166923858134324  1.0000
  C   C59       1.0  0.5926830543519302  0.7981569878138683  0.31669472650629865  1.0000
  C   C60       1.0  0.5926811775419623  0.7018424200067273  0.18330600417795753  1.0000
  C   C61       1.0  0.33663219039780057  0.19011409299655208  0.7172027118949911  1.0000
  C   C62       1.0  0.33664175414627817  0.3098840005708468  0.7827969630659765  1.0000
  C   C63       1.0  0.66336426533546  0.8098853025252878  0.2827990609271253  1.0000
  C   C64       1.0  0.6633612014807329  0.6901150346137325  0.21720250030436  1.0000
  C   C65       1.0  0.44525728434595646  0.17121578171722965  0.7398690691136736  1.0000
  C   C66       1.0  0.44526748865693133  0.3287816934719957  0.7601288753699079  1.0000
  C   C67       1.0  0.554740471385003  0.8287825180898377  0.26013164666885996  1.0000
  C   C68       1.0  0.554739366865654  0.6712177066874215  0.23987104334504028  1.0000
  C   C69       1.0  0.6833838669287432  0.1725544159538828  0.6966525015959703  1.0000
  C   C70       1.0  0.6833910690948743  0.32744615929011894  0.8033449071326615  1.0000
  C   C71       1.0  0.3166112888566986  0.8274464480118553  0.3033476934657528  1.0000
  C   C72       1.0  0.3166105865732831  0.6725517778578476  0.1966544262475053  1.0000
  C   C73       1.0  0.5848777391903114  0.1929893645389171  0.6730951359780234  1.0000
  C   C74       1.0  0.5848881865491151  0.30701107529797866  0.8269030600946508  1.0000
  C   C75       1.0  0.41511351664703977  0.8070125935947131  0.32690673415761745  1.0000
  C   C76       1.0  0.4151121691615814  0.6929864968720948  0.17309581793674764  1.0000
  C   C77       1.0  0.0622153216601049  0.4641710232833203  0.682123618163274  1.0000
  C   C78       1.0  0.06222208779946931  0.035828825201505786  0.8178727399296974  1.0000
  C   C79       1.0  0.9377824341119236  0.5358294803497471  0.3178742674529146  1.0000
  C   C80       1.0  0.9377860676786155  0.964173138337017  0.1821269670732731  1.0000
  C   C81       1.0  0.1567274717070291  0.506709145110932  0.707504084520522  1.0000
  C   C82       1.0  0.15673670692940084  0.9932909961193132  0.7924935311150989  1.0000
  C   C83       1.0  0.8432663841162056  0.49329208616066467  0.29249563884889074  1.0000
  C   C84       1.0  0.843271448542538  0.006710966644241997  0.20750648490295726  1.0000
  C   C85       1.0  0.06797520629542932  0.550030043990894  0.7315071705902696  1.0000
  C   C86       1.0  0.06798469775487352  0.949970305402793  0.7684910384594089  1.0000
  C   C87       1.0  0.9320186495469472  0.44997155613497597  0.2684914630545805  1.0000
  C   C88       1.0  0.9320247577031611  0.050030926625410595  0.2315083758699217  1.0000
  C   C89       1.0  0.8018475161219314  0.512697659863754  0.705355331262588  1.0000
  C   C90       1.0  0.8018554487838474  0.987303515171078  0.7946443316418835  1.0000
  C   C91       1.0  0.19814893967894426  0.4873017441827513  0.29464304239360206  1.0000
  C   C92       1.0  0.19815140671903464  0.012698447594004797  0.20535568437825447  1.0000
  C   C93       1.0  0.8803976386704451  0.4674851709329531  0.681293591622193  1.0000
  C   C94       1.0  0.8804070175693043  0.03251566581185018  0.8187059505806287  1.0000
  C   C95       1.0  0.11959621718617092  0.5325142323416472  0.3187050910532463  1.0000
  C   C96       1.0  0.1195985379583746  0.9674862961797925  0.18129437445667654  1.0000
  C   C97       1.0  0.7767754252977214  0.2711009832962786  0.11576975296550526  1.0000
  C   C98       1.0  0.7767820730607939  0.22889638249273495  0.38422684331029433  1.0000
  C   C99       1.0  0.2232288303051888  0.7288984191911111  0.8842292387083573  1.0000
  C   C100      1.0  0.22321958259311  0.7711037515064944  0.6157724410392902  1.0000
  C   C101      1.0  0.7043923511473908  0.3172820973922155  0.13973524126448914  1.0000
  C   C102      1.0  0.7043992933044124  0.1827147057404374  0.3602619123151029  1.0000
  C   C103      1.0  0.2956028046700397  0.682716205517792  0.8602642384618732  1.0000
  C   C104      1.0  0.29560236234809184  0.8172846952000725  0.6397376973930945  1.0000
  C   C105      1.0  0.6299577768138607  0.3396591895672998  0.11417467210097947  1.0000
  C   C106      1.0  0.6299601114971553  0.1603388852912957  0.3858234680279295  1.0000
  C   C107      1.0  0.37005037866073565  0.6603409413244066  0.8858258482985306  1.0000
  C   C108      1.0  0.3700454440447772  0.8396608798490774  0.6141769060399581  1.0000
  C   C109      1.0  0.6255194822682101  0.3176025060097416  0.06661099909618427  1.0000
  C   C110      1.0  0.6255339170516621  0.18239521197881453  0.4333876269298783  1.0000
  C   C111      1.0  0.3744834733261159  0.6823987237012117  0.9333893422888122  1.0000
  C   C112      1.0  0.37447293846072693  0.8176052862187502  0.5666124217773216  1.0000
  C   C113      1.0  0.6977582311714345  0.27103594392554686  0.044220423468452445  1.0000
  C   C114      1.0  0.6977698290025317  0.22896087326958536  0.45577736939234353  1.0000
  C   C115      1.0  0.30224992430050424  0.7289660188380079  0.9557795925496034  1.0000
  C   C116      1.0  0.30223572655644665  0.7710381611369638  0.5442224029889144  1.0000
  C   C117      1.0  0.773526614061069  0.24720109827286751  0.06826390153308638  1.0000
  C   C118      1.0  0.7735336389727367  0.25279554365519624  0.4317324124811036  1.0000
  C   C119      1.0  0.22647634156873414  0.7527994030291649  0.9317349111200242  1.0000
  C   C120      1.0  0.22646801667977465  0.7472038572853066  0.5682671972270938  1.0000
  C   C121      1.0  0.7768098796538041  0.22838277029339335  0.16303111599795977  1.0000
  C   C122      1.0  0.7768035173740702  0.27161459542982397  0.3369654801882759  1.0000
  C   C123      1.0  0.22319567588002806  0.7716191924732242  0.83696890002426  1.0000
  C   C124      1.0  0.22319813833641436  0.72838298061356  0.6630318527656129  1.0000
  C   C125      1.0  0.649035884708269  0.42450859883135916  0.1618857285622326  1.0000
  C   C126      1.0  0.6490308954456696  0.07548905994339349  0.3381143672139827  1.0000
  C   C127      1.0  0.35096187092573666  0.5754904216349246  0.838119606103035  1.0000
  C   C128      1.0  0.3509668602703401  0.9245110701855876  0.6618864622172679  1.0000
  C   C129      1.0  0.751233570557517  0.26643758044094307  0.9694252624167559  1.0000
  C   C130      1.0  0.7512464351618392  0.23355185468453493  0.5305706289614845  1.0000
  C   C131      1.0  0.24876678510149472  0.7335651153905188  0.030574428255185665  1.0000
  C   C132      1.0  0.24875262058385061  0.7664446186739438  0.46942842809482227  1.0000
  C   C133      1.0  0.8923703543691632  0.20521019831748075  0.18488193184886365  1.0000
  C   C134      1.0  0.892364540907039  0.294786529600671  0.3151141476966116  1.0000
  C   C135      1.0  0.10762870135823022  0.7947895707053902  0.81511689715402  1.0000
  C   C136      1.0  0.10762801502620793  0.7052110472283953  0.6848828762567789  1.0000
  C   C137      1.0  0.815845888488646  0.18885720786141744  0.21506300094501532  1.0000
  C   C138      1.0  0.8158410500174328  0.31114043094168403  0.28493392550193863  1.0000
  C   C139      1.0  0.1841544671737196  0.8111440226275587  0.7849370314290665  1.0000
  C   C140      1.0  0.18415150591581414  0.6888571458873826  0.7150630984514449  1.0000
  C   C141      1.0  0.9202331352203645  0.16715300832196786  0.23609914410979366  1.0000
  C   C142      1.0  0.9202197336560263  0.33284694502571444  0.263898472200914  1.0000
  C   C143      1.0  0.0797724203359564  0.8328478579564371  0.7639001238900106  1.0000
  C   C144      1.0  0.07977022235139943  0.6671506333563499  0.7360979337264694  1.0000
  C   C145      1.0  0.16617767707634104  0.1750609830229592  0.19859570858866246  1.0000
  C   C146      1.0  0.1661654918580666  0.3249389252574486  0.3014001931844417  1.0000
  C   C147      1.0  0.8338265785123229  0.8249406163157004  0.8014032340546108  1.0000
  C   C148      1.0  0.8338231641653595  0.6750604834480569  0.6985963263937478  1.0000
  C   C149      1.0  0.0718755933595858  0.19835078524226896  0.17685239941836525  1.0000
  C   C150      1.0  0.07186806512824973  0.3016478812440865  0.32314352820257847  1.0000
  C   C151      1.0  0.9281247623205147  0.8016500810422541  0.8231468685897667  1.0000
  C   C152      1.0  0.9281244907784512  0.6983518908863147  0.6768540647503868  1.0000
  C   C153      1.0  0.5459722443471905  0.4695784010747132  0.18606486736845074  1.0000
  C   C154      1.0  0.5459714424723362  0.030421697176628  0.31393550962948774  1.0000
  C   C155      1.0  0.45403071120815514  0.5304217243983231  0.8139378161449711  1.0000
  C   C156      1.0  0.4540302131330948  0.9695787971522094  0.6860660841614602  1.0000
  C   C157      1.0  0.6375360478781787  0.5124500810806935  0.21216805575674866  1.0000
  C   C158      1.0  0.6375351485416305  0.9875503160850624  0.28783389725077047  1.0000
  C   C159      1.0  0.3624669076655778  0.48755040937177085  0.7878350831075378  1.0000
  C   C160      1.0  0.36246520706470875  0.0124505408998274  0.7121690789383734  1.0000
  C   C161      1.0  0.5458341565011935  0.5552342620617736  0.23616613052988097  1.0000
  C   C162      1.0  0.5458374056876638  0.944766352531694  0.2638354982920531  1.0000
  C   C163      1.0  0.45416489917227665  0.4447662330451009  0.7638351542501522  1.0000
  C   C164      1.0  0.4541642499075706  0.05523523983530508  0.7361662254911465  1.0000
  C   C165      1.0  0.28239623903080974  0.5167037084827726  0.2088199524894776  1.0000
  C   C166      1.0  0.28239786523214877  0.983296788584056  0.2911846999494685  1.0000
  C   C167      1.0  0.7176002167072044  0.4832949547553155  0.7911818366761665  1.0000
  C   C168      1.0  0.7176024903557591  0.0167040660759241  0.7088192032849319  1.0000
  C   C169      1.0  0.3640376868718391  0.47199053427086557  0.18464061408435126  1.0000
  C   C170      1.0  0.3640368617167412  0.02800999306197129  0.3153600368929758  1.0000
  C   C171      1.0  0.635962668774731  0.5280088620213518  0.8153608497164341  1.0000
  C   C172      1.0  0.6359634939271785  0.9719912351020948  0.6846409225263554  1.0000
  C   C173      1.0  0.7376475080669421  0.23181758594421342  0.92049442329278  1.0000
  C   C174      1.0  0.7376449447810105  0.2681788359417182  0.5795021289197919  1.0000
  C   C175      1.0  0.2623580474744288  0.7681851106560981  0.07950495835574141  1.0000
  C   C176      1.0  0.262345011154757  0.7318198327288029  0.4204974971506842  1.0000
  C   C177      1.0  0.8216624686953795  0.24373631094280057  0.8881875244090337  1.0000
  C   C178      1.0  0.8216613841795068  0.2562621053565977  0.6118105636420025  1.0000
  C   C179      1.0  0.17834048690858137  0.7562667521899298  0.11181169456435198  1.0000
  C   C180      1.0  0.17833247164708155  0.7437376605725203  0.3881895014295509  1.0000
  C   C181      1.0  0.8163272348191273  0.21074191476602513  0.842456833641883  1.0000
  C   C182      1.0  0.8163225721425108  0.2892572463814389  0.657541255167679  1.0000
  C   C183      1.0  0.1836770207647902  0.7892604168563861  0.15754209265786293  1.0000
  C   C184      1.0  0.18367258364628475  0.7107421522418135  0.34245928159618433  1.0000
  C   C185      1.0  0.6444752767240021  0.15705720212712035  0.8585837353734149  1.0000
  C   C186      1.0  0.6444692120434541  0.34294126865398056  0.6414135380713758  1.0000
  C   C187      1.0  0.3555276788813516  0.8429465940643437  0.14141515824135095  1.0000
  C   C188      1.0  0.35552204383063923  0.6570573961401677  0.3585876330724317  1.0000
  C   C189      1.0  0.6472313739804321  0.1874065116551051  0.9051356079473081  1.0000
  C   C190      1.0  0.6472301834539566  0.3125912195731785  0.594861982016603  1.0000
  C   C191      1.0  0.35277418155548906  0.8125965506995954  0.09486392003699246  1.0000
  C   C192      1.0  0.3527636723589396  0.6874078117472706  0.40513902644373456  1.0000
  Br  Br1       1.0  0.5230734719633717  0.10995770450976748  0.23679879164897238  1.0000
  Br  Br2       1.0  0.5230788050489251  0.3900417331827057  0.26319456771298627  1.0000
  Br  Br3       1.0  0.4769216839019776  0.8900431695305712  0.7631973862166601  1.0000
  Br  Br4       1.0  0.47691635091266704  0.6099580536690538  0.7367971539492187  1.0000
  Br  Br5       1.0  0.04645315229294061  0.11382892903429108  0.7410343281258134  1.0000
  Br  Br6       1.0  0.046447007980276594  0.3861654702567918  0.7589598854597739  1.0000
  Br  Br7       1.0  0.9535433034580691  0.8861701022831026  0.25896668033036  1.0000
  Br  Br8       1.0  0.9535455478581201  0.6138339268195805  0.2410412693384244  1.0000
  N   N1        1.0  0.6155729939516591  0.1618056611964747  0.7298889921817703  1.0000
  N   N2        1.0  0.6155800705297098  0.3381925126308758  0.7701079185061132  1.0000
  N   N3        1.0  0.3844273617256492  0.8381937389705952  0.2701109265435945  1.0000
  N   N4        1.0  0.38442418504791936  0.6618065202272729  0.22989247190739084  1.0000
  N   N5        1.0  0.8930447607840721  0.5538251343809647  0.7304380495119459  1.0000
  N   N6        1.0  0.8930555622080975  0.9461772897484122  0.7695615974818251  1.0000
  N   N7        1.0  0.10694909508148952  0.4461757357860563  0.269559673431182  1.0000
  N   N8        1.0  0.10695389322675201  0.053824672238640396  0.23043872754923458  1.0000
  N   N9        1.0  0.21388153258719464  0.16224397384173264  0.32405669213726895  1.0000
  N   N10       1.0  0.21388586480104274  0.33775398869403267  0.17594017915787669  1.0000
  N   N11       1.0  0.7861162231451647  0.8377550590240614  0.6759436982866517  1.0000
  N   N12       1.0  0.7861118909906823  0.6622439523333695  0.8240576091531223  1.0000
  N   N13       1.0  0.09242215492896123  0.159491191353787  0.22801955259119205  1.0000
  N   N14       1.0  0.09240962543808001  0.3405088882358098  0.2719775125712687  1.0000
  N   N15       1.0  0.9075860005252427  0.8405111356142212  0.771981227792814  1.0000
  N   N16       1.0  0.9075803305421106  0.6594905189182256  0.728019625035003  1.0000
  N   N17       1.0  0.3707959362995226  0.5581691138104218  0.23448763641890474  1.0000
  N   N18       1.0  0.3708004592791384  0.9418315447735282  0.265515334006146  1.0000
  N   N19       1.0  0.6292018194212404  0.4418302840348004  0.7655132093558803  1.0000
  N   N20       1.0  0.6292011963031  0.058169679514165296  0.734487170486524  1.0000
  N   N21       1.0  0.7291025077129805  0.16788423056745927  0.8274135926396439  1.0000
  N   N22       1.0  0.7290992519075772  0.33211696701783905  0.6725845803058162  1.0000
  N   N23       1.0  0.2708991479171773  0.8321195648505576  0.17258560999229633  1.0000
  N   N24       1.0  0.27089460389442616  0.6678827958114011  0.327416720826072  1.0000
  O   O1        1.0  0.1863832838976407  0.23806732104497993  0.49371903666717987  1.0000
  O   O2        1.0  0.18639802239042075  0.26192850471324647  0.00627982584828148  1.0000
  O   O3        1.0  0.8136118718679699  0.7619328075371214  0.5062824107984056  1.0000
  O   O4        1.0  0.8136127330291317  0.7380719934797353  0.9937202228526656  1.0000
  O   O5        1.0  0.37832217454135997  0.2421674804289893  0.634959558076474  1.0000
  O   O6        1.0  0.37834348490092407  0.25783014922451025  0.8650398369377469  1.0000
  O   O7        1.0  0.6216716812708397  0.7578311843620964  0.36504161306316957  1.0000
  O   O8        1.0  0.6216607706788011  0.7421699832217213  0.13496006543784478  1.0000
  O   O9        1.0  0.056658214378529706  0.3792258590177082  0.6333169621570814  1.0000
  O   O10       1.0  0.056669659528871805  0.12077180259288406  0.866680698826613  1.0000
  O   O11       1.0  0.9433382413076573  0.6207746298924662  0.36668679474778537  1.0000
  O   O12       1.0  0.9433410959056232  0.8792268652781843  0.13331923622561695  1.0000
  O   O13       1.0  0.3154700412152067  0.29959067800314887  0.48082982878134567  1.0000
  O   O14       1.0  0.31546561989490846  0.20039825875527834  0.019166604103013185  1.0000
  O   O15       1.0  0.6845251145449539  0.7004098163333479  0.5191717650200188  1.0000
  O   O16       1.0  0.6845308358963322  0.7995993118694426  0.9808328919647947  1.0000
  O   O17       1.0  0.13041892485174605  0.22431652853595804  0.6638247907847371  1.0000
  O   O18       1.0  0.13043593713629784  0.27568168008139077  0.836177252712602  1.0000
  O   O19       1.0  0.8695710310641902  0.7756814047509334  0.3361760876896012  1.0000
  O   O20       1.0  0.869569618396696  0.7243166181665615  0.16382408108760413  1.0000
  O   O21       1.0  0.3202846803471148  0.4155900958162348  0.6587558419931128  1.0000
  O   O22       1.0  0.32029114275550097  0.08440586186262068  0.8412349729502323  1.0000
  O   O23       1.0  0.6797182753169154  0.5844122420074667  0.34124061218804497  1.0000
  O   O24       1.0  0.679715712904404  0.9155946549342102  0.15875765939494346  1.0000
  O   O25       1.0  0.8694993162427663  0.24842994150445458  0.13882161088842077  1.0000
  O   O26       1.0  0.8694987677770385  0.2515683055924923  0.3611742002348493  1.0000
  O   O27       1.0  0.13050493942426303  0.7515676368607769  0.8611747950160475  1.0000
  O   O28       1.0  0.13050158787442712  0.7484336564052683  0.6388261248107908  1.0000
  O   O29       1.0  0.5466784068021227  0.3848763556123912  0.13622767493635723  1.0000
  O   O30       1.0  0.5466796463823514  0.11512191297712349  0.363771659101502  1.0000
  O   O31       1.0  0.4533232487882232  0.6151226710490574  0.8637751876019876  1.0000
  O   O32       1.0  0.4533259091541312  0.8848782179176453  0.6362288613021647  1.0000
  O   O33       1.0  0.6917192907392292  0.24484457040394145  0.9968605435729215  1.0000
  O   O34       1.0  0.6917342482810582  0.25514939232913036  0.5031379125701179  1.0000
  O   O35       1.0  0.3082888647204173  0.7551573908096781  0.0031400904753055366  1.0000
  O   O36       1.0  0.308271307281963  0.7448485432643038  0.4968620388339744  1.0000
  O   O37       1.0  0.6185775847976489  0.22959545049376823  0.16569907809086704  1.0000
  O   O38       1.0  0.6185765454911589  0.27039789945255416  0.33429596008490137  1.0000
  O   O39       1.0  0.3814240707914323  0.770406141098256  0.8343029547074181  1.0000
  O   O40       1.0  0.38142381027681443  0.7295974812910229  0.6657008038714878  1.0000
  O   O41       1.0  0.8072421021182451  0.42235494862734396  0.16346662985311866  1.0000
  O   O42       1.0  0.8072436459079882  0.07764125128036878  0.33652819373521226  1.0000
  O   O43       1.0  0.19275435358219545  0.5776433434315605  0.8365371760823377  1.0000
  O   O44       1.0  0.1927606097079178  0.9223585192863195  0.6634700172291801  1.0000
  O   O45       1.0  0.809482007002657  0.30777776746118224  0.9840138934772396  1.0000
  O   O46       1.0  0.809499925403884  0.1922151911749239  0.5159820385379844  1.0000
  O   O47       1.0  0.19052614849456972  0.6922245649316139  0.01598472380116794  1.0000
  O   O48       1.0  0.19050173026972317  0.8077823802186399  0.48401714850641026  1.0000
