data_image0
_chemical_formula_structural       Zn2H28C30N4O8
_chemical_formula_sum              "Zn2 H28 C30 N4 O8"
_cell_length_a       7.886945611848983
_cell_length_b       9.4256567802699
_cell_length_c       10.38150181816832
_cell_angle_alpha    109.57371690244696
_cell_angle_beta     94.15987308573887
_cell_angle_gamma    104.07942083406387

_space_group_name_H-M_alt    "P 1"
_space_group_IT_number       1

loop_
  _space_group_symop_operation_xyz
  'x, y, z'

loop_
  _atom_site_type_symbol
  _atom_site_label
  _atom_site_symmetry_multiplicity
  _atom_site_fract_x
  _atom_site_fract_y
  _atom_site_fract_z
  _atom_site_occupancy
  Zn  Zn1       1.0  0.8421568559557643  0.011590087168123398  0.8591996591437832  1.0000
  Zn  Zn2       1.0  0.15784172176521596  0.9884059059126357  0.1407980023010893  1.0000
  H   H1        1.0  0.6329692052774477  0.06394476929710889  0.1001188142613572  1.0000
  H   H2        1.0  0.36702667097555525  0.936054745309761  0.8998778626242866  1.0000
  H   H3        1.0  0.6708809072023599  0.6545137269093786  0.7262754199433203  1.0000
  H   H4        1.0  0.32912233754297665  0.34549283805942815  0.2737257015396324  1.0000
  H   H5        1.0  0.036012460297207886  0.9645337807154561  0.6117647954687654  1.0000
  H   H6        1.0  0.96399605767612  0.0354692655776603  0.3882403285067113  1.0000
  H   H7        1.0  0.04445594161676071  0.7580842702588553  0.3913042467796402  1.0000
  H   H8        1.0  0.9555537276746124  0.24192230145032312  0.6087039375392961  1.0000
  H   H9        1.0  0.6276950607897476  0.2627539800091866  0.31770888075126175  1.0000
  H   H10       1.0  0.37229987151695115  0.7372384909761253  0.6822904143730568  1.0000
  H   H11       1.0  0.037152523654079124  0.3670081481049364  0.006178678836960194  1.0000
  H   H12       1.0  0.9628418933250772  0.6329948859820504  0.9938141844807473  1.0000
  H   H13       1.0  0.5143771572696565  0.26761549348310615  0.9642152027363051  1.0000
  H   H14       1.0  0.485622372716506  0.7323793298696373  0.03578792819911314  1.0000
  H   H15       1.0  0.392894645174046  0.40493766681439064  0.9869695600988063  1.0000
  H   H16       1.0  0.6071111116943729  0.5950606822555997  0.013035919084984532  1.0000
  H   H17       1.0  0.6597894935927118  0.43030466886356317  0.5113983735469034  1.0000
  H   H18       1.0  0.3402172883901289  0.5696971955945429  0.48859763405152273  1.0000
  H   H19       1.0  0.05453145599878441  0.5853274414144565  0.22451323141650897  1.0000
  H   H20       1.0  0.9454551146032701  0.41467089437684723  0.7754797352100623  1.0000
  H   H21       1.0  0.5130465411737788  0.3844273299782017  0.7749557175292024  1.0000
  H   H22       1.0  0.4869603475967425  0.6155745429650992  0.22505089400899445  1.0000
  H   H23       1.0  0.28063306862963344  0.29891170506871123  0.7303922901144233  1.0000
  H   H24       1.0  0.7193683575680012  0.7010889921775884  0.26961369207285907  1.0000
  H   H25       1.0  0.4344765881131282  0.13839909254269858  0.5683222718175713  1.0000
  H   H26       1.0  0.5655286034987911  0.8616016016511165  0.4316790793216753  1.0000
  H   H27       1.0  0.3239966641213742  0.030592115820802197  0.6647362996833124  1.0000
  H   H28       1.0  0.6760076528891406  0.9694097542720711  0.33526729392158217  1.0000
  C   C1        1.0  0.843820582173706  0.44614328362588657  0.2956976412498165  1.0000
  C   C2        1.0  0.15617823343203704  0.5538574076844612  0.7043014670260703  1.0000
  C   C3        1.0  0.8490410381806444  0.57299722196759  0.42837812013235776  1.0000
  C   C4        1.0  0.15096375671463144  0.42700229605903667  0.5716209255663713  1.0000
  C   C5        1.0  0.7264398133352475  0.18010310078503264  0.130925579681417  1.0000
  C   C6        1.0  0.2735600044646206  0.8199046387751634  0.869076694322949  1.0000
  C   C7        1.0  0.7498821465174715  0.6707432817277308  0.6477156984528065  1.0000
  C   C8        1.0  0.2501208312191992  0.3292585826973351  0.35228108421555493  1.0000
  C   C9        1.0  0.9543918631836023  0.8440256031696193  0.583902609591476  1.0000
  C   C10       1.0  0.04560679359025241  0.1559786102031282  0.4160956400749  1.0000
  C   C11       1.0  0.9572903981202574  0.7269996173509481  0.460505559483721  1.0000
  C   C12       1.0  0.0427101049361127  0.27300225193750544  0.5394978451965925  1.0000
  C   C13       1.0  0.7244551232736716  0.2957106271080008  0.25565306244831726  1.0000
  C   C14       1.0  0.2755392437765281  0.704284189001136  0.7443421046314568  1.0000
  C   C15       1.0  0.9504117837794653  0.3497681473480582  0.07988316414975567  1.0000
  C   C16       1.0  0.04957895866149184  0.6502313623293359  0.9201084408638207  1.0000
  C   C17       1.0  0.39590302432062435  0.2874910072460679  0.9190710860103691  1.0000
  C   C18       1.0  0.6040981445763122  0.7125049902278702  0.08093152135684525  1.0000
  C   C19       1.0  0.23346272272236496  0.17559194195297323  0.9386510489484577  1.0000
  C   C20       1.0  0.766536092883378  0.8244087493573814  0.06134805932742895  1.0000
  C   C21       1.0  0.7444044995542713  0.5466756327102613  0.5265726973408674  1.0000
  C   C22       1.0  0.2556011796503768  0.4533227101886865  0.4734250698867228  1.0000
  C   C23       1.0  0.9575236084519717  0.4721767517254491  0.2023746172903955  1.0000
  C   C24       1.0  0.04246475989275209  0.5278192361246424  0.7976186843774896  1.0000
  C   C25       1.0  0.6076012761811785  0.1114922389644235  0.7224797523425366  1.0000
  C   C26       1.0  0.3924006376091925  0.888506106987002  0.2775226459330966  1.0000
  C   C27       1.0  0.4041211338600022  0.28414914485914977  0.7718102261561837  1.0000
  C   C28       1.0  0.5958829646816997  0.715848028546887  0.22819384860675032  1.0000
  C   C29       1.0  0.432638730048801  0.13259410750606554  0.6723485653019663  1.0000
  C   C30       1.0  0.5673604919815532  0.867407760742864  0.3276538124089682  1.0000
  N   N1        1.0  0.8393394962992604  0.20443919634394797  0.04441536373123969  1.0000
  N   N2        1.0  0.1606547313349936  0.7955591433703476  0.9555808727280705  1.0000
  N   N3        1.0  0.8530727331232273  0.8177438842721828  0.6769051276277124  1.0000
  N   N4        1.0  0.14692736350853153  0.182256808077689  0.3230950076175603  1.0000
  O   O1        1.0  0.09510229707186824  0.1225930210564243  0.8463542875019172  1.0000
  O   O2        1.0  0.9048953359766687  0.8774158910491677  0.15364631001514079  1.0000
  O   O3        1.0  0.24695376189254156  0.14994188184549978  0.05098056097997979  1.0000
  O   O4        1.0  0.7530369306194589  0.8500494098540442  0.949013347795663  1.0000
  O   O5        1.0  0.5975223259146532  0.9993718896244557  0.7694709289416933  1.0000
  O   O6        1.0  0.40247892415040104  0.000620579616033  0.23052482507883806  1.0000
  O   O7        1.0  0.7514837973170999  0.20454694077346855  0.721758422831712  1.0000
  O   O8        1.0  0.2485203012246019  0.795450232632568  0.278245651931222  1.0000
