data_image0
_chemical_formula_structural       CuH12PdC14N8
_chemical_formula_sum              "Cu1 H12 Pd1 C14 N8"
_cell_length_a       6.598693814869908
_cell_length_b       7.722241601028403
_cell_length_c       8.745066661655219
_cell_angle_alpha    113.07289082600363
_cell_angle_beta     94.97003284062954
_cell_angle_gamma    91.80795420379287

_space_group_name_H-M_alt    "P 1"
_space_group_IT_number       1

loop_
  _space_group_symop_operation_xyz
  'x, y, z'

loop_
  _atom_site_type_symbol
  _atom_site_label
  _atom_site_symmetry_multiplicity
  _atom_site_fract_x
  _atom_site_fract_y
  _atom_site_fract_z
  _atom_site_occupancy
  Cu  Cu1       1.0  0.4999988939257207  0.5000010244554787  0.5000019868641274  1.0000
  H   H1        1.0  0.9141852994951235  0.43816189014539475  0.3902778737238961  1.0000
  H   H2        1.0  0.08581607116590108  0.5618472193958721  0.609720774885119  1.0000
  H   H3        1.0  0.07707707954769208  0.29635428642449557  0.12386961477211138  1.0000
  H   H4        1.0  0.9229278313269801  0.7036420932719167  0.8761294027165719  1.0000
  H   H5        1.0  0.8348389147910922  0.15113847281193668  0.8530404008348995  1.0000
  H   H6        1.0  0.1651625182988923  0.8488522624865382  0.1469621538039192  1.0000
  H   H7        1.0  0.262335922404958  0.13932173447415147  0.8685506920387951  1.0000
  H   H8        1.0  0.7376666428987945  0.8606831250043925  0.13145112744819443  1.0000
  H   H9        1.0  0.45396872200969784  0.009492647202407098  0.74670420415449  1.0000
  H   H10       1.0  0.5460291599380085  0.99051082302676  0.25329569566609683  1.0000
  H   H11       1.0  0.42235820506969185  0.24276294836493406  0.7676094351984944  1.0000
  H   H12       1.0  0.5776447135589817  0.7572461420103308  0.2323950211661412  1.0000
  Pd  Pd1       1.0  9.253670824792742e-07  0.9999979188735181  0.49999522259989254  1.0000
  C   C1        1.0  0.19659719493277086  0.16841351200040577  0.4568951013880067  1.0000
  C   C2        1.0  0.8033953911053048  0.8315815285041595  0.5430935311032031  1.0000
  C   C3        1.0  0.8297935105336691  0.2177138144953332  0.5833711214233404  1.0000
  C   C4        1.0  0.17020190128241808  0.7822783831845469  0.41662012985523933  1.0000
  C   C5        1.0  0.823005772494291  0.3730671344018858  0.2702872658967692  1.0000
  C   C6        1.0  0.17699361917084389  0.626936334461696  0.7297104408944718  1.0000
  C   C7        1.0  0.9111557420260822  0.2931382542624306  0.12079519942967211  1.0000
  C   C8        1.0  0.0888491743129123  0.7068581228910703  0.8792049610282859  1.0000
  C   C9        1.0  0.779752588578077  0.21548545097065394  0.9753498471527919  1.0000
  C   C10       1.0  0.22024753937996164  0.7845081207010907  0.024650181607874796  1.0000
  C   C11       1.0  0.5680988367677102  0.22265869851106146  0.9867672685475384  1.0000
  C   C12       1.0  0.43190175500446776  0.7773405177468788  0.013234752090959138  1.0000
  C   C13       1.0  0.4170086479432554  0.14849642965475604  0.8345390295683259  1.0000
  C   C14       1.0  0.5829922862252134  0.8515070225857427  0.16546334200926086  1.0000
  N   N1        1.0  0.3095259675236264  0.28072926578133206  0.4443984655536539  1.0000
  N   N2        1.0  0.6904741495057818  0.719264310976243  0.5555992772684563  1.0000
  N   N3        1.0  0.7331044102027915  0.3500707766923696  0.6280615823133147  1.0000
  N   N4        1.0  0.26689256365242636  0.6499397404634665  0.3719475722610285  1.0000
  N   N5        1.0  0.6212429081864173  0.3736747148769695  0.2732308332181006  1.0000
  N   N6        1.0  0.3787624719667165  0.6263273068627129  0.7267713191176953  1.0000
  N   N7        1.0  0.49305463509994496  0.29978298640602213  0.13503517604868154  1.0000
  N   N8        1.0  0.5069459566722401  0.7002162298519182  0.8649668445898159  1.0000
