data_image0
_chemical_formula_structural       Al4H36C64O20
_chemical_formula_sum              "Al4 H36 C64 O20"
_cell_length_a       6.697466633001772
_cell_length_b       23.449241529009008
_cell_length_c       25.9758049260026
_cell_angle_alpha    90.000039325703
_cell_angle_beta     89.99996286065465
_cell_angle_gamma    89.99991755460107

_space_group_name_H-M_alt    "P 1"
_space_group_IT_number       1

loop_
  _space_group_symop_operation_xyz
  'x, y, z'

loop_
  _atom_site_type_symbol
  _atom_site_label
  _atom_site_symmetry_multiplicity
  _atom_site_fract_x
  _atom_site_fract_y
  _atom_site_fract_z
  _atom_site_occupancy
  Al  Al1       1.0  0.21048315864412356  0.7509625114319999  0.2500005534761556  1.0000
  Al  Al2       1.0  0.7895193675317033  0.24903847107282215  0.7499998631808822  1.0000
  Al  Al3       1.0  0.7104841619856755  0.7490369854848634  0.2500005068877087  1.0000
  Al  Al4       1.0  0.28951687108947505  0.250963570567201  0.749999909769329  1.0000
  H   H1        1.0  0.3512758456085336  0.36868800504574023  0.6320263109441626  1.0000
  H   H2        1.0  0.6487251874598456  0.6313151097243404  0.3679737207400464  1.0000
  H   H3        1.0  0.648723961114264  0.6313150210378706  0.1320268456592615  1.0000
  H   H4        1.0  0.35127557885670774  0.36868681437311307  0.8679724160774213  1.0000
  H   H5        1.0  0.8512727664735917  0.13131358777619787  0.8679722957255508  1.0000
  H   H6        1.0  0.1487252803973647  0.8686869682765559  0.1320285059053958  1.0000
  H   H7        1.0  0.14872949295148893  0.8686870569608938  0.3679711462759414  1.0000
  H   H8        1.0  0.8512760194322339  0.13131307263675746  0.6320277304860227  1.0000
  H   H9        1.0  0.33838577410556775  0.4408092899449014  0.5610314221414399  1.0000
  H   H10       1.0  0.6616107796607834  0.5591925454669135  0.43896860954278344  1.0000
  H   H11       1.0  0.6616052345392447  0.5591924034109893  0.06103267924321191  1.0000
  H   H12       1.0  0.3383898261283988  0.4408081526421625  0.9389677374143801  1.0000
  H   H13       1.0  0.838385927177981  0.059191454638025186  0.93896603197782  1.0000
  H   H14       1.0  0.16161361279201708  0.9408099543206558  0.061035154626893004  1.0000
  H   H15       1.0  0.16161318551093734  0.9408105228286627  0.43896569529628243  1.0000
  H   H16       1.0  0.8383848613601331  0.05919045967668519  0.5610339514139042  1.0000
  H   H17       1.0  0.7117778526392868  0.3596194165729684  0.6330776379401257  1.0000
  H   H18       1.0  0.2882246735259458  0.6403845511037642  0.3669247035860153  1.0000
  H   H19       1.0  0.2882204586103255  0.6403831838466584  0.13307400993836888  1.0000
  H   H20       1.0  0.7117775882624782  0.35961779865811383  0.866924096877284  1.0000
  H   H21       1.0  0.21177571512926355  0.14038393258071113  0.8669248441257053  1.0000
  H   H22       1.0  0.7882253179515643  0.8596149176589661  0.1330748025835362  1.0000
  H   H23       1.0  0.7882280397689172  0.8596150055572663  0.3669254962309196  1.0000
  H   H24       1.0  0.2117774726165677  0.14038341822929817  0.6330760753459401  1.0000
  H   H25       1.0  0.6956596956103877  0.4315270490476592  0.5619680272246299  1.0000
  H   H26       1.0  0.30433984435349964  0.5684760657235582  0.4380343143015182  1.0000
  H   H27       1.0  0.3043342971246402  0.5684746450103615  0.061965506123002  1.0000
  H   H28       1.0  0.6956622566492499  0.43152420523055907  0.9380352955075466  1.0000
  H   H29       1.0  0.19566078884400173  0.06847545303604359  0.9380333028845129  1.0000
  H   H30       1.0  0.8043402442356251  0.9315238236566612  0.061966343824863705  1.0000
  H   H31       1.0  0.8043413121613554  0.9315248179172143  0.4380339970827478  1.0000
  H   H32       1.0  0.1956597209165309  0.06847445877607328  0.5619671895211553  1.0000
  H   H33       1.0  0.4563136397124338  0.6744461327856185  0.2499997369478777  1.0000
  H   H34       1.0  0.5436859002617142  0.32555442326643186  0.7499999097620389  1.0000
  H   H35       1.0  0.9563157048493308  0.8255541280105019  0.24999973830344396  1.0000
  H   H36       1.0  0.043683835125250384  0.1744464280414063  0.7499995234328409  1.0000
  C   C1        1.0  0.462170592748727  0.8187834490054653  0.3197246661958602  1.0000
  C   C2        1.0  0.5378304403267505  0.18121668059386303  0.680276520408313  1.0000
  C   C3        1.0  0.5378287895698791  0.18121630655605256  0.8197239797005267  1.0000
  C   C4        1.0  0.46216477799708844  0.8187838230443487  0.18027643695706527  1.0000
  C   C5        1.0  0.9621586981221524  0.681215956766209  0.18027519295277727  1.0000
  C   C6        1.0  0.03784532115598439  0.31878502573820083  0.8197248387304938  1.0000
  C   C7        1.0  0.0378469719154708  0.3187853997751445  0.6802750695964761  1.0000
  C   C8        1.0  0.9621585404633421  0.681216009182016  0.3197249620867879  1.0000
  C   C9        1.0  0.20153854038385788  0.4228752651484127  0.5769046619565472  1.0000
  C   C10       1.0  0.7984654788886018  0.5771274231683916  0.4230961396745201  1.0000
  C   C11       1.0  0.7984584047767243  0.5771268665917119  0.0769047502024378  1.0000
  C   C12       1.0  0.201538148994004  0.42287326300814226  0.9230956664548842  1.0000
  C   C13       1.0  0.7015356420538764  0.07712510254102509  0.9230943572291394  1.0000
  C   C14       1.0  0.29846539102203445  0.9228750270581684  0.076906444401402  1.0000
  C   C15       1.0  0.29846798583384526  0.9228751571811812  0.4230939841374308  1.0000
  C   C16       1.0  0.7015360334474677  0.07712454596429547  0.576906432519074  1.0000
  C   C17       1.0  0.20891453162032994  0.38294093795185075  0.6163405778140785  1.0000
  C   C18       1.0  0.7910879945506863  0.6170617503650745  0.3836598388434993  1.0000
  C   C19       1.0  0.7910838174689443  0.6170620763400902  0.1163406924390245  1.0000
  C   C20       1.0  0.2089127362990411  0.38293933261855506  0.883658954271425  1.0000
  C   C21       1.0  0.708908511155158  0.11706027997288257  0.8836580550417922  1.0000
  C   C22       1.0  0.2910895357174396  0.8829398496267014  0.11634236161539488  1.0000
  C   C23       1.0  0.291093712803537  0.8829395236502434  0.383657658283532  1.0000
  C   C24       1.0  0.708908813376766  0.11706017949521909  0.6163419884258375  1.0000
  C   C25       1.0  0.032132802911441195  0.3603509080176365  0.6369112681166911  1.0000
  C   C26       1.0  0.9678682301572649  0.6396517802997079  0.3630895335146533  1.0000
  C   C27       1.0  0.9678654996680364  0.6396512688318622  0.1369102094577102  1.0000
  C   C28       1.0  0.032132547203467296  0.36034971367333657  0.8630890522788376  1.0000
  C   C29       1.0  0.5321341671319784  0.13965122683224956  0.8630873972560877  1.0000
  C   C30       1.0  0.4678683590478911  0.8603484763133478  0.1369126344269205  1.0000
  C   C31       1.0  0.467869596440792  0.8603485613269938  0.3630881087475331  1.0000
  C   C32       1.0  0.5321329297402712  0.13965071536558327  0.6369119229353402  1.0000
  C   C33       1.0  0.8474141800743169  0.3779095297524363  0.6169045038876035  1.0000
  C   C34       1.0  0.15258535988879626  0.6220940114716597  0.3830974526650408  1.0000
  C   C35       1.0  0.1525841677418711  0.6220934849627608  0.1169028142428701  1.0000
  C   C36       1.0  0.8474123860273152  0.37790749754285696  0.8830968324674515  1.0000
  C   C37       1.0  0.34740912289230147  0.12209291737511306  0.8830960283610381  1.0000
  C   C38       1.0  0.6525889239835719  0.8779063593181318  0.1169036183486085  1.0000
  C   C39       1.0  0.6525916092336813  0.8779068858263342  0.3830971018497422  1.0000
  C   C40       1.0  0.34741091694520776  0.12209239086696747  0.6169048547012963  1.0000
  C   C41       1.0  0.8388063801517162  0.4177086715691233  0.5774851419672515  1.0000
  C   C42       1.0  0.16118868050730836  0.5822940167500262  0.4225175845328053  1.0000
  C   C43       1.0  0.16118309818939736  0.5822934606079072  0.077483040828632  1.0000
  C   C44       1.0  0.8388104693820465  0.41770538963312015  0.9225166058812987  1.0000
  C   C45       1.0  0.3388089236851784  0.08229335222128498  0.9225153918638894  1.0000
  C   C46       1.0  0.6611906162921316  0.917705924471832  0.07748463981926079  1.0000
  C   C47       1.0  0.6611932124073687  0.9177073335193808  0.4225161037349139  1.0000
  C   C48       1.0  0.3388078206672417  0.08229279608023887  0.5774858528165296  1.0000
  C   C49       1.0  0.016010151549032497  0.44116244986955155  0.5568976050267622  1.0000
  C   C50       1.0  0.9839908815212012  0.5588393855420362  0.4431039665515826  1.0000
  C   C51       1.0  0.9839823595515822  0.5588379610183479  0.0568961077933778  1.0000
  C   C52       1.0  0.0160141942247165  0.4411600363165177  0.9431046938369079  1.0000
  C   C53       1.0  0.5160088041603786  0.05883798500817509  0.9431029881795041  1.0000
  C   C54       1.0  0.4839907358148636  0.9411617181382607  0.0568978134510445  1.0000
  C   C55       1.0  0.4839917922809888  0.9411622897560856  0.443102592420594  1.0000
  C   C56       1.0  0.51600924079613  0.05883741339007997  0.5568982092098125  1.0000
  C   C57       1.0  0.006134704976268798  0.48222602500162276  0.5171182932719987  1.0000
  C   C58       1.0  0.9938663280961463  0.5177758104092333  0.4828813534381736  1.0000
  C   C59       1.0  0.9938578960710558  0.5177739295296458  0.0171183083867632  1.0000
  C   C60       1.0  0.006135671501382899  0.4822236413531725  0.9828836481645595  1.0000
  C   C61       1.0  0.5061349922061495  0.01777483990530729  0.9828826867243735  1.0000
  C   C62       1.0  0.4938660408685606  0.9822257161469067  0.0171181149063031  1.0000
  C   C63       1.0  0.49386551429037695  0.9822246118570773  0.4828815449312316  1.0000
  C   C64       1.0  0.5061340256873733  0.017774664835890495  0.51711810177828  1.0000
  O   O1        1.0  0.6301596710044208  0.8017930576434008  0.19748281272338628  1.0000
  O   O2        1.0  0.3698428551709654  0.19820792486157038  0.8025179889072902  1.0000
  O   O3        1.0  0.3698429739225659  0.19820788538098802  0.6974817828003594  1.0000
  O   O4        1.0  0.6301640315628203  0.8017913913112121  0.3025194038029966  1.0000
  O   O5        1.0  0.13016780489144247  0.6982081741730892  0.30251864738873724  1.0000
  O   O6        1.0  0.8698332281808661  0.30179323478517966  0.6974821542422021  1.0000
  O   O7        1.0  0.8698316163282555  0.30179327426573366  0.8025175904019975  1.0000
  O   O8        1.0  0.13016643054434238  0.6982068553338507  0.1974828262551824  1.0000
  O   O9        1.0  0.2913254575785089  0.8040499479192105  0.3025987402420967  1.0000
  O   O10       1.0  0.7086830410043917  0.1959510345846808  0.6974020613880327  1.0000
  O   O11       1.0  0.7086829220721567  0.19595107412531113  0.8025980315527691  1.0000
  O   O12       1.0  0.29131960410530405  0.8040494819263485  0.19740200013050208  1.0000
  O   O13       1.0  0.7913268790911445  0.6959512255324113  0.19740038038393243  1.0000
  O   O14       1.0  0.20867266088015404  0.3040501834258364  0.8025996512998858  1.0000
  O   O15       1.0  0.2086742729174134  0.3040505703365141  0.6973998313988048  1.0000
  O   O16       1.0  0.7913282532625556  0.6959495592616775  0.3025990453634293  1.0000
  O   O17       1.0  0.4593997650503069  0.7156901101528063  0.2500001345590661  1.0000
  O   O18       1.0  0.5406027611271539  0.28431044589884635  0.749999897124205  1.0000
  O   O19       1.0  0.9594020626707687  0.7843097230729086  0.2500001100717029  1.0000
  O   O20       1.0  0.040600463506699186  0.2156908329787441  0.7499999216115754  1.0000
