data_image0
_chemical_formula_structural       Zn4H36C60O16F4
_chemical_formula_sum              "Zn4 H36 C60 O16 F4"
_cell_length_a       6.3790112086951325
_cell_length_b       10.789341398070256
_cell_length_c       35.530107205448125
_cell_angle_alpha    90.44685005826376
_cell_angle_beta     116.00320922475468
_cell_angle_gamma    90.17919661727012

_space_group_name_H-M_alt    "P 1"
_space_group_IT_number       1

loop_
  _space_group_symop_operation_xyz
  'x, y, z'

loop_
  _atom_site_type_symbol
  _atom_site_label
  _atom_site_symmetry_multiplicity
  _atom_site_fract_x
  _atom_site_fract_y
  _atom_site_fract_z
  _atom_site_occupancy
  Zn  Zn1       1.0  0.892586939299001  0.9984297055677159  0.5217874352949253  1.0000
  Zn  Zn2       1.0  0.3946511478368534  0.9940614365962259  0.49590963618202016  1.0000
  Zn  Zn3       1.0  0.016671431266281768  0.9836598607944039  0.9784332951643506  1.0000
  Zn  Zn4       1.0  0.513523745869044  0.9835281461437972  0.004060423778824457  1.0000
  H   H1        1.0  0.836974038063694  0.0659377520175255  0.9057622038158472  1.0000
  H   H2        1.0  0.8064796678684303  0.08277831274014598  0.8350631608607841  1.0000
  H   H3        1.0  0.10305062949501581  0.9410793729965476  0.7835420960718125  1.0000
  H   H4        1.0  0.1339239749796732  0.921193193219814  0.8554339942963836  1.0000
  H   H5        1.0  0.815755334186278  0.0464487262107909  0.7159816756973002  1.0000
  H   H6        1.0  0.11308837786756253  0.9042828221950359  0.6663866343974834  1.0000
  H   H7        1.0  0.07719213426822315  0.9184045652018324  0.5951191224098906  1.0000
  H   H8        1.0  0.7796240705650205  0.0631742679959899  0.6436454865110335  1.0000
  H   H9        1.0  0.6512222322444358  0.868093176614039  0.1393861455472775  1.0000
  H   H10       1.0  0.6295445347701687  0.8704438691099838  0.20763338994648717  1.0000
  H   H11       1.0  0.11425095456159083  0.15845197462986246  0.16236035690165812  1.0000
  H   H12       1.0  0.11546889151789938  0.14426334514277533  0.09323863726765322  1.0000
  H   H13       1.0  0.7830700598418048  0.1636623231944583  0.33830103880021783  1.0000
  H   H14       1.0  0.2723215065443938  0.8689036540466616  0.29166992525262003  1.0000
  H   H15       1.0  0.2507086925835865  0.8657859755553403  0.3597429820495891  1.0000
  H   H16       1.0  0.7836660989662505  0.1477984399107655  0.40730738087010115  1.0000
  H   H17       1.0  0.41784907212481676  0.7265667383620097  0.5618953823751768  1.0000
  H   H18       1.0  0.42541540164267383  0.26410807391202695  0.5622164415131436  1.0000
  H   H19       1.0  0.8928323584130453  0.3807893848359285  0.49182561373006456  1.0000
  H   H20       1.0  0.8910381107096937  0.612207992440794  0.4918890478746577  1.0000
  H   H21       1.0  0.47858332878112003  0.716951925424965  0.9368633399107084  1.0000
  H   H22       1.0  0.49927002013662747  0.25456558262653317  0.9384438393797013  1.0000
  H   H23       1.0  0.022105132120444196  0.36552344506564083  0.007900760302547402  1.0000
  H   H24       1.0  0.017036541373847996  0.5968931150661875  0.008103592804893402  1.0000
  H   H25       1.0  0.2650447795273222  0.1629761828434724  0.7088477331060332  1.0000
  H   H26       1.0  0.40631505439063165  0.2340428030449786  0.7594452449856632  1.0000
  H   H27       1.0  0.1348047541397221  0.1604802458893104  0.7442890033688769  1.0000
  H   H28       1.0  0.7866371133560078  0.8280301257747666  0.7559778752251205  1.0000
  H   H29       1.0  0.5161987229879018  0.7540963244356007  0.7416465330657902  1.0000
  H   H30       1.0  0.6604224897504523  0.8263563845250416  0.7920100514191476  1.0000
  H   H31       1.0  0.026654189690241054  0.9286296200140854  0.2184487235683648  1.0000
  H   H32       1.0  0.9986459306311275  0.08154332858828178  0.20080548988775612  1.0000
  H   H33       1.0  0.10882734149482326  0.05328920260888739  0.2552168381282129  1.0000
  H   H34       1.0  0.8819350370142728  0.9511345262625993  0.2814452198100099  1.0000
  H   H35       1.0  0.8870500030455944  0.1056146168583112  0.2973321826261215  1.0000
  H   H36       1.0  0.7790117734444807  0.0699062484516091  0.2432978348544169  1.0000
  C   C1        1.0  0.6578305825547944  0.7640402081896056  0.5188438855060441  1.0000
  C   C2        1.0  0.4290771244504226  0.9969976262990414  0.5725850009466171  1.0000
  C   C3        1.0  0.6637112682148613  0.22741093622894226  0.5193375953470537  1.0000
  C   C4        1.0  0.5302521131894621  0.9990689780399078  0.4306919649812643  1.0000
  C   C5        1.0  0.24694509953999966  0.7517736123392638  0.9811710116773258  1.0000
  C   C6        1.0  0.48209760593801587  0.9849037242700829  0.9272632341806144  1.0000
  C   C7        1.0  0.2558874412848694  0.21525334390319267  0.9808113588628302  1.0000
  C   C8        1.0  0.36983797312480254  0.9961398565131669  0.06916463786117084  1.0000
  C   C9        1.0  0.4869874153285991  0.9902508269459532  0.8858078883217787  1.0000
  C   C10       1.0  0.6766277549786253  0.03421858862263599  0.8796516724393442  1.0000
  C   C11       1.0  0.6588512987393217  0.0457509261069831  0.839257062077799  1.0000
  C   C12       1.0  0.4524884349165604  0.0133923207686379  0.8040357936535473  1.0000
  C   C13       1.0  0.26454060960817566  0.9673904937936655  0.8105103065624847  1.0000
  C   C14       1.0  0.28084796208025875  0.9558366550286834  0.8505975890638455  1.0000
  C   C15       1.0  0.4228502410560252  0.034671975786018494  0.7604880516973936  1.0000
  C   C16       1.0  0.4988140439360152  0.9536177455964675  0.7401611748418022  1.0000
  C   C17       1.0  0.6532335667251913  0.019370758951431796  0.6893554249513231  1.0000
  C   C18       1.0  0.46690737934984144  0.974018003317788  0.6964378426847235  1.0000
  C   C19       1.0  0.2592269611277089  0.9407120102060701  0.6616031038646285  1.0000
  C   C20       1.0  0.2385414368018813  0.9504983070991672  0.620965342290944  1.0000
  C   C21       1.0  0.42671808316809046  0.9936977067960057  0.614238267288947  1.0000
  C   C22       1.0  0.6340586878864369  0.029204633279768195  0.6490283578397467  1.0000
  C   C23       1.0  0.38536735205779854  0.006319812493749997  0.11210704446450144  1.0000
  C   C24       1.0  0.5336568316605083  0.931194228553373  0.1447491089304692  1.0000
  C   C25       1.0  0.5230399220771388  0.9341048329863637  0.18309317443492296  1.0000
  C   C26       1.0  0.37377826125781155  0.015864065283267295  0.19062266738453812  1.0000
  C   C27       1.0  0.23070500259446897  0.09314717742631018  0.15764439445943174  1.0000
  C   C28       1.0  0.23303650002378623  0.0870115347947262  0.11886018536527844  1.0000
  C   C29       1.0  0.35438397587861914  0.0181872634643199  0.23067090053584857  1.0000
  C   C30       1.0  0.5423782930579507  0.0229406372460517  0.2689106287568352  1.0000
  C   C31       1.0  0.6673741088204538  0.09667217389830539  0.34254710052053383  1.0000
  C   C32       1.0  0.524689302481896  0.0184167379885167  0.3090692839291763  1.0000
  C   C33       1.0  0.37752657721724614  0.9341748320589927  0.316368333540929  1.0000
  C   C34       1.0  0.36734310882953736  0.9306566615620183  0.35474267089865924  1.0000
  C   C35       1.0  0.5147122787205092  0.007338692791435599  0.38776063413214257  1.0000
  C   C36       1.0  0.6661422006899825  0.089726667454137  0.38136181441910116  1.0000
  C   C37       1.0  0.6671424595058468  0.6262455953680544  0.5223296694323666  1.0000
  C   C38       1.0  0.5427328798311277  0.5624352711922072  0.541464510932215  1.0000
  C   C39       1.0  0.7933332112221193  0.5613677845100893  0.5054800009548401  1.0000
  C   C40       1.0  0.42678934070390545  0.6259795064425261  0.5620351411947837  1.0000
  C   C41       1.0  0.32360654781640347  0.560535989628157  0.5823974402921124  1.0000
  C   C42       1.0  0.6692657391026201  0.3657570635102089  0.5223723694032998  1.0000
  C   C43       1.0  0.7942264352217023  0.4310152745630447  0.5054509444033927  1.0000
  C   C44       1.0  0.5442056555340855  0.42921332483452806  0.5415045661142487  1.0000
  C   C45       1.0  0.4303844578151938  0.3648422094313233  0.5621535148185259  1.0000
  C   C46       1.0  0.3255561937597518  0.42958602235870547  0.582519977148138  1.0000
  C   C47       1.0  0.23962190895463187  0.613682004216848  0.9774400675615098  1.0000
  C   C48       1.0  0.3654219017121818  0.5511972529522707  0.958200273351288  1.0000
  C   C49       1.0  0.11592572220158062  0.5474097795122076  0.9943810911847492  1.0000
  C   C50       1.0  0.4766780892350584  0.6162446100877401  0.9372419949355832  1.0000
  C   C51       1.0  0.5833961104120463  0.5521656200046934  0.917081278908171  1.0000
  C   C52       1.0  0.24744113025202788  0.3532823335992176  0.9776758123732562  1.0000
  C   C53       1.0  0.11944268855911815  0.4171028703117726  0.9943973008735866  1.0000
  C   C54       1.0  0.3704403323853427  0.4179984616499226  0.9585049903058548  1.0000
  C   C55       1.0  0.48801731275820975  0.35512004649893913  0.9381012670605601  1.0000
  C   C56       1.0  0.5893881668461985  0.42121815789757727  0.917560010275004  1.0000
  C   C57       1.0  0.30051945626566107  0.153835710729183  0.7418075819495941  1.0000
  C   C58       1.0  0.6221634062036541  0.8347159938388911  0.7588977173044924  1.0000
  C   C59       1.0  0.11037370582243262  0.020729852495179595  0.22625736255404416  1.0000
  C   C60       1.0  0.7841423436379458  0.03839195284356829  0.27275780243919473  1.0000
  O   O1        1.0  0.8519213234751606  0.8220428195827623  0.5302297978730268  1.0000
  O   O2        1.0  0.45695611219729665  0.8126174142552782  0.5040907278170437  1.0000
  O   O3        1.0  0.234516230567678  0.994476655745956  0.5372309486019802  1.0000
  O   O4        1.0  0.6201222026709915  0.0009799787642705972  0.570571685868842  1.0000
  O   O5        1.0  0.4632566418400402  0.17630331522161669  0.5015247123587515  1.0000
  O   O6        1.0  0.8601288249113639  0.1723361055182977  0.5340589462875232  1.0000
  O   O7        1.0  0.7383249908098151  0.008678965061726296  0.4599832020740636  1.0000
  O   O8        1.0  0.3454528119403689  0.9845714243424268  0.4356795524233519  1.0000
  O   O9        1.0  0.052291377830201415  0.8078546028222745  0.969376569813342  1.0000
  O   O10       1.0  0.44819345416695455  0.8019632708134239  0.99672240682888  1.0000
  O   O11       1.0  0.6756186143034099  0.9879299131277577  0.9627854840969192  1.0000
  O   O12       1.0  0.290428416585094  0.9789556456647402  0.928988705219119  1.0000
  O   O13       1.0  0.4565927238047673  0.16604430058959  0.9978101271739348  1.0000
  O   O14       1.0  0.06028968212955017  0.1579238476999762  0.9668785925124298  1.0000
  O   O15       1.0  0.1614397730173138  0.0028690671216792985  0.039941755810360705  1.0000
  O   O16       1.0  0.5543430506865547  0.9819727822153792  0.06410592545749695  1.0000
  F   F1        1.0  0.21627774586995913  0.6198292106325382  0.6028473182682176  1.0000
  F   F2        1.0  0.22097421190866842  0.36987746429768004  0.6031924258946688  1.0000
  F   F3        1.0  0.6861359232430289  0.6127352398300302  0.8962413719235373  1.0000
  F   F4        1.0  0.6984310479877041  0.3627904341560608  0.897269974518345  1.0000
