data_image0
_chemical_formula_structural       Zn2H32C38N6O10
_chemical_formula_sum              "Zn2 H32 C38 N6 O10"
_cell_length_a       7.725251740576588
_cell_length_b       10.838596427840056
_cell_length_c       12.435516649962691
_cell_angle_alpha    67.40357288955302
_cell_angle_beta     73.65697371068016
_cell_angle_gamma    80.42309943439498

_space_group_name_H-M_alt    "P 1"
_space_group_IT_number       1

loop_
  _space_group_symop_operation_xyz
  'x, y, z'

loop_
  _atom_site_type_symbol
  _atom_site_label
  _atom_site_symmetry_multiplicity
  _atom_site_fract_x
  _atom_site_fract_y
  _atom_site_fract_z
  _atom_site_occupancy
  Zn  Zn1       1.0  0.14876931606527682  0.11838614903165726  0.27075678439368994  1.0000
  Zn  Zn2       1.0  0.8512316286036282  0.8816149745821915  0.7292420430320732  1.0000
  H   H1        1.0  0.7176956897634098  0.24756590268950157  0.1914121843774055  1.0000
  H   H2        1.0  0.2823053522653467  0.7524342062468888  0.8085885688017026  1.0000
  H   H3        1.0  0.9545395607818038  0.4009600702159658  0.14545255272989277  1.0000
  H   H4        1.0  0.045461472763250306  0.5990400453241307  0.8545473956035888  1.0000
  H   H5        1.0  0.5495855570480116  0.7310106581510354  0.11581686652573357  1.0000
  H   H6        1.0  0.450412857952756  0.2689884684525552  0.8841838749418609  1.0000
  H   H7        1.0  0.315283438665773  0.5776583792861557  0.16331672909313263  1.0000
  H   H8        1.0  0.684714878975136  0.42234176199489326  0.836682086621124  1.0000
  H   H9        1.0  0.03167655231775512  0.6534260935047056  0.03973867821540727  1.0000
  H   H10       1.0  0.9683232036676728  0.346573033435817  0.9602610198705432  1.0000
  H   H11       1.0  0.9658112405738425  0.6347517434030863  0.19265394003685543  1.0000
  H   H12       1.0  0.03418841805173401  0.3652483982148879  0.8073438322957498  1.0000
  H   H13       1.0  0.7898870626163871  0.7886254575840397  0.25762546295969446  1.0000
  H   H14       1.0  0.2101142121060064  0.21137165354591045  0.7423754335600419  1.0000
  H   H15       1.0  0.6514142423124908  0.027840327694072197  0.21345765183938428  1.0000
  H   H16       1.0  0.3485856829415398  0.9721567897026444  0.78654348321637  1.0000
  H   H17       1.0  0.6773475144491883  0.17433897784604818  0.9988290830339392  1.0000
  H   H18       1.0  0.3226536164557175  0.8256601230165899  0.0011727910528805613  1.0000
  H   H19       1.0  0.9386330155412708  0.32892199780651044  0.39280364774831605  1.0000
  H   H20       1.0  0.06136539945949693  0.6710771287970798  0.6071970937192858  1.0000
  H   H21       1.0  0.5215275091652529  0.05932510072643989  0.5739486679704269  1.0000
  H   H22       1.0  0.4784722553038848  0.940674019610384  0.4260518349611573  1.0000
  H   H23       1.0  0.8071029537794773  0.9474669197160777  0.4382008866067935  1.0000
  H   H24       1.0  0.19289966192757652  0.05253019175079741  0.5617989665312988  1.0000
  H   H25       1.0  0.6649245134659908  0.3165986491650514  0.6213584281267966  1.0000
  H   H26       1.0  0.3350806024189766  0.6834014211599141  0.3786440239811455  1.0000
  H   H27       1.0  0.46415201775791104  0.27054668434789164  0.6088019274827372  1.0000
  H   H28       1.0  0.5358450562581893  0.7294524419187738  0.3911998573665088  1.0000
  H   H29       1.0  0.49973392662665367  0.4482416968309123  0.40041617521955425  1.0000
  H   H30       1.0  0.5002656940249964  0.5517594132386066  0.5995853052791134  1.0000
  H   H31       1.0  0.6910576471067742  0.49978823518123505  0.41864276190245414  1.0000
  H   H32       1.0  0.30894458360545235  0.5002138704284818  0.5813571206164666  1.0000
  C   C1        1.0  0.350076287095483  0.31260397329172923  0.2181451402457526  1.0000
  C   C2        1.0  0.649926222768009  0.6873941594563034  0.7818519822933677  1.0000
  C   C3        1.0  0.49973931555101814  0.402223184560242  0.18148203545458588  1.0000
  C   C4        1.0  0.5002615147906228  0.5977789669384704  0.8185132565265787  1.0000
  C   C5        1.0  0.6811399036727793  0.35375360810320433  0.1742050109986266  1.0000
  C   C6        1.0  0.31885974646909426  0.6462465401184759  0.8257919564883519  1.0000
  C   C7        1.0  0.8145399766043654  0.44006692561048055  0.14799695965010787  1.0000
  C   C8        1.0  0.18545978786476516  0.5599321947263434  0.8520035432814763  1.0000
  C   C9        1.0  0.7689702140398185  0.5763909504253633  0.1288945102037573  1.0000
  C   C10       1.0  0.23102947003687294  0.423609171381507  0.8711056766657349  1.0000
  C   C11       1.0  0.5890438726724908  0.6253836238083251  0.13164444274495682  1.0000
  C   C12       1.0  0.4109558029204976  0.374616504602244  0.8683549392789158  1.0000
  C   C13       1.0  0.4556363472796789  0.5392654563044346  0.15780150345516827  1.0000
  C   C14       1.0  0.5443632309534506  0.46073568678359333  0.8421959528153591  1.0000
  C   C15       1.0  0.9158477443521349  0.6636530180803389  0.11134802545871025  1.0000
  C   C16       1.0  0.08415048441263201  0.33634813127445545  0.8886496693478347  1.0000
  C   C17       1.0  0.7831493386618504  0.8574105272209138  0.16801097896966172  1.0000
  C   C18       1.0  0.21684652970337484  0.14258661557983737  0.8319900668485116  1.0000
  C   C19       1.0  0.7128246512417321  0.9874886663527179  0.14273546119559197  1.0000
  C   C20       1.0  0.2871792589923531  0.012509420506326302  0.8572662518812846  1.0000
  C   C21       1.0  0.7246239427346526  0.06893290279293038  0.021996659095336147  1.0000
  C   C22       1.0  0.27537439187366886  0.9310672252807063  0.9780037663101737  1.0000
  C   C23       1.0  0.7987854702936091  0.0197908806504614  0.9299844921827113  1.0000
  C   C24       1.0  0.20121659963373165  0.9802132278993552  0.07001475821203952  1.0000
  C   C25       1.0  0.8609530232424235  0.8808912799918716  0.9592724361621732  1.0000
  C   C26       1.0  0.13904238821923798  0.11911185181806158  0.040729127820377214  1.0000
  C   C27       1.0  0.8196059018634047  0.11605169073745704  0.8013144496091581  1.0000
  C   C28       1.0  0.18039640075757296  0.8839494200059194  0.1986849441262137  1.0000
  C   C29       1.0  0.8636424325641414  0.24072909263259853  0.42376045770115667  1.0000
  C   C30       1.0  0.1363559105278896  0.7592710288373467  0.5762407725499797  1.0000
  C   C31       1.0  0.6475889447030455  0.09910675346737462  0.5144519529377758  1.0000
  C   C32       1.0  0.35241099751839033  0.9008903507219442  0.48555079180923144  1.0000
  C   C33       1.0  0.7893811133371075  0.04416042417958719  0.4481100729733851  1.0000
  C   C34       1.0  0.21062000908410283  0.9558386832867568  0.5518909962678079  1.0000
  C   C35       1.0  0.5933289273457376  0.31497121388385807  0.5568770054863561  1.0000
  C   C36       1.0  0.4066694411974013  0.6850288877749691  0.4431266393016671  1.0000
  C   C37       1.0  0.5605207664021491  0.4549979929797272  0.46794087274263063  1.0000
  C   C38       1.0  0.43948020371786356  0.5450031108230107  0.5320603692200265  1.0000
  N   N1        1.0  0.8544137214942751  0.8059962434192938  0.07984104562121545  1.0000
  N   N2        1.0  0.14558595409870628  0.19400388499128243  0.9201583364026503  1.0000
  N   N3        1.0  0.9230630211383614  0.1339132945969226  0.3918847755009762  1.0000
  N   N4        1.0  0.07693802937410511  0.8660868077357622  0.6081167825237582  1.0000
  N   N5        1.0  0.6966438225964781  0.22318188225698066  0.4975471468441198  1.0000
  N   N6        1.0  0.3033547152152565  0.7768162098580476  0.502457934913707  1.0000
  O   O1        1.0  0.3915282812594043  0.18583218031939452  0.23536194677456013  1.0000
  O   O2        1.0  0.6084754342549701  0.8141679358945595  0.7646359147956259  1.0000
  O   O3        1.0  0.18838866088277945  0.35951378708050186  0.23341194247436187  1.0000
  O   O4        1.0  0.8116162982564037  0.6404873441478287  0.7665829499608348  1.0000
  O   O5        1.0  0.9251406186959061  0.8193448981196311  0.8864781276171522  1.0000
  O   O6        1.0  0.07485350672242672  0.18065725169442706  0.11352238127224007  1.0000
  O   O7        1.0  0.8299328334115686  0.07039399156719378  0.7176212712409437  1.0000
  O   O8        1.0  0.17006669836393232  0.9296081265760703  0.28237908835001235  1.0000
  O   O9        1.0  0.825660846885988  0.23752367465888102  0.7818680031280463  1.0000
  O   O10       1.0  0.1743428306544672  0.7624774100066103  0.21813356660820196  1.0000
