data_image0
_chemical_formula_structural       Dy2H22C24N12O16
_chemical_formula_sum              "Dy2 H22 C24 N12 O16"
_cell_length_a       6.270963661780189
_cell_length_b       12.403354014331867
_cell_length_c       13.372081495548933
_cell_angle_alpha    59.892029067303056
_cell_angle_beta     84.9975597129635
_cell_angle_gamma    83.46628535593435

_space_group_name_H-M_alt    "P 1"
_space_group_IT_number       1

loop_
  _space_group_symop_operation_xyz
  'x, y, z'

loop_
  _atom_site_type_symbol
  _atom_site_label
  _atom_site_symmetry_multiplicity
  _atom_site_fract_x
  _atom_site_fract_y
  _atom_site_fract_z
  _atom_site_occupancy
  Dy  Dy1       1.0  0.4511857367210724  0.14078970067796354  0.2567337500527032  1.0000
  Dy  Dy2       1.0  0.5488194706925212  0.8592126733175148  0.7432659487497447  1.0000
  H   H1        1.0  0.7101206780459961  0.7547642772120968  0.2661627799852439  1.0000
  H   H2        1.0  0.28987613259501194  0.24523906241115867  0.7338324335031388  1.0000
  H   H3        1.0  0.7294543425899674  0.491074150026094  0.6993073839847597  1.0000
  H   H4        1.0  0.27053206255644824  0.5089336090740703  0.30068791520888283  1.0000
  H   H5        1.0  0.8139286583370264  0.2832874649109343  0.46029835646488954  1.0000
  H   H6        1.0  0.18606590771794626  0.7167126964029509  0.5397058543740555  1.0000
  H   H7        1.0  0.7820560988234392  0.5063847219777601  0.28856568684876993  1.0000
  H   H8        1.0  0.21794832422784785  0.4936138219100599  0.7114372337940083  1.0000
  H   H9        1.0  0.8931958501838081  0.3766097777997005  0.9051370598933488  1.0000
  H   H10       1.0  0.10680628612600167  0.623392439479183  0.09486511042154426  1.0000
  H   H11       1.0  0.6425708446948663  0.4158439930507712  0.9875723811728461  1.0000
  H   H12       1.0  0.35743211569432287  0.5841620229726344  0.012427327494180062  1.0000
  H   H13       1.0  0.5794731667174204  0.5221223999108416  0.8447652702332535  1.0000
  H   H14       1.0  0.42053305825862003  0.47787443270922136  0.15523531716608122  1.0000
  H   H15       1.0  0.6776051009260159  0.09759600493176632  0.46467632326591257  1.0000
  H   H16       1.0  0.3224048281884678  0.9024073029320333  0.5353249682143614  1.0000
  H   H17       1.0  0.8608976675795147  0.10934843365933491  0.36519652792211593  1.0000
  H   H18       1.0  0.13911708663449934  0.8906549367821126  0.6348052373480259  1.0000
  H   H19       1.0  0.506639489972592  0.9844245432117448  0.16229597612749558  1.0000
  H   H20       1.0  0.49336599546045784  0.0155776112417882  0.8377090440221693  1.0000
  H   H21       1.0  0.25767965049143976  0.9813785356559137  0.1823069752227512  1.0000
  H   H22       1.0  0.7423249050252352  0.018627511681081902  0.817692637976748  1.0000
  C   C1        1.0  0.6836076375841386  0.7523318540931926  0.42945074540270417  1.0000
  C   C2        1.0  0.31638016654279977  0.2476692727989374  0.5705496448470911  1.0000
  C   C3        1.0  0.7171848526884618  0.6972377085997081  0.35988984518957057  1.0000
  C   C4        1.0  0.2828072520042184  0.30276547435649803  0.6401071750863209  1.0000
  C   C5        1.0  0.7484612058737595  0.5672728632786458  0.4146568949020732  1.0000
  C   C6        1.0  0.2515257717354373  0.43273128520625903  0.5853369695096048  1.0000
  C   C7        1.0  0.7487076456108569  0.49119175344996796  0.5372755067981174  1.0000
  C   C8        1.0  0.2512842365319941  0.50881239488632  0.4627203517883415  1.0000
  C   C9        1.0  0.7233902153598921  0.5474306008471501  0.6055618309939206  1.0000
  C   C10       1.0  0.2765940568110495  0.4525715228872755  0.39443530792412684  1.0000
  C   C11       1.0  0.692959607202411  0.6776634040764051  0.5520945323626735  1.0000
  C   C12       1.0  0.30703128378087297  0.3223386567335922  0.4479067858400185  1.0000
  C   C13       1.0  0.6846366133717511  0.7351891721609219  0.6259579434861919  1.0000
  C   C14       1.0  0.31533563421260175  0.26481814830122374  0.37404201587752783  1.0000
  C   C15       1.0  0.6091150641476021  0.8878565748532952  0.36801776224755384  1.0000
  C   C16       1.0  0.3908770247925234  0.11214583090163191  0.6319758585630096  1.0000
  C   C17       1.0  0.09850315886303923  0.29517045093060545  0.04809700110047295  1.0000
  C   C18       1.0  0.9015064152362271  0.7048263188641073  0.9519064361336406  1.0000
  C   C19       1.0  0.36674564567304924  0.3912746495506596  0.945337610474219  1.0000
  C   C20       1.0  0.6332618327294597  0.6087232738524762  0.054659439190778904  1.0000
  C   C21       1.0  0.7928596857026805  0.3661989652722397  0.4692667756018026  1.0000
  C   C22       1.0  0.20713948290198664  0.6338022239993749  0.5307367473375776  1.0000
  C   C23       1.0  0.9600280544272978  0.217472592969294  0.1504376452859901  1.0000
  C   C24       1.0  0.03997774120164618  0.7825269476122045  0.8495640181998283  1.0000
  N   N1        1.0  0.7772090842943129  0.365748365533328  0.5685945508672106  1.0000
  N   N2        1.0  0.22278572827499238  0.6342500218360668  0.4314081823882889  1.0000
  N   N3        1.0  0.7774287309887526  0.4842228687325089  0.3742146677546928  1.0000
  N   N4        1.0  0.22256458985170016  0.5157746160326158  0.6257870420803826  1.0000
  N   N5        1.0  0.3049397981704587  0.3071506354746846  0.0559588950992733  1.0000
  N   N6        1.0  0.6950732260123118  0.6928520205412954  0.9440372855956839  1.0000
  N   N7        1.0  0.04077782817692111  0.3665311479241851  0.9379471808173179  1.0000
  N   N8        1.0  0.9592280468861533  0.6334683299310484  0.06205600305342067  1.0000
  N   N9        1.0  0.5676046549319198  0.4330627892639568  0.9158050937013442  1.0000
  N   N10       1.0  0.4323984725374713  0.5669415155412167  0.08419161699732304  1.0000
  N   N11       1.0  0.2085167850262053  0.4294738976929012  0.8697648717970736  1.0000
  N   N12       1.0  0.7914846042000008  0.5705312784524922  0.1302322930646155  1.0000
  O   O1        1.0  0.6330234036767596  0.6712801697974697  0.7352482134659439  1.0000
  O   O2        1.0  0.3669762339920695  0.32871828014957327  0.2647549935794231  1.0000
  O   O3        1.0  0.7254233745445404  0.8486875170010748  0.5834560950426919  1.0000
  O   O4        1.0  0.27458761184945507  0.15131021812417342  0.4165468452269252  1.0000
  O   O5        1.0  0.43346724987534924  0.9284493630508451  0.4006891335880951  1.0000
  O   O6        1.0  0.5665344570873715  0.07155556218948081  0.5993141128132747  1.0000
  O   O7        1.0  0.706776815564254  0.9628482455938536  0.274285249136291  1.0000
  O   O8        1.0  0.29321893269499816  0.0371514834636955  0.7257078648451909  1.0000
  O   O9        1.0  0.7099353682625633  0.1292861080538472  0.381073663940434  1.0000
  O   O10       1.0  0.29007760799120064  0.870718165090956  0.618927795300273  1.0000
  O   O11       1.0  0.061290297579645894  0.14549508614193482  0.24204169110549156  1.0000
  O   O12       1.0  0.9387283888707003  0.8544962047559255  0.757964437965242  1.0000
  O   O13       1.0  0.7585106385576098  0.23285230299504173  0.13724001501581995  1.0000
  O   O14       1.0  0.24149691106708104  0.7671471434475166  0.8627645937723046  1.0000
  O   O15       1.0  0.37082112778140436  0.0375699813562989  0.140834852216166  1.0000
  O   O16       1.0  0.6291835550984075  0.9624343861256082  0.8591610028225106  1.0000
