data_image0
_chemical_formula_structural       Zr6H28C48O32
_chemical_formula_sum              "Zr6 H28 C48 O32"
_cell_length_a       14.773395867311178
_cell_length_b       14.773387834014041
_cell_length_c       14.773476743220698
_cell_angle_alpha    59.99943018323639
_cell_angle_beta     59.999990551293564
_cell_angle_gamma    60.000112944809985

_space_group_name_H-M_alt    "P 1"
_space_group_IT_number       1

loop_
  _space_group_symop_operation_xyz
  'x, y, z'

loop_
  _atom_site_type_symbol
  _atom_site_label
  _atom_site_symmetry_multiplicity
  _atom_site_fract_x
  _atom_site_fract_y
  _atom_site_fract_z
  _atom_site_occupancy
  Zr  Zr1       1.0  0.8803334740672067  0.8803347664769419  0.6196652740774339  1.0000
  Zr  Zr2       1.0  0.11966712311152604  0.11966684282526775  0.3803305605715011  1.0000
  Zr  Zr3       1.0  0.11967894500286033  0.8803203678358144  0.6196806678226068  1.0000
  Zr  Zr4       1.0  0.8803225857886758  0.11968082124637656  0.3803212855605052  1.0000
  Zr  Zr5       1.0  0.11968607802570821  0.8803132178084566  0.3803149254864806  1.0000
  Zr  Zr6       1.0  0.880314852530347  0.11968466343819253  0.6196909359501388  1.0000
  H   H1        1.0  0.09416090461942883  0.7175139524930997  0.5941630810828117  1.0000
  H   H2        1.0  0.09416626619347573  0.09416323162988496  0.2175118025785707  1.0000
  H   H3        1.0  0.09416421111846059  0.09416215010920581  0.5941590153853724  1.0000
  H   H4        1.0  0.7175196609652232  0.09415910756351298  0.5941611067652843  1.0000
  H   H5        1.0  0.14414657952184473  0.4158387446375399  0.3536187801198949  1.0000
  H   H6        1.0  0.8536238033821633  0.5863920297089744  0.6441430742924936  1.0000
  H   H7        1.0  0.14414931674384215  0.5864006259161414  0.3536165063965413  1.0000
  H   H8        1.0  0.853619244792668  0.41583238838137493  0.6441490745078227  1.0000
  H   H9        1.0  0.41584203482283744  0.14414281006764904  0.08639409171220788  1.0000
  H   H10       1.0  0.5863975091592337  0.8536207675122822  0.9158391733991776  1.0000
  H   H11       1.0  0.5864009925653876  0.1441481934732067  0.9158339049275097  1.0000
  H   H12       1.0  0.41583881801438566  0.8536170044902747  0.0863991312418122  1.0000
  H   H13       1.0  0.853618999088248  0.1441512534345576  0.9158317986769688  1.0000
  H   H14       1.0  0.14414426314841908  0.8536224766611015  0.08639834692790764  1.0000
  H   H15       1.0  0.853621157581614  0.14414802772612476  0.08639053046509555  1.0000
  H   H16       1.0  0.14414322951328248  0.8536241196442942  0.9158417310376521  1.0000
  H   H17       1.0  0.41584110688494036  0.5863991579595692  0.35361439319057564  1.0000
  H   H18       1.0  0.5864008937155774  0.41583846038241035  0.6441473674789435  1.0000
  H   H19       1.0  0.5863996380357861  0.41584094029206387  0.35361604091988835  1.0000
  H   H20       1.0  0.4158430493294316  0.5863973648673949  0.6441393720821013  1.0000
  H   H21       1.0  0.8536204207394319  0.41583272168771385  0.08639927343602231  1.0000
  H   H22       1.0  0.14414905681184825  0.5864011720079175  0.9158329050302213  1.0000
  H   H23       1.0  0.8536210092126313  0.586396484631507  0.9158387732022247  1.0000
  H   H24       1.0  0.14415182342420957  0.4158353489748734  0.08639874240225963  1.0000
  H   H25       1.0  0.4158350015481029  0.8536194458245348  0.6441454821268451  1.0000
  H   H26       1.0  0.5864033014843244  0.1441524039869506  0.3536115297490454  1.0000
  H   H27       1.0  0.5863981861298625  0.8536209642869251  0.6441459140904228  1.0000
  H   H28       1.0  0.41584116627827694  0.14414381215676283  0.3536162927386641  1.0000
  C   C1        1.0  0.9975404585590155  0.6981522660767605  0.4975079093096043  1.0000
  C   C2        1.0  0.30679758225306825  0.9975048457729585  0.19815638958847598  1.0000
  C   C3        1.0  0.997515021813726  0.30679535063486424  0.4975394628330252  1.0000
  C   C4        1.0  0.6981588549246138  0.9975381986306715  0.806797913976446  1.0000
  C   C5        1.0  0.9975357891369825  0.6981572451337852  0.8067950042704125  1.0000
  C   C6        1.0  0.6981573191788965  0.9975324295240782  0.4975120110847371  1.0000
  C   C7        1.0  0.9975184466495295  0.3067958147605693  0.19815075815457567  1.0000
  C   C8        1.0  0.30679478571456514  0.9975131327241938  0.49753571493328497  1.0000
  C   C9        1.0  0.3068054964111865  0.6981467676034966  0.49751772885690576  1.0000
  C   C10       1.0  0.9975218476903791  0.9975271485238294  0.8068002475920861  1.0000
  C   C11       1.0  0.6981476927986421  0.3068061258960525  0.4975301340697413  1.0000
  C   C12       1.0  0.9975253358457933  0.9975207348291872  0.19815167816781815  1.0000
  C   C13       1.0  0.9982863413554027  0.4071685914571219  0.4982688860726584  1.0000
  C   C14       1.0  0.998268869204267  0.5962760525501664  0.498282249100029  1.0000
  C   C15       1.0  0.08093871548092575  0.4542344688990454  0.41649162879142654  1.0000
  C   C16       1.0  0.9164949897357882  0.5483324606226458  0.580935825313851  1.0000
  C   C17       1.0  0.0809414688642034  0.5483346643347602  0.4164848101587068  1.0000
  C   C18       1.0  0.9164855442381565  0.4542377571425362  0.5809396990114024  1.0000
  C   C19       1.0  0.40717405932811324  0.9982830483917695  0.09627443857453252  1.0000
  C   C20       1.0  0.5962788249893832  0.9982659149703603  0.9071744913227632  1.0000
  C   C21       1.0  0.4542339351401666  0.08094036816564193  0.048333727775513986  1.0000
  C   C22       1.0  0.548340541946338  0.9164880172153003  0.9542347192432529  1.0000
  C   C23       1.0  0.5483351694121978  0.08094089742763086  0.9542381479048955  1.0000
  C   C24       1.0  0.45424233899689154  0.9164851041226071  0.04833296769167823  1.0000
  C   C25       1.0  0.9982769692238731  0.9982719715054316  0.9071755252707022  1.0000
  C   C26       1.0  0.9982721170391993  0.998280536114656  0.09627123569549688  1.0000
  C   C27       1.0  0.9164889713726796  0.08094445926919724  0.9542338016582618  1.0000
  C   C28       1.0  0.080942627635153  0.9164881280016243  0.04833173731408636  1.0000
  C   C29       1.0  0.9164904750190601  0.0809425593574885  0.048328456786528286  1.0000
  C   C30       1.0  0.08094160976347803  0.916493221279282  0.9542342320768994  1.0000
  C   C31       1.0  0.40717277655515005  0.5962724072161335  0.49828218337555075  1.0000
  C   C32       1.0  0.5962785014853293  0.40717043844222184  0.49827047323073953  1.0000
  C   C33       1.0  0.4542457174652411  0.54832940875292  0.416489538125333  1.0000
  C   C34       1.0  0.5483377564604763  0.4542415633633041  0.5809331501260999  1.0000
  C   C35       1.0  0.5483414594205981  0.4542371379952641  0.4164862342044699  1.0000
  C   C36       1.0  0.454241995015991  0.5483365222074496  0.5809354434915901  1.0000
  C   C37       1.0  0.9982854010092269  0.4071641777354102  0.0962805312165361  1.0000
  C   C38       1.0  0.9982710747872119  0.5962789674086576  0.9071665876186827  1.0000
  C   C39       1.0  0.9164902122103344  0.4542359611802453  0.04833754614159614  1.0000
  C   C40       1.0  0.08093790852163339  0.5483375256859162  0.954239607731715  1.0000
  C   C41       1.0  0.9164924346685341  0.5483349678884509  0.9542373592759573  1.0000
  C   C42       1.0  0.08093878442608107  0.4542362022154336  0.04833901300577279  1.0000
  C   C43       1.0  0.4071701286669692  0.998285298610547  0.4982698279026393  1.0000
  C   C44       1.0  0.596283997113595  0.99826767034488  0.49827976295855336  1.0000
  C   C45       1.0  0.4542419501087523  0.9164884715726412  0.5809392182066375  1.0000
  C   C46       1.0  0.5483402356714963  0.08093818820436374  0.4164841793431151  1.0000
  C   C47       1.0  0.5483404745508477  0.9164896563671973  0.580937464435678  1.0000
  C   C48       1.0  0.4542390510905179  0.08093975838311704  0.4164883253214882  1.0000
  O   O1        1.0  0.9206649831085869  0.7377082405845954  0.5745410988973134  1.0000
  O   O2        1.0  0.267089108183903  0.07453744377210816  0.23771287142592  1.0000
  O   O3        1.0  0.07454683838203378  0.26708400040038066  0.42066282031451857  1.0000
  O   O4        1.0  0.7377109035456682  0.920661158310132  0.7670857345155255  1.0000
  O   O5        1.0  0.07456062727469968  0.7376972307621373  0.7670996015446576  1.0000
  O   O6        1.0  0.7377005869482288  0.07455783708798684  0.42064639164921397  1.0000
  O   O7        1.0  0.9206538601992165  0.26709218245273536  0.2376945295184711  1.0000
  O   O8        1.0  0.26709997162147664  0.9206413904716583  0.5745601629047599  1.0000
  O   O9        1.0  0.2671036502159153  0.7376919434961804  0.4206463627329952  1.0000
  O   O10       1.0  0.9206512881698431  0.07456098614420607  0.7670962341735931  1.0000
  O   O11       1.0  0.7376890384979902  0.2671058631853  0.5745579149386515  1.0000
  O   O12       1.0  0.07455995309511802  0.9206471614479597  0.23768568618989136  1.0000
  O   O13       1.0  0.07455969845863532  0.9206493355234145  0.7671012865624363  1.0000
  O   O14       1.0  0.7376965932852638  0.2670984342807045  0.4206560555448177  1.0000
  O   O15       1.0  0.9206545152708188  0.07455636923619835  0.23770082956144725  1.0000
  O   O16       1.0  0.2671049131843403  0.737694652322112  0.5745490985750692  1.0000
  O   O17       1.0  0.9206622016913925  0.7377147109760002  0.7670803799185747  1.0000
  O   O18       1.0  0.26708320437263217  0.07454222419170253  0.4206594535883  1.0000
  O   O19       1.0  0.07454722261836366  0.2670885921198262  0.23770409544051316  1.0000
  O   O20       1.0  0.7377095664582001  0.9206600459190639  0.5745435559656967  1.0000
  O   O21       1.0  0.7376950739396692  0.07456572922447441  0.7670986642162205  1.0000
  O   O22       1.0  0.07456592123649113  0.7376904733970164  0.42064309719495424  1.0000
  O   O23       1.0  0.26710303145578246  0.9206363817169956  0.23769253609572152  1.0000
  O   O24       1.0  0.9206479113044638  0.26709971724154963  0.5745666644241112  1.0000
  O   O25       1.0  0.7978622129674803  0.0673824793139843  0.567380209606803  1.0000
  O   O26       1.0  0.06737803764731604  0.06738564354579064  0.5673782246074025  1.0000
  O   O27       1.0  0.0673845131843507  0.06737808325425479  0.2978564570826662  1.0000
  O   O28       1.0  0.067381931671214  0.7978573647428604  0.5673793328757809  1.0000
  O   O29       1.0  0.14878060719603042  0.9504011275405233  0.4504021476241816  1.0000
  O   O30       1.0  0.9504175549844477  0.9504121886019233  0.45039526808863434  1.0000
  O   O31       1.0  0.9503914640000416  0.14878370695313944  0.45041759744172083  1.0000
  O   O32       1.0  0.9504033470254141  0.950420722352717  0.6487801805958215  1.0000
