data_image0
_chemical_formula_structural       Cd2H52C60N12O12F8
_chemical_formula_sum              "Cd2 H52 C60 N12 O12 F8"
_cell_length_a       11.131100501755077
_cell_length_b       11.772596312481275
_cell_length_c       13.868798740922163
_cell_angle_alpha    113.56798624291612
_cell_angle_beta     113.65904204386749
_cell_angle_gamma    90.00012545555231

_space_group_name_H-M_alt    "P 1"
_space_group_IT_number       1

loop_
  _space_group_symop_operation_xyz
  'x, y, z'

loop_
  _atom_site_type_symbol
  _atom_site_label
  _atom_site_symmetry_multiplicity
  _atom_site_fract_x
  _atom_site_fract_y
  _atom_site_fract_z
  _atom_site_occupancy
  Cd  Cd1       1.0  0.6887362422923644  0.24999316729269347  1.5428682047092304e-06  1.0000
  Cd  Cd2       1.0  0.3112637998910087  0.7500074834996723  0.9999988831084178  1.0000
  H   H1        1.0  0.9257347970369381  0.44791555315512005  0.05101788226767922  1.0000
  H   H2        1.0  0.8747186772093656  0.052081501564636305  0.9489800614727598  1.0000
  H   H3        1.0  0.07426603499407489  0.5520841535014398  0.9489824776686572  1.0000
  H   H4        1.0  0.1252811740160453  0.9479182050938705  0.05101926151353093  1.0000
  H   H5        1.0  0.9281473389444415  0.2328850107752913  0.2260117377933923  1.0000
  H   H6        1.0  0.7021486234699594  0.2671250614068796  0.7739946647644514  1.0000
  H   H7        1.0  0.07185153145875489  0.7671146958830024  0.7739872692797573  1.0000
  H   H8        1.0  0.297851227738839  0.7328746452494599  0.22600537925873698  1.0000
  H   H9        1.0  0.17357975842911338  0.46859201428751607  0.11645961591786146  1.0000
  H   H10       1.0  0.057119892327222005  0.03139847073371979  0.8835358377291767  1.0000
  H   H11       1.0  0.826419111974083  0.5314076923707773  0.8835393911552812  1.0000
  H   H12       1.0  0.9428789780593618  0.9686012359224135  0.11646389038086377  1.0000
  H   H13       1.0  0.17332899692392087  0.24167099503202394  0.2958232258027849  1.0000
  H   H14       1.0  0.8775185935655045  0.25833933874227444  0.7041863596483678  1.0000
  H   H15       1.0  0.8266708542848847  0.7583287116243158  0.7041768182204037  1.0000
  H   H16       1.0  0.12248125764329387  0.7416603679140721  0.2958136843748206  1.0000
  H   H17       1.0  0.37193316743454113  0.4037212902031797  0.20076551188117964  1.0000
  H   H18       1.0  0.17117729874257046  0.0962790041333292  0.7992447908487675  1.0000
  H   H19       1.0  0.6280668747654446  0.5962793605913461  0.799234193058538  1.0000
  H   H20       1.0  0.8288225524662283  0.9037207025230176  0.20075525317442094  1.0000
  H   H21       1.0  0.36189262052268123  0.26313357392697156  0.2171120688378422  1.0000
  H   H22       1.0  0.1447904633669026  0.23686006858236647  0.7828850745916824  1.0000
  H   H23       1.0  0.6381072306861171  0.7368661327293748  0.7828879751853461  1.0000
  H   H24       1.0  0.8552105596386852  0.7631405822102122  0.21711566729808837  1.0000
  H   H25       1.0  0.4143269826853313  0.34593850637116924  0.752469630304027  1.0000
  H   H26       1.0  0.6618502513911579  0.1540510862587467  0.24752913517676223  1.0000
  H   H27       1.0  0.585671887717865  0.6540612002871242  0.2475293767691155  1.0000
  H   H28       1.0  0.3381495998176476  0.8459486203975999  0.7524709088464261  1.0000
  H   H29       1.0  0.3407568603899733  0.2769405841008634  0.5401081484319902  1.0000
  H   H30       1.0  0.8006465157508202  0.22304908535371484  0.4598924682939226  1.0000
  H   H31       1.0  0.6592429908188322  0.7230591225554762  0.4598918955912054  1.0000
  H   H32       1.0  0.19935352643255302  0.7769515654386513  0.5401079576827001  1.0000
  H   H33       1.0  0.3127759070095025  0.0494313242566662  0.4078838681804982  1.0000
  H   H34       1.0  0.9048918664116601  0.45055843503800463  0.5921141271886867  1.0000
  H   H35       1.0  0.6872241351738708  0.9505693265356996  0.5921165577961246  1.0000
  H   H36       1.0  0.09510798481375819  0.5494412716205019  0.40788519579760396  1.0000
  H   H37       1.0  0.3629074810162791  0.893931412152533  0.4924378435996956  1.0000
  H   H38       1.0  0.8704694011563987  0.6060580021488775  0.507561615681716  1.0000
  H   H39       1.0  0.6370925611837067  0.10606923864200012  0.5075618613400295  1.0000
  H   H40       1.0  0.12953045008562472  0.3939417045117894  0.49243698626767696  1.0000
  H   H41       1.0  0.4341851504849856  0.9634080116552466  0.7039638381500732  1.0000
  H   H42       1.0  0.7302123370658792  0.5365832096672563  0.2960361551287888  1.0000
  H   H43       1.0  0.5658147007072074  0.03659169499893981  0.29603692691001265  1.0000
  H   H44       1.0  0.26978751415953883  0.46341649699125037  0.7039631678575018  1.0000
  H   H45       1.0  0.4205041343403977  0.27620885234972553  0.8951422786935693  1.0000
  H   H46       1.0  0.525348627593182  0.22379663709936895  0.10485613626118354  1.0000
  H   H47       1.0  0.5794968886818026  0.7237917984450065  0.10485774215930377  1.0000
  H   H48       1.0  0.47465141460680377  0.776204013695157  0.8951435686785415  1.0000
  H   H49       1.0  0.4291034630083105  0.1299016767230441  0.8780152979709683  1.0000
  H   H50       1.0  0.5510918715999509  0.37010290901460496  0.12199206440941174  1.0000
  H   H51       1.0  0.5708965791916754  0.8700989740714888  0.12198440696874958  1.0000
  H   H52       1.0  0.4489069987866329  0.6298967976415284  0.8780076637006358  1.0000
  C   C1        1.0  0.9852141387668141  0.40482032634059084  0.10647837420750485  1.0000
  C   C2        1.0  0.8787321092919382  0.09518530042977602  0.8935096698218385  1.0000
  C   C3        1.0  0.014785903433171684  0.5951803244539419  0.8935213307322198  1.0000
  C   C4        1.0  0.12126872273908156  0.9048144062267767  0.10649069011449787  1.0000
  C   C5        1.0  0.9858123005707427  0.2841489498805885  0.2034333200792843  1.0000
  C   C6        1.0  0.7823926196803939  0.21585845232644374  0.7965757528628001  1.0000
  C   C7        1.0  0.014186760807028484  0.7158517009137313  0.7965660689472924  1.0000
  C   C8        1.0  0.2176072315117921  0.784141254327743  0.20342501219728593  1.0000
  C   C9        1.0  0.12222475309929591  0.4151914915773602  0.14208800617774386  1.0000
  C   C10       1.0  0.9801351512487599  0.08479529947058499  0.857914714618381  1.0000
  C   C11       1.0  0.8777750981095026  0.5848082150789865  0.8579120378454446  1.0000
  C   C12       1.0  0.019864699976650975  0.9152044071879217  0.14208460836790945  1.0000
  C   C13       1.0  0.12284886356560779  0.2893877781839862  0.24189593467175285  1.0000
  C   C14       1.0  0.8809638642208597  0.2106168353491428  0.7581192925227213  1.0000
  C   C15       1.0  0.877150197795551  0.7106128726081735  0.7581041753917217  1.0000
  C   C16       1.0  0.11903598698794576  0.7893828713071969  0.24188075150046728  1.0000
  C   C17       1.0  0.1933728664402068  0.3540641718984928  0.20928241957150814  1.0000
  C   C18       1.0  0.9841032399192571  0.1459293165973747  0.7907171111139487  1.0000
  C   C19       1.0  0.8066269847685986  0.6459355347578535  0.7907176244516801  1.0000
  C   C20       1.0  0.01589661128954128  0.8540703900589719  0.20928293290923955  1.0000
  C   C21       1.0  0.34136492513154343  0.35938067241714583  0.24563785265751648  1.0000
  C   C22       1.0  0.0957379235817939  0.14061194400061788  0.7543578569145736  1.0000
  C   C23       1.0  0.658634926077255  0.6406190342392009  0.7543621913656718  1.0000
  C   C24       1.0  0.9042619276436171  0.8593877626578889  0.24564146607171705  1.0000
  C   C25       1.0  0.4225191634177037  0.43101865573840564  0.37614836073992547  1.0000
  C   C26       1.0  0.04639337412551469  0.06897116569395931  0.6238618266674364  1.0000
  C   C27       1.0  0.5774806878077073  0.5689810509201009  0.6238509622463652  1.0000
  C   C28       1.0  0.953606668074471  0.9310294851005666  0.3761378782722884  1.0000
  C   C29       1.0  0.4350105669883818  0.5614746192446844  0.43394425356778743  1.0000
  C   C30       1.0  0.0011214556861745158  0.9385081911292732  0.5660641798846485  1.0000
  C   C31       1.0  0.5649892842204167  0.43852508741166224  0.5660557904554082  1.0000
  C   C32       1.0  0.9988783955392435  0.06149151552922658  0.4339351431016424  1.0000
  C   C33       1.0  0.5115517312375601  0.628838520147326  0.5541240050227572  1.0000
  C   C34       1.0  0.9574344309633744  0.8711672220066334  0.4458757429135216  1.0000
  C   C35       1.0  0.48844811997124543  0.3711611865090206  0.4458760390004385  1.0000
  C   C36       1.0  0.0425654202620365  0.12883248465187344  0.5541235800727691  1.0000
  C   C37       1.0  0.42376451120895087  0.15876434793391783  0.7407720228724698  1.0000
  C   C38       1.0  0.6829932157342853  0.34122622484787263  0.25922874272610125  1.0000
  C   C39       1.0  0.5762353399998544  0.8412353587224287  0.2592280211507186  1.0000
  C   C40       1.0  0.3170066354911327  0.6587734818106342  0.7407705802601895  1.0000
  C   C41       1.0  0.40118090895332864  0.24694401829353296  0.6943787004425558  1.0000
  C   C42       1.0  0.7068122552847952  0.25304938835602536  0.305621491227697  1.0000
  C   C43       1.0  0.5988179614166498  0.7530556883604406  0.30562174870438236  1.0000
  C   C44       1.0  0.2931875959240102  0.746950318300314  0.6943785527954913  1.0000
  C   C45       1.0  0.3604424223612739  0.20726414045918767  0.5750384130771378  1.0000
  C   C46       1.0  0.7853954750772092  0.29272647837879623  0.4249545234418832  1.0000
  C   C47       1.0  0.6395564480087046  0.7927355661947856  0.4249620360698072  1.0000
  C   C48       1.0  0.2146035862839497  0.7072741724133635  0.5750455866215914  1.0000
  C   C49       1.0  0.34404900335811556  0.08010703537345878  0.5010405240884239  1.0000
  C   C50       1.0  0.8430101891691422  0.41988835269147273  0.4989565988484442  1.0000
  C   C51       1.0  0.6559510388252576  0.9198936154189142  0.49895990188819167  1.0000
  C   C52       1.0  0.1569896620396634  0.5801113539648739  0.5010434451747512  1.0000
  C   C53       1.0  0.37126432878195453  0.9929410074384392  0.5483063480225635  1.0000
  C   C54       1.0  0.8229629090118777  0.5070540255387428  0.45170355949309726  1.0000
  C   C55       1.0  0.6287345416046294  0.0070586992177013  0.4516933800874837  1.0000
  C   C56       1.0  0.17703792303574764  0.49294568111996984  0.5482960794063414  1.0000
  C   C57       1.0  0.41128628514824334  0.03154776470056221  0.6674857459779486  1.0000
  C   C58       1.0  0.7438092797155776  0.4684409767433094  0.3325154957043636  1.0000
  C   C59       1.0  0.5887145468827768  0.9684519419559976  0.3325146139583879  1.0000
  C   C60       1.0  0.25619057150983326  0.531558729915197  0.6674838272819271  1.0000
  N   N1        1.0  0.9168077200628346  0.3388098832355126  0.13454785744387  1.0000
  N   N2        1.0  0.7822691274750397  0.16119649342123668  0.8654568840008563  1.0000
  N   N3        1.0  0.0831923221371511  0.6611907675590133  0.8654518474958548  1.0000
  N   N4        1.0  0.21773072371714622  0.8388032132329503  0.1345438810592299  1.0000
  N   N5        1.0  0.6635204155050118  0.5226088783947845  0.008222355759308122  1.0000
  N   N6        1.0  0.6553179983152333  0.9773995193010592  0.9917804345529857  1.0000
  N   N7        1.0  0.33647845489818445  0.47739082826350904  0.9917766513138344  1.0000
  N   N8        1.0  0.3446820438681399  0.022601131491306603  0.008219991423636875  1.0000
  N   N9        1.0  0.4604761357786984  0.19943083823046948  0.8620811968116582  1.0000
  N   N10       1.0  0.5983905775985007  0.3005691194977942  0.13792352863074334  1.0000
  N   N11       1.0  0.539523906404682  0.8005698125618965  0.13791922916496444  1.0000
  N   N12       1.0  0.4016104454236995  0.6994315312969449  0.8620764922221225  1.0000
  O   O1        1.0  0.6965558221419599  0.42688667570999417  0.9447998203245687  1.0000
  O   O2        1.0  0.7517827801458099  0.0731146848603856  0.05522353290930945  1.0000
  O   O3        1.0  0.303444029083458  0.5731130309485123  0.055199502661722  1.0000
  O   O4        1.0  0.24821805188521043  0.9268850217961674  0.9447768270270271  1.0000
  O   O5        1.0  0.648516568697744  0.5227681638716818  0.09366649417426486  1.0000
  O   O6        1.0  0.5548723380345351  0.9772740867144806  0.9063533242749242  1.0000
  O   O7        1.0  0.3514836644768168  0.4772334310588704  0.9063335927188871  1.0000
  O   O8        1.0  0.4451277041156204  0.0227265640735652  0.09364854377549393  1.0000
  O   O9        1.0  0.647586809525272  0.6158621175441253  0.9843088931204061  1.0000
  O   O10       1.0  0.6632842656942444  0.884121723309228  0.015659596461737993  1.0000
  O   O11       1.0  0.3524118699033494  0.3841366449781489  0.015689731999302087  1.0000
  O   O12       1.0  0.336715776489129  0.11587892748313779  0.9843408295148846  1.0000
  F   F1        1.0  0.3704707991840337  0.6250293089670291  0.37136201968900895  1.0000
  F   F2        1.0  0.9992555734256995  0.8749479921098384  0.6286544879673313  1.0000
  F   F3        1.0  0.6295280712191625  0.3749703976912712  0.6286369873841336  1.0000
  F   F4        1.0  0.0007432969774967998  0.12505171454846223  0.37134451910581123  1.0000
  F   F5        1.0  0.5226671688205826  0.7562298376521357  0.6038649776837701  1.0000
  F   F6        1.0  0.9187944095918253  0.7437683190471703  0.3961139985274753  1.0000
  F   F7        1.0  0.47733268238821586  0.24376986900421127  0.3961350663394184  1.0000
  F   F8        1.0  0.08120563260816029  0.2562323317473627  0.6038857064122423  1.0000
