data_image0
_chemical_formula_structural       Hg2H48C56N8Cl4O6
_chemical_formula_sum              "Hg2 H48 C56 N8 Cl4 O6"
_cell_length_a       8.503877392641238
_cell_length_b       12.817194391716736
_cell_length_c       13.061624848397257
_cell_angle_alpha    94.30661912263074
_cell_angle_beta     98.33287845120377
_cell_angle_gamma    98.11779890190871

_space_group_name_H-M_alt    "P 1"
_space_group_IT_number       1

loop_
  _space_group_symop_operation_xyz
  'x, y, z'

loop_
  _atom_site_type_symbol
  _atom_site_label
  _atom_site_symmetry_multiplicity
  _atom_site_fract_x
  _atom_site_fract_y
  _atom_site_fract_z
  _atom_site_occupancy
  Hg  Hg1       1.0  0.4414593827437372  0.37705171831965584  0.35774191402818184  1.0000
  Hg  Hg2       1.0  0.5585437371481489  0.6229475334746724  0.6422538317632417  1.0000
  H   H1        1.0  0.8221747686606096  0.4224700489543594  0.4303597482883177  1.0000
  H   H2        1.0  0.17783130063849475  0.5775363032335007  0.5696391498785545  1.0000
  H   H3        1.0  0.048002988848757894  0.4131749172641931  0.573504936329293  1.0000
  H   H4        1.0  0.952007038166805  0.5868329598579577  0.4264990484459617  1.0000
  H   H5        1.0  0.6930396136541431  0.28529842814766226  0.7542753177541571  1.0000
  H   H6        1.0  0.3069609339471456  0.714700064534064  0.24571782982777532  1.0000
  H   H7        1.0  0.480119372319706  0.30376827982198756  0.6041332490462922  1.0000
  H   H8        1.0  0.5198817668803456  0.696232556173072  0.3958639735122275  1.0000
  H   H9        1.0  0.13855074319977945  0.37231143977523123  0.7484355704921981  1.0000
  H   H10       1.0  0.8614549473577996  0.627693251606999  0.2515723440454494  1.0000
  H   H11       1.0  0.0008213745090372649  0.38900373562349694  0.8358739624097069  1.0000
  H   H12       1.0  0.9991641342422427  0.611001101964689  0.16412825936241401  1.0000
  H   H13       1.0  0.1746402252853017  0.26464128283209476  0.6323241748289022  1.0000
  H   H14       1.0  0.8253642804498398  0.7353634023987964  0.36768516029229664  1.0000
  H   H15       1.0  0.24927204569184622  0.12187050867022717  0.5250879226837456  1.0000
  H   H16       1.0  0.7507310525695202  0.8781382198187231  0.47491319063377796  1.0000
  H   H17       1.0  0.025850750407151634  0.8918904768144243  0.7030895233299859  1.0000
  H   H18       1.0  0.9741390968444179  0.10811753365324252  0.2969102990739003  1.0000
  H   H19       1.0  0.18162890774402032  0.9247599976803329  0.4582295719309429  1.0000
  H   H20       1.0  0.8183648880336564  0.07524959559363249  0.541768450307643  1.0000
  H   H21       1.0  0.11146195119064124  0.8322941307061458  0.5421875948753225  1.0000
  H   H22       1.0  0.8885308722044345  0.1677114713093175  0.4578138383633005  1.0000
  H   H23       1.0  0.3147062384193475  0.8949644686000512  0.565962924391556  1.0000
  H   H24       1.0  0.6852895472405223  0.10504348260118232  0.4340405078536237  1.0000
  H   H25       1.0  0.8722107337422431  0.7341305927531818  0.8539462467939459  1.0000
  H   H26       1.0  0.12779616531059898  0.2658646152253112  0.1460564100281871  1.0000
  H   H27       1.0  0.6210158989807225  0.5384013517112363  0.05026721096754019  1.0000
  H   H28       1.0  0.37899534367815596  0.4615969969956239  0.9497368724717462  1.0000
  H   H29       1.0  0.5384745109613079  0.6942988366363424  0.13418310357807434  1.0000
  H   H30       1.0  0.46152565585614275  0.30569800810020803  0.8658175299804753  1.0000
  H   H31       1.0  0.8138160512773069  0.5386318933466185  0.8114060014380443  1.0000
  H   H32       1.0  0.18619857648373997  0.4613608471921183  0.18860253144659112  1.0000
  H   H33       1.0  0.7162220099259642  0.4570587591989224  0.8949480345661627  1.0000
  H   H34       1.0  0.2837969665468805  0.5429370899170749  0.10506575092099271  1.0000
  H   H35       1.0  0.9209002926061913  0.515442153227049  0.9321377876097117  1.0000
  H   H36       1.0  0.07911729741964282  0.48455293649746517  0.0678727442814733  1.0000
  H   H37       1.0  0.5810660550839232  0.8474009207207657  0.23029416107355163  1.0000
  H   H38       1.0  0.41892580061691126  0.152595990270207  0.7697034082195913  1.0000
  H   H39       1.0  0.4030407296375316  0.8485431234754656  0.1372597639816178  1.0000
  H   H40       1.0  0.5969542987256277  0.1514521644545539  0.8627402643404025  1.0000
  H   H41       1.0  0.6670517565906238  0.08056182306965812  0.11038368193798931  1.0000
  H   H42       1.0  0.3329462387256825  0.9194311142801579  0.8896110704450848  1.0000
  H   H43       1.0  0.6343611676273042  0.26157554413712353  0.18740716219512882  1.0000
  H   H44       1.0  0.36563702727126923  0.7384181593132836  0.812590733973316  1.0000
  H   H45       1.0  0.33265837632127676  0.1326612694090485  0.38203549808871884  1.0000
  H   H46       1.0  0.6673392110575165  0.8673348612264603  0.6179571808808079  1.0000
  H   H47       1.0  0.36128694362489006  0.9476894117774181  0.32011460553749066  1.0000
  H   H48       1.0  0.6387056869185699  0.0523107115110335  0.6798779393644097  1.0000
  C   C1        1.0  0.7988973349139812  0.39387284794972277  0.5041283628749653  1.0000
  C   C2        1.0  0.20111191479926302  0.6061271621205364  0.49586801496651134  1.0000
  C   C3        1.0  0.9239601121621561  0.38870178700205565  0.5843078753160924  1.0000
  C   C4        1.0  0.07604499148501279  0.6112958613008743  0.4156886892994649  1.0000
  C   C5        1.0  0.8881034663718382  0.34977129555689157  0.6765208233350466  1.0000
  C   C6        1.0  0.11189310698821231  0.6502351167340592  0.3234764311499774  1.0000
  C   C7        1.0  0.7260116164047048  0.31694161866648324  0.6837775174126861  1.0000
  C   C8        1.0  0.27398456391770754  0.6830632228419515  0.31621804068404913  1.0000
  C   C9        1.0  0.6078685524402232  0.3258684054504002  0.6006870449649782  1.0000
  C   C10       1.0  0.39213297469171937  0.6741340334782747  0.39930804799645603  1.0000
  C   C11       1.0  0.018752517473984705  0.3422349313263453  0.7658344363148403  1.0000
  C   C12       1.0  0.981244060991827  0.6577714488134915  0.23416664415556449  1.0000
  C   C13       1.0  0.0573477044921731  0.1614831145455824  0.7321509702461598  1.0000
  C   C14       1.0  0.9426467147262939  0.8385192810448528  0.26785341141367514  1.0000
  C   C15       1.0  0.14293018530152324  0.1836297845464898  0.6505049257079847  1.0000
  C   C16       1.0  0.8570553342650129  0.8163703146943747  0.3494946123010862  1.0000
  C   C17       1.0  0.1857844315588579  0.10153527002411519  0.5893756851921523  1.0000
  C   C18       1.0  0.8142111643128446  0.8984671831594399  0.4106211543075275  1.0000
  C   C19       1.0  0.14503373939049874  0.9952316932257473  0.6064463380339475  1.0000
  C   C20       1.0  0.8549606726799157  0.004770747376241501  0.39355268724635556  1.0000
  C   C21       1.0  0.06043955682998359  0.9739005423246354  0.6882946783850273  1.0000
  C   C22       1.0  0.9395605832511861  0.0261058112576507  0.3117074967142486  1.0000
  C   C23       1.0  0.016389954921415  0.054679171888516  0.7522826740475567  1.0000
  C   C24       1.0  0.9836094082748303  0.9453239822567383  0.2477229950488109  1.0000
  C   C25       1.0  0.19045820709892067  0.9071535554144248  0.5396731785931763  1.0000
  C   C26       1.0  0.8095375863127501  0.09284967673016808  0.4603252742977233  1.0000
  C   C27       1.0  0.9287444753085339  0.026533165609393394  0.8359617345828809  1.0000
  C   C28       1.0  0.07124203460391956  0.9734661415311124  0.16403706504263482  1.0000
  C   C29       1.0  0.8117389216592626  0.9190374126223091  0.9313764776132132  1.0000
  C   C30       1.0  0.18824957711423454  0.08096025887568459  0.0686269668218173  1.0000
  C   C31       1.0  0.7568180815629902  0.8165280834702742  0.9640165472697575  1.0000
  C   C32       1.0  0.2431791270742707  0.18346638635960488  0.03598514807053731  1.0000
  C   C33       1.0  0.7992800021966033  0.7251946215873345  0.9157495067462236  1.0000
  C   C34       1.0  0.2007312414834317  0.27480372068929876  0.0842553418901417  1.0000
  C   C35       1.0  0.7516335023374127  0.6244358023434771  0.9446246899792997  1.0000
  C   C36       1.0  0.24838644651803318  0.37556403803102256  0.05538568450783289  1.0000
  C   C37       1.0  0.657975954622117  0.6157552124963457  0.02428128617918188  1.0000
  C   C38       1.0  0.3420261830930542  0.38424477995656037  0.9757213195723935  1.0000
  C   C39       1.0  0.6111531086255226  0.7044747614163639  0.07255513709434777  1.0000
  C   C40       1.0  0.38884191769533066  0.2955205393741025  0.9274433608335215  1.0000
  C   C41       1.0  0.6598670284394004  0.805313734576444  0.04324753177228757  1.0000
  C   C42       1.0  0.3401242407684251  0.19468080095009546  0.956749788529642  1.0000
  C   C43       1.0  0.8027266758154995  0.528761153150981  0.8929644565333561  1.0000
  C   C44       1.0  0.197290705855103  0.4712378959598169  0.10704714572965911  1.0000
  C   C45       1.0  0.5260128131549777  0.889959637984617  0.16737957385239347  1.0000
  C   C46       1.0  0.4739847813718683  0.110036447639331  0.8326184614966652  1.0000
  C   C47       1.0  0.5163930224739275  0.0003580594173513007  0.20963931587992587  1.0000
  C   C48       1.0  0.4836004178176482  0.9996357158810409  0.7903527846666024  1.0000
  C   C49       1.0  0.5947064991717781  0.08964007060274778  0.1721265888465027  1.0000
  C   C50       1.0  0.40529031132209065  0.9103528605957365  0.8278695841201227  1.0000
  C   C51       1.0  0.5761567768813975  0.18939554790943447  0.2141496017479483  1.0000
  C   C52       1.0  0.42384240734194384  0.810597369870834  0.7858467908398693  1.0000
  C   C53       1.0  0.4092054659502651  0.1174260389895281  0.3241414098830688  1.0000
  C   C54       1.0  0.5907923179473542  0.8825708770372388  0.6758521172806056  1.0000
  C   C55       1.0  0.42394311489417197  0.0150621367368728  0.2883346413239067  1.0000
  C   C56       1.0  0.576049918481047  0.9849348254169995  0.711656151006153  1.0000
  N   N1        1.0  0.8683600681777365  0.08453495344809883  0.9033668428920337  1.0000
  N   N2        1.0  0.13162624419474872  0.9154635747313762  0.09663034334226951  1.0000
  N   N3        1.0  0.7934231867783339  0.015441458208592  0.9648794382082926  1.0000
  N   N4        1.0  0.20656649375414557  0.9845562387314073  0.035120290051949596  1.0000
  N   N5        1.0  0.48402972738376343  0.20315326665772912  0.2879969878746778  1.0000
  N   N6        1.0  0.5159730025339329  0.7968443950634168  0.7119993571196801  1.0000
  N   N7        1.0  0.643982166601532  0.363942902995042  0.5122744365507401  1.0000
  N   N8        1.0  0.35603004129190213  0.6360594819818887  0.4877208795089913  1.0000
  Cl  Cl1       1.0  0.6117518847979256  0.49556622757231855  0.2711403165776645  1.0000
  Cl  Cl2       1.0  0.3882500512926724  0.5044330116404439  0.7288576149943823  1.0000
  Cl  Cl3       1.0  0.18609635352198947  0.32171382089887857  0.4110104365917095  1.0000
  Cl  Cl4       1.0  0.8139124954018016  0.6782893374455129  0.5889892242157515  1.0000
  O   O1        1.0  0.8977324601270382  0.9207903130497923  0.8499596893620449  1.0000
  O   O2        1.0  0.10226256048431281  0.0792096939368747  0.1500453183142483  1.0000
  O   O3        1.0  0.6212953360565905  0.8958637347637222  0.0865515345357792  1.0000
  O   O4        1.0  0.3787054311325874  0.10413072779927998  0.9134489598421567  1.0000
  O   O5        1.0  0.009741398219617304  0.2362184755146046  0.7955319508932988  1.0000
  O   O6        1.0  0.990264680269853  0.763787818801248  0.20447383404725636  1.0000
