data_image0
_chemical_formula_structural       Zn8H80C120N48
_chemical_formula_sum              "Zn8 H80 C120 N48"
_cell_length_a       14.975281612887605
_cell_length_b       18.223164413144886
_cell_length_c       18.2231314777727
_cell_angle_alpha    80.2841686139994
_cell_angle_beta     65.74158235763282
_cell_angle_gamma    65.74672050091299

_space_group_name_H-M_alt    "P 1"
_space_group_IT_number       1

loop_
  _space_group_symop_operation_xyz
  'x, y, z'

loop_
  _atom_site_type_symbol
  _atom_site_label
  _atom_site_symmetry_multiplicity
  _atom_site_fract_x
  _atom_site_fract_y
  _atom_site_fract_z
  _atom_site_occupancy
  Zn  Zn1       1.0  0.11235117401375307  0.42209114531429043  0.6726037243551917  1.0000
  Zn  Zn2       1.0  0.7070275007850594  0.07789291900759572  0.8274030470981657  1.0000
  Zn  Zn3       1.0  0.7849402148654715  0.327393352707297  0.9220903398075182  1.0000
  Zn  Zn4       1.0  0.5344000724551634  0.17257634461389423  0.5778878364073778  1.0000
  Zn  Zn5       1.0  0.8876491299630017  0.5779083299783564  0.3273964172307945  1.0000
  Zn  Zn6       1.0  0.2929723177754438  0.9221065562498015  0.17259684746113638  1.0000
  Zn  Zn7       1.0  0.21506033668141813  0.6726067244737806  0.07790925290746739  1.0000
  Zn  Zn8       1.0  0.46559962972960284  0.8274243344276258  0.4221123051819902  1.0000
  H   H1        1.0  0.7860945166235781  0.3567090275503659  0.5132949552765497  1.0000
  H   H2        1.0  0.15612364740385926  0.1432928411568426  0.9867225651385855  1.0000
  H   H3        1.0  0.2993710766542319  0.4866994905005414  0.8567343601319239  1.0000
  H   H4        1.0  0.14274635023098634  0.0132992812226007  0.6432721181675235  1.0000
  H   H5        1.0  0.21390597187344434  0.643291049651971  0.486705433337818  1.0000
  H   H6        1.0  0.8438772050390285  0.856706634149802  0.013277027574709251  1.0000
  H   H7        1.0  0.7006284410102807  0.5133005866312884  0.14326553442906953  1.0000
  H   H8        1.0  0.8572531674335266  0.9867007959092291  0.356727776393477  1.0000
  H   H9        1.0  0.1323909067078829  0.15245628661035232  0.6521375188968507  1.0000
  H   H10       1.0  0.4370289828585783  0.3475472999794889  0.8478432486720708  1.0000
  H   H11       1.0  0.7845856638190439  0.3478034841909833  0.6524287510487029  1.0000
  H   H12       1.0  0.28481553767976203  0.15215444034087255  0.8475933784500713  1.0000
  H   H13       1.0  0.8676089118526278  0.8475431886470517  0.34786237566245165  1.0000
  H   H14       1.0  0.5629693066792781  0.6524509714518133  0.15215804547526088  1.0000
  H   H15       1.0  0.2154135529494711  0.6521971948152795  0.3475711435139886  1.0000
  H   H16       1.0  0.7151841645050043  0.8478462387006475  0.1524067631393039  1.0000
  H   H17       1.0  0.8876110555111224  0.24788149883378446  0.5560788616060394  1.0000
  H   H18       1.0  0.1916046188035096  0.25212031875376084  0.9439428460994679  1.0000
  H   H19       1.0  0.44374779592232727  0.4438893324462398  0.7478016672251615  1.0000
  H   H20       1.0  0.1353327148447079  0.0561629537804791  0.752184407523757  1.0000
  H   H21       1.0  0.11238919513977659  0.7521191802217259  0.44392073111063735  1.0000
  H   H22       1.0  0.8083933795623678  0.7478797582935783  0.056057103280856786  1.0000
  H   H23       1.0  0.5562514208461874  0.5561113465600231  0.25219822733752306  1.0000
  H   H24       1.0  0.8646672882360492  0.943837123386608  0.24781573406392  1.0000
  H   H25       1.0  0.10831005047265306  0.3633831531850832  0.5032866661545583  1.0000
  H   H26       1.0  0.4750579172541333  0.13659714798972547  0.996656325002924  1.0000
  H   H27       1.0  0.6116304107950581  0.49667089409668125  0.8633328093090785  1.0000
  H   H28       1.0  0.47151879323175194  0.0033124878619120008  0.6366830150725776  1.0000
  H   H29       1.0  0.8916900740784893  0.6366175259129463  0.4967145183608822  1.0000
  H   H30       1.0  0.5249417167861096  0.8634017253579886  0.00334332252800353  1.0000
  H   H31       1.0  0.3883688059734566  0.5033297849095818  0.13666708525361326  1.0000
  H   H32       1.0  0.5284812098490121  0.9966875893051681  0.3633171265151065  1.0000
  H   H33       1.0  0.35021596334496524  0.1345303331392316  0.551207698610078  1.0000
  H   H34       1.0  0.5360029295666423  0.36546835830155544  0.9488153750026175  1.0000
  H   H35       1.0  0.9014343978312666  0.4488424613626307  0.6345080568868442  1.0000
  H   H36       1.0  0.4847301313312612  0.0511791793835457  0.8654844731282268  1.0000
  H   H37       1.0  0.6497845251520501  0.8654697440631056  0.4487926900042896  1.0000
  H   H38       1.0  0.46399688899386865  0.6345311169558413  0.05118451955668493  1.0000
  H   H39       1.0  0.09856578976975072  0.5511582177141392  0.3654923317292146  1.0000
  H   H40       1.0  0.5152695708535047  0.9488214996579742  0.1345156684611483  1.0000
  H   H41       1.0  0.3546424063362537  0.3407667072861076  0.6220704733703714  1.0000
  H   H42       1.0  0.8174589680626664  0.15923917627709736  0.8779305960725879  1.0000
  H   H43       1.0  0.9767089014094098  0.3778751120473913  0.8407130884956262  1.0000
  H   H44       1.0  0.6953467710841609  0.12210256142881092  0.6592860889041887  1.0000
  H   H45       1.0  0.6453581452106433  0.6592333698949702  0.37792911934461426  1.0000
  H   H46       1.0  0.1825408504978369  0.8407602989803068  0.12206929848672134  1.0000
  H   H47       1.0  0.023291650137487428  0.6221249651336793  0.15928650421935944  1.0000
  H   H48       1.0  0.3046540813587272  0.8778969138778336  0.34071350380910564  1.0000
  H   H49       1.0  0.9652912798436049  0.9698844480835408  0.7549288069167446  1.0000
  H   H50       1.0  0.19012211632927734  0.5300970194365107  0.745104381007309  1.0000
  H   H51       1.0  0.7201456274581871  0.24500731260462064  0.46988555659766007  1.0000
  H   H52       1.0  0.9351049271740237  0.2549652827416935  0.03009005329276691  1.0000
  H   H53       1.0  0.034709572599282985  0.03011502722309699  0.24507078579654262  1.0000
  H   H54       1.0  0.8098778867514795  0.46990305773056923  0.25489576058037505  1.0000
  H   H55       1.0  0.2798543125726949  0.7549927645837259  0.5301153808894058  1.0000
  H   H56       1.0  0.06489732309711378  0.7450335907184993  0.9699084416734325  1.0000
  H   H57       1.0  0.7817147928401407  0.2002798945936917  0.6968167267266808  1.0000
  H   H58       1.0  0.17885715559639676  0.2996947263852121  0.8031932737319992  1.0000
  H   H59       1.0  0.478474597293463  0.3032217560382122  0.7002875184717399  1.0000
  H   H60       1.0  0.982105724746056  0.19673729573450768  0.7996594180831665  1.0000
  H   H61       1.0  0.21828551113661376  0.7997195806989552  0.30318341485930494  1.0000
  H   H62       1.0  0.8211423620681088  0.7003053507466178  0.19680662082900108  1.0000
  H   H63       1.0  0.5215254057873009  0.6967783211288678  0.29971262311594427  1.0000
  H   H64       1.0  0.017894642280580884  0.8032621795368797  0.2003399276034444  1.0000
  H   H65       1.0  0.7408670546889553  0.47366311946318274  0.4203930216200363  1.0000
  H   H66       1.0  0.13494664372375095  0.026332061229453505  0.07962129977818219  1.0000
  H   H67       1.0  0.16127924288348774  0.5795948517445737  0.9736951571384724  1.0000
  H   H68       1.0  0.21453638372898357  0.9203887246778636  0.5262805398965044  1.0000
  H   H69       1.0  0.25913343380805987  0.5263369577391546  0.5796073669943312  1.0000
  H   H70       1.0  0.8650536602530035  0.973667414063201  0.9203788418078108  1.0000
  H   H71       1.0  0.8387199738850271  0.42040582726169623  0.02630473742421903  1.0000
  H   H72       1.0  0.7854641047680317  0.07961135252447352  0.4737198487178562  1.0000
  H   H73       1.0  0.04244913458850868  0.4422861623857487  0.4060079852596915  1.0000
  H   H74       1.0  0.3908417451534589  0.057694139238066114  0.09393728411891546  1.0000
  H   H75       1.0  0.4484760600131993  0.5939977812102271  0.9422663227105732  1.0000
  H   H76       1.0  0.4846720243012256  0.9060445060618534  0.5577824088071921  1.0000
  H   H77       1.0  0.9575516014786416  0.5577145167050122  0.5939918544836685  1.0000
  H   H78       1.0  0.6091582579273052  0.942305937929021  0.9060628574687616  1.0000
  H   H79       1.0  0.5515229091851807  0.40600229590761217  0.057734120723125705  1.0000
  H   H80       1.0  0.5153281632997988  0.09395617301491653  0.44221797980886635  1.0000
  C   C1        1.0  0.13210680711517145  0.2563825050944287  0.5761398812576887  1.0000
  C   C2        1.0  0.46467657555972863  0.24359434448201264  0.9238172625025741  1.0000
  C   C3        1.0  0.7082532316790662  0.4237905972541895  0.7563548740976602  1.0000
  C   C4        1.0  0.388405955543675  0.07618692993386131  0.7436439572418011  1.0000
  C   C5        1.0  0.8678930114453325  0.7436169701629753  0.4238600133016209  1.0000
  C   C6        1.0  0.5353223254941283  0.756403926942028  0.07618268687267012  1.0000
  C   C7        1.0  0.2917459850894487  0.5762100817520805  0.24364502046503136  1.0000
  C   C8        1.0  0.6115934990709563  0.9238131472192351  0.25635673321858127  1.0000
  C   C9        1.0  0.09422391641428612  0.1956627391108938  0.6145482721793273  1.0000
  C   C10       1.0  0.4045175045509383  0.3043061396339866  0.8853994928140454  1.0000
  C   C11       1.0  0.7088212074290537  0.38534351677787276  0.6956472481176096  1.0000
  C   C12       1.0  0.28983496103339934  0.1145935406533667  0.8043744531822982  1.0000
  C   C13       1.0  0.905775052784094  0.8043373380069526  0.3854521712543645  1.0000
  C   C14       1.0  0.5954801201450408  0.6956933355674481  0.11460259723605758  1.0000
  C   C15       1.0  0.2911787423258544  0.614657764152071  0.3043523446007583  1.0000
  C   C16       1.0  0.7101648042012484  0.8854071383668939  0.19562489250769508  1.0000
  C   C17       1.0  0.004296078115857073  0.19338655072726144  0.6097689292084071  1.0000
  C   C18       1.0  0.3075301701764134  0.30658315914732986  0.8902075171599438  1.0000
  C   C19       1.0  0.6141080376988411  0.3901550091257278  0.6933631858635965  1.0000
  C   C20       1.0  0.19763106088856822  0.1098340383369276  0.8066305243204541  1.0000
  C   C21       1.0  0.9957033764987742  0.806613526425835  0.3902317612519683  1.0000
  C   C22       1.0  0.6924685514518315  0.693416316082086  0.10979347514475533  1.0000
  C   C23       1.0  0.3858916644859247  0.6098456699157924  0.3066369557257786  1.0000
  C   C24       1.0  0.8023695537082034  0.8901660388228835  0.19336827249514962  1.0000
  C   C25       1.0  0.9551795745442674  0.2511989437923249  0.5624337121850048  1.0000
  C   C26       1.0  0.2688772089061758  0.24878039432031335  0.9375431727114221  1.0000
  C   C27       1.0  0.5176615893574024  0.43749973784325397  0.7511643787404623  1.0000
  C   C28       1.0  0.20624344660323152  0.0625065962039173  0.7488411203472084  1.0000
  C   C29       1.0  0.04482006459062393  0.7488017352704546  0.43756722530375214  1.0000
  C   C30       1.0  0.731121274875953  0.7512196827622759  0.06245702369558609  1.0000
  C   C31       1.0  0.48233866129349673  0.5625009412122568  0.24883521397620717  1.0000
  C   C32       1.0  0.7937566195274143  0.9374934809419102  0.2511582253410937  1.0000
  C   C33       1.0  0.9915587794573921  0.31271251492709246  0.5238835192033239  1.0000
  C   C34       1.0  0.32823065009518626  0.1872361409674639  0.9760719529174225  1.0000
  C   C35       1.0  0.5154556188665818  0.47609601951474195  0.8126744216965919  1.0000
  C   C36       1.0  0.304126410746477  0.023884445768629803  0.6873570869583078  1.0000
  C   C37       1.0  0.008440796627624514  0.6872881641569536  0.4761182141848154  1.0000
  C   C38       1.0  0.6717674646464289  0.8127627322957593  0.02392774943283643  1.0000
  C   C39       1.0  0.48454444726406365  0.5239040576310785  0.1873249239917101  1.0000
  C   C40       1.0  0.6958732914382963  0.9761162332728901  0.31264305463106723  1.0000
  C   C41       1.0  0.07973131937846742  0.3153514786933941  0.531781620405063  1.0000
  C   C42       1.0  0.4269501029420369  0.18460159867782275  0.9681397262919519  1.0000
  C   C43       1.0  0.611536593465445  0.4681668176966555  0.8153084712300116  1.0000
  C   C44       1.0  0.39492182199019515  0.03181823176622341  0.6847099430986178  1.0000
  C   C45       1.0  0.9202691691185477  0.6846485985089431  0.46821876820930447  1.0000
  C   C46       1.0  0.573050016514465  0.8153972747051413  0.03186016826566631  1.0000
  C   C47       1.0  0.3884631087193213  0.5318338613448648  0.1846916703593636  1.0000
  C   C48       1.0  0.6050781810905622  0.9681818454008563  0.3152901984890662  1.0000
  C   C49       1.0  0.22509291358383635  0.25759963256217594  0.5839506285555345  1.0000
  C   C50       1.0  0.5666654448070151  0.242406939716176  0.9160399046770993  1.0000
  C   C51       1.0  0.8090590231255703  0.41600607245624144  0.7575460384756528  1.0000
  C   C52       1.0  0.48265004852317633  0.0839662696333434  0.7424110956376142  1.0000
  C   C53       1.0  0.774906778876911  0.7423998427377471  0.4160508578025315  1.0000
  C   C54       1.0  0.4333349222196219  0.7575925355552118  0.08395944100950459  1.0000
  C   C55       1.0  0.19093964517681875  0.5839946065360309  0.24245440495973727  1.0000
  C   C56       1.0  0.5173507408698369  0.9160332056945607  0.25758929297505534  1.0000
  C   C57       1.0  0.9578719377517119  0.13589531467979302  0.6579693871745677  1.0000
  C   C58       1.0  0.2517984107035572  0.3640922364795999  0.8420386117380475  1.0000
  C   C59       1.0  0.6158705776206191  0.34197069593313506  0.6358691881562992  1.0000
  C   C60       1.0  0.09377293070665607  0.15802700336320194  0.8641058164875235  1.0000
  C   C61       1.0  0.04212751686291929  0.8641047624733035  0.34203130328580766  1.0000
  C   C62       1.0  0.7482014078569464  0.635907238777797  0.1579612828212547  1.0000
  C   C63       1.0  0.3841299108763963  0.658029381269202  0.36413120045806835  1.0000
  C   C64       1.0  0.9062282856821042  0.8419718700477433  0.1358929803246909  1.0000
  C   C65       1.0  0.9384116060426632  0.3746775850580377  0.477102848291864  1.0000
  C   C66       1.0  0.2902220058500902  0.12532076154889182  0.02289916089809913  1.0000
  C   C67       1.0  0.4155268078725809  0.5229284704888358  0.8746257134466051  1.0000
  C   C68       1.0  0.31300730516415615  0.9770119233777095  0.6254315819417189  1.0000
  C   C69       1.0  0.061588033092227996  0.6253230940047416  0.5228980891968932  1.0000
  C   C70       1.0  0.7097774487645481  0.8746793156042045  0.9771015295622835  1.0000
  C   C71       1.0  0.5844724088959341  0.477072208517427  0.12537418111608636  1.0000
  C   C72       1.0  0.686993493952876  0.0229887556917916  0.37456746190225254  1.0000
  C   C73       1.0  0.3230619909374326  0.19598369836862872  0.5697721563892275  1.0000
  C   C74       1.0  0.5888371575897084  0.3040038108734038  0.9302639370181185  1.0000
  C   C75       1.0  0.8928289706598278  0.4302285902840524  0.695955442434361  1.0000
  C   C76       1.0  0.5190276491469136  0.0697535793514348  0.8040282335977766  1.0000
  C   C77       1.0  0.6769374636772056  0.8040163787844606  0.430228534071155  1.0000
  C   C78       1.0  0.4111610252964227  0.6959968680836184  0.06973625939058795  1.0000
  C   C79       1.0  0.10717158088706899  0.5697714868970254  0.30404415028062465  1.0000
  C   C80       1.0  0.48097235393385057  0.9302464978156451  0.19597190798990757  1.0000
  C   C81       1.0  0.3270712214706463  0.3020316982630861  0.6053319258825881  1.0000
  C   C82       1.0  0.7344218024601687  0.197979947507342  0.894681192999876  1.0000
  C   C83       1.0  0.9323984689240915  0.3946063804877227  0.8019807210464908  1.0000
  C   C84       1.0  0.6290253388872812  0.1053770531779534  0.6980086036660538  1.0000
  C   C85       1.0  0.6729296406962603  0.6979689807851485  0.39466632206200813  1.0000
  C   C86       1.0  0.26557874908672113  0.8020201296737356  0.10531839971510953  1.0000
  C   C87       1.0  0.06760153415667246  0.6053936966793574  0.19801942054118635  1.0000
  C   C88       1.0  0.3709750281393552  0.8946224220934412  0.30199074202055703  1.0000
  C   C89       1.0  0.9448005508580765  0.0297020490950288  0.7285910416678832  1.0000
  C   C90       1.0  0.2031084982630705  0.4702801925947924  0.771435745975417  1.0000
  C   C91       1.0  0.6733423166062167  0.27135733383342864  0.5296995046300526  1.0000
  C   C92       1.0  0.9744636696188494  0.22862558351422996  0.9702679468696405  1.0000
  C   C93       1.0  0.055200000688813575  0.9702980280860486  0.27140855104709527  1.0000
  C   C94       1.0  0.7968918057136847  0.5297192826978615  0.2285643956105758  1.0000
  C   C95       1.0  0.3266576864745473  0.7286427433336586  0.4703006369576245  1.0000
  C   C96       1.0  0.025539852380795456  0.7713726881420301  0.029731042148242223  1.0000
  C   C97       1.0  0.8513548363248449  0.1476243358213409  0.6961020839140276  1.0000
  C   C98       1.0  0.19514913036613263  0.3523340946997351  0.8039046845777025  1.0000
  C   C99       1.0  0.5473952745340609  0.30390957734715573  0.6476191265817804  1.0000
  C   C100      1.0  0.9990214131787596  0.19608684716011035  0.8523334122217464  1.0000
  C   C101      1.0  0.1486453415521538  0.8523751395138319  0.3038996494707221  1.0000
  C   C102      1.0  0.8048507512442454  0.6476653805364023  0.19609441408222508  1.0000
  C   C103      1.0  0.4526052139629543  0.6960904998551811  0.3523812620325871  1.0000
  C   C104      1.0  0.000979502314010032  0.8039126281252679  0.14766538459216602  1.0000
  C   C105      1.0  0.8147347499151393  0.4499476600394702  0.4297379408579261  1.0000
  C   C106      1.0  0.19446495422929644  0.050035828282212  0.07026796744402473  1.0000
  C   C107      1.0  0.2444919086796345  0.5702683103953066  0.9499595340447586  1.0000
  C   C108      1.0  0.26466674427996384  0.9297156098818321  0.5500344795526362  1.0000
  C   C109      1.0  0.18526573858187592  0.5500524171628669  0.5702624477564414  1.0000
  C   C110      1.0  0.8055348643312069  0.949963646975185  0.9297319271152776  1.0000
  C   C111      1.0  0.7555071235686202  0.42973176670127344  0.050040113489558315  1.0000
  C   C112      1.0  0.7353335596967908  0.070283865410822  0.44996566203334976  1.0000
  C   C113      1.0  0.9694342552209535  0.432498434818335  0.42525714698518186  1.0000
  C   C114      1.0  0.3272639849968684  0.06747909509351051  0.07470704399725754  1.0000
  C   C115      1.0  0.3947036439349035  0.5747621847126679  0.9324580310878405  1.0000
  C   C116      1.0  0.4018571701712401  0.9251904961965566  0.5676209457529782  1.0000
  C   C117      1.0  0.03056678174219491  0.5675016423979925  0.5747426927564875  1.0000
  C   C118      1.0  0.6727360180838955  0.9325209820735766  0.9252930975904194  1.0000
  C   C119      1.0  0.6052952571189536  0.4252360867113724  0.06754191828741082  1.0000
  C   C120      1.0  0.5981438134660451  0.07481078478263471  0.4323783451193749  1.0000
  N   N1        1.0  0.22863072192134848  0.32498290476966213  0.6068746411611131  1.0000
  N   N2        1.0  0.6604893231160676  0.1750309971957833  0.8931043262439431  1.0000
  N   N3        1.0  0.8355094846331069  0.39305895122938495  0.8249300360028189  1.0000
  N   N4        1.0  0.5535443394330742  0.10691590531001792  0.6750429488342677  1.0000
  N   N5        1.0  0.77136934420929  0.6750171723761654  0.3931247045271889  1.0000
  N   N6        1.0  0.33951152932682044  0.8249684781108615  0.10689526646935131  1.0000
  N   N7        1.0  0.16449051844764992  0.6069411259376949  0.17507010558485805  1.0000
  N   N8        1.0  0.4464559645436877  0.8930835699826363  0.3249571927517251  1.0000
  N   N9        1.0  0.38717310195371374  0.2247160314179766  0.5830291331638834  1.0000
  N   N10       1.0  0.6949236554270614  0.2752823387517084  0.9170071990190042  1.0000
  N   N11       1.0  0.9702033635427938  0.41695314099290215  0.7246817305709217  1.0000
  N   N12       1.0  0.6118501618449056  0.0830386860625225  0.7753122838986644  1.0000
  N   N13       1.0  0.6128272117470674  0.7752846476162745  0.41696966365341137  1.0000
  N   N14       1.0  0.30507689611982863  0.7247177384293623  0.08299239369597446  1.0000
  N   N15       1.0  0.029796639537970203  0.583046936174185  0.27531841101676247  1.0000
  N   N16       1.0  0.388150389701991  0.916961391118555  0.22468730881632132  1.0000
  N   N17       1.0  0.016351979778782832  0.060541727921126685  0.6796448018465214  1.0000
  N   N18       1.0  0.25656557018155707  0.43945767580592593  0.8203736423557972  1.0000
  N   N19       1.0  0.6960187924286031  0.32027650888047543  0.5605194130493274  1.0000
  N   N20       1.0  0.0768711849585061  0.1797163528178629  0.9394630264948064  1.0000
  N   N21       1.0  0.9836479018315955  0.939457747315011  0.3203542968133988  1.0000
  N   N22       1.0  0.7434344959490814  0.5605424013399017  0.1796257033325048  1.0000
  N   N23       1.0  0.30398121065216105  0.6797235682866114  0.43948072853835646  1.0000
  N   N24       1.0  0.923130880792385  0.8202819187326399  0.0605352214430183  1.0000
  N   N25       1.0  0.8434763925433229  0.08017733299575977  0.7411664231292647  1.0000
  N   N26       1.0  0.16486132479332133  0.41978314553475127  0.7588515562896989  1.0000
  N   N27       1.0  0.58454154972663  0.25885017638561447  0.5801762339800832  1.0000
  N   N28       1.0  0.9236558577968738  0.2411458852373514  0.9197773037223771  1.0000
  N   N29       1.0  0.15652439684969008  0.9198221423321442  0.25883396548341153  1.0000
  N   N30       1.0  0.835139042233315  0.5802163297366364  0.24114778939690507  1.0000
  N   N31       1.0  0.4154589387703851  0.7411499008167298  0.4198241546342844  1.0000
  N   N32       1.0  0.07634548006226542  0.7588535901045361  0.08022253601759388  1.0000
  N   N33       1.0  0.8401074363252404  0.38723291598451953  0.47822207164139047  1.0000
  N   N34       1.0  0.2055724742237004  0.11277069959104581  0.02180290216018927  1.0000
  N   N35       1.0  0.3183240021011782  0.5218092469315891  0.8872175914812674  1.0000
  N   N36       1.0  0.22728779379126962  0.978165908310004  0.6127967206297529  1.0000
  N   N37       1.0  0.1598930521717747  0.6127671612178177  0.5217783169729772  1.0000
  N   N38       1.0  0.7944278297530545  0.8872287757016083  0.9781972394257965  1.0000
  N   N39       1.0  0.6816755786132092  0.4781908301789812  0.11278150718035108  1.0000
  N   N40       1.0  0.7727122092894946  0.021834168857083103  0.3872034209579312  1.0000
  N   N41       1.0  0.8916777959159179  0.47898261448266055  0.39621290466332953  1.0000
  N   N42       1.0  0.26694606412893757  0.020989488590075205  0.10375245557600721  1.0000
  N   N43       1.0  0.28792238460149383  0.6037831939446434  0.9789854645364006  1.0000
  N   N44       1.0  0.3706404222833655  0.8962055933113432  0.5210414430645687  1.0000
  N   N45       1.0  0.10832275563097939  0.52101746269841  0.603786688051649  1.0000
  N   N46       1.0  0.7330552737302085  0.9790099867518193  0.8962473841639637  1.0000
  N   N47       1.0  0.7120774339590101  0.3962162813127534  0.021014430022908936  1.0000
  N   N48       1.0  0.6293598283675336  0.1037950857441601  0.47895814965210803  1.0000
