data_image0
_chemical_formula_structural       Zn8H112C168S16N16O32
_chemical_formula_sum              "Zn8 H112 C168 S16 N16 O32"
_cell_length_a       14.667669561495927
_cell_length_b       14.641439505230606
_cell_length_c       29.137763706785634
_cell_angle_alpha    100.72567000020697
_cell_angle_beta     100.80291287373585
_cell_angle_gamma    90.38861545741702

_space_group_name_H-M_alt    "P 1"
_space_group_IT_number       1

loop_
  _space_group_symop_operation_xyz
  'x, y, z'

loop_
  _atom_site_type_symbol
  _atom_site_label
  _atom_site_symmetry_multiplicity
  _atom_site_fract_x
  _atom_site_fract_y
  _atom_site_fract_z
  _atom_site_occupancy
  Zn  Zn1       1.0  0.5964241062317513  0.3120618216213273  0.7572142805169972  1.0000
  Zn  Zn2       1.0  0.403576114695788  0.6879384161627797  0.24278635237433113  1.0000
  Zn  Zn3       1.0  0.056875169175405894  0.7695120199642672  0.6573904313553525  1.0000
  Zn  Zn4       1.0  0.9431249659128654  0.23048612878709204  0.34260896931428414  1.0000
  Zn  Zn5       1.0  0.6229209330833783  0.27284853558941075  0.6596116205817351  1.0000
  Zn  Zn6       1.0  0.3770813407562131  0.7271510082463946  0.3403891425586919  1.0000
  Zn  Zn7       1.0  0.15870709478585351  0.8131343887536673  0.7536436092078983  1.0000
  Zn  Zn8       1.0  0.8412944586474466  0.18686445644929955  0.246355647724286  1.0000
  H   H1        1.0  0.3943549184169939  0.008489333701348299  0.34616985018638485  1.0000
  H   H2        1.0  0.6056451903627718  0.991508117029575  0.6538281102126716  1.0000
  H   H3        1.0  0.47523346989797227  0.2875355681741069  0.5827776616512849  1.0000
  H   H4        1.0  0.5247687150295874  0.7124618888638707  0.4172232419741561  1.0000
  H   H5        1.0  0.7395670062850781  0.3226655783560019  0.8418019556970079  1.0000
  H   H6        1.0  0.2604339976522639  0.6773367468383426  0.15819860264698346  1.0000
  H   H7        1.0  0.3441294929487597  0.8125925916744022  0.8224783621336156  1.0000
  H   H8        1.0  0.6558750742304724  0.18741182058617767  0.17752066953032397  1.0000
  H   H9        1.0  0.3757921103093905  0.07873954897154078  0.5987918974251158  1.0000
  H   H10       1.0  0.6242082575245433  0.9212641677401622  0.4012090732856634  1.0000
  H   H11       1.0  0.23835367944030847  0.9544360513  0.5954120276607069  1.0000
  H   H12       1.0  0.7616472958839464  0.045565577550092884  0.4045881199427156  1.0000
  H   H13       1.0  0.7375476126327385  0.18538695221558746  0.5846728604218894  1.0000
  H   H14       1.0  0.2624539431051431  0.8146118913112018  0.4153253669802695  1.0000
  H   H15       1.0  0.43110244486976507  0.23809591037580446  0.4939210388695229  1.0000
  H   H16       1.0  0.5688961497392028  0.7618987621342227  0.5060802943420554  1.0000
  H   H17       1.0  0.9199321447778884  0.4996686068514149  0.33920743388016916  1.0000
  H   H18       1.0  0.0800639726301142  0.5003330171531032  0.6607919089829293  1.0000
  H   H19       1.0  0.7578313229499327  0.36944226258354007  0.9306739810416002  1.0000
  H   H20       1.0  0.24217106841477684  0.630560064394352  0.06932705235438869  1.0000
  H   H21       1.0  0.8370137429228635  0.14583739322968367  0.8141667753015153  1.0000
  H   H22       1.0  0.16297785348215393  0.8541558804677718  0.1858330770522939  1.0000
  H   H23       1.0  0.7051911509116309  0.1319027351540214  0.49609294607625276  1.0000
  H   H24       1.0  0.2948084694393103  0.8680995854631418  0.5039054213323622  1.0000
  H   H25       1.0  0.3807614945721838  0.4309400719167797  0.602932554051783  1.0000
  H   H26       1.0  0.6192419973208273  0.5690552939608934  0.39706519016724673  1.0000
  H   H27       1.0  0.24768985787989808  0.55506146420268  0.6017309527468979  1.0000
  H   H28       1.0  0.7523071227015874  0.4449276340936379  0.3982655899581501  1.0000
  H   H29       1.0  0.2626170931021504  0.8444406241766484  0.07748014040443249  1.0000
  H   H30       1.0  0.7373830110684595  0.15555682990664366  0.9225198790546612  1.0000
  H   H31       1.0  0.399745109006595  0.8531838797565143  0.9106914824153873  1.0000
  H   H32       1.0  0.6002607273066828  0.14681775170424768  0.08930809722166796  1.0000
  H   H33       1.0  0.0678825113381407  0.7257195947844863  0.48154732086141633  1.0000
  H   H34       1.0  0.9321164404553455  0.27428342379943155  0.5184527640567963  1.0000
  H   H35       1.0  0.6063295215720714  0.20393352851954213  0.3353295286202566  1.0000
  H   H36       1.0  0.3936646596808017  0.7960715731340781  0.6646702974259779  1.0000
  H   H37       1.0  0.12391424907634978  0.7704855379642835  0.570023161818831  1.0000
  H   H38       1.0  0.876084821010444  0.2295202632029856  0.42997685017826365  1.0000
  H   H39       1.0  0.9655648305771507  0.017203388564844598  0.813176266132771  1.0000
  H   H40       1.0  0.0344303793821865  0.9827933699158959  0.1868259696121797  1.0000
  H   H41       1.0  0.6110303981936054  0.33890687009587583  0.07996280982805357  1.0000
  H   H42       1.0  0.38897334891260726  0.6610947645562176  0.9200396605860701  1.0000
  H   H43       1.0  0.7533884158810763  0.741346630112602  0.3466319381286737  1.0000
  H   H44       1.0  0.24660697420690517  0.25865430028762393  0.653368987116245  1.0000
  H   H45       1.0  0.869038876227421  0.6981406867075534  0.5970571770945979  1.0000
  H   H46       1.0  0.1309599000465766  0.3018581566045099  0.4029421592636027  1.0000
  H   H47       1.0  0.7230136407212412  0.6040110850220514  0.0685154635737035  1.0000
  H   H48       1.0  0.2769873036853525  0.39598984915998153  0.9314853028191832  1.0000
  H   H49       1.0  0.0768222819441604  0.8869064523325321  0.8341860037046798  1.0000
  H   H50       1.0  0.9231813228648064  0.11309170003958968  0.16581406982994906  1.0000
  H   H51       1.0  0.7133689434313695  0.6490060766367447  0.9948743715482916  1.0000
  H   H52       1.0  0.2866305818619992  0.35099416165240166  0.005126881758727103  1.0000
  H   H53       1.0  0.7341969449497369  0.557888036135125  0.9489392249757242  1.0000
  H   H54       1.0  0.2658047809302744  0.44211498657460163  0.051062153223163896  1.0000
  H   H55       1.0  0.6207183796230638  0.5969260968291367  0.9483985663459789  1.0000
  H   H56       1.0  0.37928331687567146  0.403076230095074  0.0516027442890206  1.0000
  H   H57       1.0  0.44558806587389194  0.04672357832413349  0.4784947027930355  1.0000
  H   H58       1.0  0.5544099884574365  0.9532745674725474  0.5215038137102608  1.0000
  H   H59       1.0  0.3431531305756437  0.06081396149064488  0.4375143526009352  1.0000
  H   H60       1.0  0.6568456472347393  0.9391848807039691  0.5624842974039195  1.0000
  H   H61       1.0  0.40936372353250766  0.9621577958360488  0.4255860466090977  1.0000
  H   H62       1.0  0.5906329116855956  0.03783965406775279  0.5744129568083307  1.0000
  H   H63       1.0  0.8009433701450847  0.653271239936508  0.5097892335653569  1.0000
  H   H64       1.0  0.19905624713308606  0.3467310829155608  0.49021050654995674  1.0000
  H   H65       1.0  0.12034556813663501  0.9294237651636833  0.9233803856543046  1.0000
  H   H66       1.0  0.8796580080592449  0.07057369086419377  0.07661927713976979  1.0000
  H   H67       1.0  0.002212208036674205  0.6140537109149875  0.8163682513817462  1.0000
  H   H68       1.0  0.9977908797303882  0.38594861499912975  0.18363181842188672  1.0000
  H   H69       1.0  0.5419627385565917  0.2299654302435527  0.012659989266062207  1.0000
  H   H70       1.0  0.45803534361962744  0.7700334124561079  0.9873392811544758  1.0000
  H   H71       1.0  0.47434986941201623  0.2862831030432886  0.9697229305823709  1.0000
  H   H72       1.0  0.5256533072670777  0.7137213096686561  0.030276998736255185  1.0000
  H   H73       1.0  0.5766788586504816  0.23196846036565683  0.9577277804686515  1.0000
  H   H74       1.0  0.4233235628637004  0.7680345618390233  0.04227297731455343  1.0000
  H   H75       1.0  0.6896693246017946  0.27973490404648516  0.46553308513574615  1.0000
  H   H76       1.0  0.3103260971720444  0.7202667204630726  0.5344668781430427  1.0000
  H   H77       1.0  0.7294279303008793  0.2528761275922519  0.4104838409214863  1.0000
  H   H78       1.0  0.27056752008605406  0.7471261932615576  0.5895165330978641  1.0000
  H   H79       1.0  0.6457599214185945  0.33684578995723774  0.41798076974062326  1.0000
  H   H80       1.0  0.35423405493351356  0.6631544406390117  0.5820182401817106  1.0000
  H   H81       1.0  0.866286807314978  0.49156904083729813  0.8177101730180494  1.0000
  H   H82       1.0  0.133708848740909  0.5084381505151541  0.18229067394852894  1.0000
  H   H83       1.0  0.35704124501493334  0.04239277193893539  0.9309919498550768  1.0000
  H   H84       1.0  0.642955476810627  0.9576067664388785  0.06900794260737085  1.0000
  H   H85       1.0  0.36775891403559774  0.13329157189212276  0.9815598766776075  1.0000
  H   H86       1.0  0.6322391666042365  0.8667072719249873  0.018440080096276297  1.0000
  H   H87       1.0  0.4625798779109473  0.06241770768458819  0.9729941889547218  1.0000
  H   H88       1.0  0.5374182351829332  0.9375818296831322  0.027004462676352068  1.0000
  H   H89       1.0  0.014960089711628698  0.5373480402167701  0.47000477030713467  1.0000
  H   H90       1.0  0.9850372983668122  0.4626508018704811  0.5299944341757337  1.0000
  H   H91       1.0  0.9586372576092896  0.4462563470883296  0.4239826097896965  1.0000
  H   H92       1.0  0.04136221353067528  0.5537424962774153  0.5760164493295007  1.0000
  H   H93       1.0  0.05510595914812199  0.5084985911161367  0.41538696280411347  1.0000
  H   H94       1.0  0.9448922119401286  0.4915023383813519  0.5846121671314178  1.0000
  H   H95       1.0  0.17926376461292648  0.7451720294851397  0.013001834737146098  1.0000
  H   H96       1.0  0.8207350395059692  0.25482751072989623  0.9869982555382959  1.0000
  H   H97       1.0  0.1255776058058871  0.8006660236429822  0.9663943366398866  1.0000
  H   H98       1.0  0.8744226738842045  0.1993356057121645  0.03360643137922643  1.0000
  H   H99       1.0  0.22149537162515998  0.7311269617940398  0.95894967466495  1.0000
  H   H100      1.0  0.7785019584589178  0.26887048816344356  0.04104905151346831  1.0000
  H   H101      1.0  0.42775579101032696  0.07839179574978057  0.0642733021720616  1.0000
  H   H102      1.0  0.5722395712327639  0.9216084377474656  0.9357268691556225  1.0000
  H   H103      1.0  0.4571235111160091  0.3641990657502773  0.8224213221976908  1.0000
  H   H104      1.0  0.5428768551815394  0.6358046520788819  0.17758033486643393  1.0000
  H   H105      1.0  0.46266852020013255  0.41109570775898857  0.9094750383019273  1.0000
  H   H106      1.0  0.5373331167678543  0.5889052281529032  0.09052648038196762  1.0000
  H   H107      1.0  0.8293935744520907  0.8215396710488746  0.4779762165360423  1.0000
  H   H108      1.0  0.1706067067743859  0.17846195718881563  0.522023865129718  1.0000
  H   H109      1.0  0.8019865937732006  0.8642054469677588  0.4240008007464765  1.0000
  H   H110      1.0  0.1980135699281576  0.13579339812784497  0.5759990106637216  1.0000
  H   H111      1.0  0.7192821347438497  0.7944701907314736  0.43993359099686546  1.0000
  H   H112      1.0  0.28071750961103  0.2055328295823031  0.5600672462123626  1.0000
  C   C1        1.0  0.92922129351453  0.6857379114679033  0.4882621016903029  1.0000
  C   C2        1.0  0.07077892971758358  0.3142623246400121  0.511737501671007  1.0000
  C   C3        1.0  0.8346236729916895  0.6185217167126565  0.33711606118276893  1.0000
  C   C4        1.0  0.1653738875334696  0.38148130288135457  0.6628852645668102  1.0000
  C   C5        1.0  0.4693864068329034  0.08651359469303802  0.41280574073352466  1.0000
  C   C6        1.0  0.5306130643070617  0.9134852486727069  0.5871933183856723  1.0000
  C   C7        1.0  0.4481500837651708  0.062253973876330804  0.3633321365837219  1.0000
  C   C8        1.0  0.5518493873747943  0.937744869489414  0.6366669225354683  1.0000
  C   C9        1.0  0.5235011499920929  0.25279330493594887  0.5617141745732112  1.0000
  C   C10       1.0  0.4765002820751221  0.7472027599185721  0.43828652798678286  1.0000
  C   C11       1.0  0.4960320777031413  0.1047490668996289  0.33492933084637133  1.0000
  C   C12       1.0  0.5039646750400804  0.8952511661462522  0.6650699428266192  1.0000
  C   C13       1.0  0.24027393978303732  0.6794535326611424  0.6883285778873542  1.0000
  C   C14       1.0  0.7597218311951508  0.32053973744730496  0.3116672087956828  1.0000
  C   C15       1.0  0.8035782466186487  0.5926747395074441  0.2856956970221559  1.0000
  C   C16       1.0  0.1964214248129323  0.40732897826803327  0.7143062372809792  1.0000
  C   C17       1.0  0.9769795469580272  0.9039688329497864  0.7235284549211655  1.0000
  C   C18       1.0  0.0230219461763284  0.09602862179959709  0.2764713532365873  1.0000
  C   C19       1.0  0.680591087321865  0.3428639571838445  0.8587763475197433  1.0000
  C   C20       1.0  0.3194098856978157  0.6571376733424328  0.14122482961370506  1.0000
  C   C21       1.0  0.7972040336392892  0.09789121926645089  0.7378417504728245  1.0000
  C   C22       1.0  0.20279326399073475  0.9021055371404215  0.2621582808484034  1.0000
  C   C23       1.0  0.2971181448602636  0.8389124707520922  0.8463340298280926  1.0000
  C   C24       1.0  0.7028869973552361  0.16108916009626736  0.15366548387130047  1.0000
  C   C25       1.0  0.34937248618030736  0.0637047501331196  0.6291679571269027  1.0000
  C   C26       1.0  0.6506264053142273  0.9362968779972148  0.3708326790168781  1.0000
  C   C27       1.0  0.7556138137634746  0.40509302328043617  0.7279836968020348  1.0000
  C   C28       1.0  0.2443838379782974  0.5949120814352254  0.27201645893251936  1.0000
  C   C29       1.0  0.19973672668222514  0.9248282724703429  0.684331959043419  1.0000
  C   C30       1.0  0.8002632893445423  0.07516709425638617  0.31566785772400857  1.0000
  C   C31       1.0  0.26240413511042954  0.9922361117786379  0.6723693356275147  1.0000
  C   C32       1.0  0.7375974160182964  0.007762735100513399  0.32763095083468835  1.0000
  C   C33       1.0  0.3867992370888231  0.10799098328443787  0.6753321482094703  1.0000
  C   C34       1.0  0.6131996551739076  0.8920106442871614  0.3246681447576307  1.0000
  C   C35       1.0  0.8942369363330657  0.6608524896422593  0.4361380018102423  1.0000
  C   C36       1.0  0.10575981487377822  0.33914774452107826  0.5638619582160941  1.0000
  C   C37       1.0  0.7226344695672395  0.16095227432555245  0.7250387413312253  1.0000
  C   C38       1.0  0.2773642750209007  0.839045874877172  0.2749615569931051  1.0000
  C   C39       1.0  0.27746715001286754  0.99834011023173  0.6274312669372717  1.0000
  C   C40       1.0  0.7225337673170243  0.0016601264885948998  0.3725684023617006  1.0000
  C   C41       1.0  0.017553381881540986  0.6555124771344223  0.725779184796586  1.0000
  C   C42       1.0  0.9824496765042452  0.3444891529941713  0.27422081744316523  1.0000
  C   C43       1.0  0.6238885965405031  0.4247808647303231  0.9802312790792979  1.0000
  C   C44       1.0  0.3761129205977838  0.5752172897156739  0.019770998879053505  1.0000
  C   C45       1.0  0.9275762743960313  0.5818783943471572  0.4093218271367005  1.0000
  C   C46       1.0  0.07242108199655208  0.4181197536307549  0.5906783393123048  1.0000
  C   C47       1.0  0.6709741416942379  0.19662973143955034  0.562934048022953  1.0000
  C   C48       1.0  0.3290273823577863  0.8033684179779002  0.43706514134533586  1.0000
  C   C49       1.0  0.49994464307029307  0.22505367994391887  0.5126391367200043  1.0000
  C   C50       1.0  0.5000519581573782  0.7749430775267285  0.48736185819357297  1.0000
  C   C51       1.0  0.4646620784712211  0.17820463865740513  0.6896034082833393  1.0000
  C   C52       1.0  0.5353395886462307  0.8217969924812819  0.31039783478777133  1.0000
  C   C53       1.0  0.42476322981823234  0.489263065483847  0.678085625240648  1.0000
  C   C54       1.0  0.5752410443163923  0.5107343883627992  0.32191238760771756  1.0000
  C   C55       1.0  0.5651243865464008  0.18148942296928536  0.48719273133355745  1.0000
  C   C56       1.0  0.43487363840364407  0.8185080270418723  0.5128057176058575  1.0000
  C   C57       1.0  0.8965117751888627  0.5614778892364283  0.36016490095200016  1.0000
  C   C58       1.0  0.10348437006403798  0.43852443167106253  0.6398351958283399  1.0000
  C   C59       1.0  0.6739104664620967  0.47258319117511144  0.07972379125911999  1.0000
  C   C60       1.0  0.3260946726806324  0.5274184419081606  0.9202770951469642  1.0000
  C   C61       1.0  0.7056005311070023  0.4983487700960793  0.13127910153058758  1.0000
  C   C62       1.0  0.2944075584099436  0.5016570418261281  0.8687234835395116  1.0000
  C   C63       1.0  0.9149687610616652  0.9789323660914135  0.7370335898963205  1.0000
  C   C64       1.0  0.08502853349558849  0.021064392550364595  0.26296781413159914  1.0000
  C   C65       1.0  0.47135322389651435  0.07717289844985228  0.2833537351257717  1.0000
  C   C66       1.0  0.528646998567403  0.9228273382167911  0.7166462114122111  1.0000
  C   C67       1.0  0.7745963376322533  0.5049012762044071  0.21496305415909225  1.0000
  C   C68       1.0  0.2254095822157041  0.495102445965287  0.7850387872296735  1.0000
  C   C69       1.0  0.30453016418486806  0.6057595650305597  0.6763803204223534  1.0000
  C   C70       1.0  0.6954683538031502  0.39423301174200287  0.32361566244745177  1.0000
  C   C71       1.0  0.6897765007400665  0.3687523005897617  0.9077739307324177  1.0000
  C   C72       1.0  0.31022236060499614  0.6312486323137774  0.09222698102414739  1.0000
  C   C73       1.0  0.8485682701084869  0.09739464822813909  0.782860249861393  1.0000
  C   C74       1.0  0.15142821359406605  0.9025993261004216  0.21714047479662915  1.0000
  C   C75       1.0  0.49817024138646093  0.4252215943302175  0.6916874377865907  1.0000
  C   C76       1.0  0.5018320988976086  0.57477933548936  0.30831002871488516  1.0000
  C   C77       1.0  0.6523327426965723  0.1670869378264896  0.51377877150518  1.0000
  C   C78       1.0  0.3476687821236411  0.8329112110322328  0.48622007468644307  1.0000
  C   C79       1.0  0.3704175579789606  0.4831780545479774  0.6331179584603817  1.0000
  C   C80       1.0  0.6295838531571006  0.5168173083750246  0.3668789015923152  1.0000
  C   C81       1.0  0.9585289297627497  0.5874694869183655  0.7396216867822715  1.0000
  C   C82       1.0  0.041472044793309196  0.41253214249045556  0.26037880399783114  1.0000
  C   C83       1.0  0.2639321676328662  0.8938683818770767  0.9247105585592335  1.0000
  C   C84       1.0  0.7360713784135412  0.1061283789240051  0.07528937984762506  1.0000
  C   C85       1.0  0.5422030168674041  0.15364023031179394  0.4346314697274208  1.0000
  C   C86       1.0  0.45779428076262013  0.8463565260950714  0.5653685615938071  1.0000
  C   C87       1.0  0.7392722029996293  0.587213312446451  0.20180581896931218  1.0000
  C   C88       1.0  0.2607387278165234  0.4127938890266021  0.7981944195658383  1.0000
  C   C89       1.0  0.30083107083414246  0.5487882512255666  0.6323394309811048  1.0000
  C   C90       1.0  0.6991674749987739  0.4512050224499687  0.3676573058059346  1.0000
  C   C91       1.0  0.288232319994357  0.8874660454755983  0.055322400979498795  1.0000
  C   C92       1.0  0.7117663967488852  0.11253140682415357  0.9446771434275971  1.0000
  C   C93       1.0  0.2583001063596768  0.8646447736463827  0.0061539727678976055  1.0000
  C   C94       1.0  0.7417006617592392  0.13535198582252406  0.9938463882416496  1.0000
  C   C95       1.0  0.5919442138147063  0.19604790257956486  0.4063945902657834  1.0000
  C   C96       1.0  0.40805253892851556  0.8039523304663162  0.5936046834072072  1.0000
  C   C97       1.0  0.32714842884464457  0.8609656982071808  0.8954327138994953  1.0000
  C   C98       1.0  0.6728538774489933  0.1390345391792351  0.10456674409813617  1.0000
  C   C99       1.0  0.021521251834805393  0.7186682857526632  0.5059858949923138  1.0000
  C   C100      1.0  0.9784783646751761  0.2813340376581408  0.49401418829967253  1.0000
  C   C101      1.0  0.6114859032424532  0.3948008826852599  0.9276693542789614  1.0000
  C   C102      1.0  0.3885163705971308  0.6051986611505384  0.07233140886147277  1.0000
  C   C103      1.0  0.5673395340219258  0.1713642881534625  0.35693520345289187  1.0000
  C   C104      1.0  0.43265730609694225  0.82863803280771  0.6430646160884377  1.0000
  C   C105      1.0  0.8354681642735712  0.47302809551154457  0.7407451221565606  1.0000
  C   C106      1.0  0.16453220432855184  0.52697562064143  0.2592555053775385  1.0000
  C   C107      1.0  0.05324963383524311  0.743173700234962  0.5547574482557209  1.0000
  C   C108      1.0  0.9467457894749812  0.25682792315714653  0.4452418286697151  1.0000
  C   C109      1.0  0.9161796964152057  0.029654308446360696  0.7823551998434295  1.0000
  C   C110      1.0  0.08381476375657118  0.9703410556160177  0.2176454621293756  1.0000
  C   C111      1.0  0.6658802853383463  0.5134408694313065  0.0016752707964258027  1.0000
  C   C112      1.0  0.3341212959398518  0.4865586726746328  0.9983247400529932  1.0000
  C   C113      1.0  0.29268341729799363  0.9191408107751966  0.977193003912731  1.0000
  C   C114      1.0  0.70731949494958  0.08085733986706597  0.02280631733089683  1.0000
  C   C115      1.0  0.6273594575912398  0.3870992555013686  0.057891349077642894  1.0000
  C   C116      1.0  0.37264423152060283  0.6129009870209572  0.9421106430320233  1.0000
  C   C117      1.0  0.6000888288757833  0.363014656214979  0.00837642910808967  1.0000
  C   C118      1.0  0.3999149189986185  0.6369869778783864  0.9916256981293611  1.0000
  C   C119      1.0  0.8025213398945751  0.696831219803613  0.3640849005740349  1.0000
  C   C120      1.0  0.19747610387365463  0.3031690160895835  0.6359158117433096  1.0000
  C   C121      1.0  0.9100697652589175  0.7037883907719475  0.5700137593940012  1.0000
  C   C122      1.0  0.08993048735447928  0.2962125411214913  0.42998591153119736  1.0000
  C   C123      1.0  0.8308064524460617  0.7185776207570739  0.4135093206601893  1.0000
  C   C124      1.0  0.16919231921878009  0.28142122590735125  0.5864920747580554  1.0000
  C   C125      1.0  0.6894918976141182  0.5364042415156048  0.051218644469194885  1.0000
  C   C126      1.0  0.3105103731527024  0.4635953045551063  0.9487834913779307  1.0000
  C   C127      1.0  0.1471108679085873  0.87987415052374  0.8532185670253581  1.0000
  C   C128      1.0  0.8528920737202694  0.12012469590404608  0.14678082178215127  1.0000
  C   C129      1.0  0.35326832625358406  0.9973776200131609  0.9980042200655175  1.0000
  C   C130      1.0  0.6467311410454215  0.0026212261462177  0.001996554937043994  1.0000
  C   C131      1.0  0.4070823980380495  0.9960848340565748  0.21402677197994538  1.0000
  C   C132      1.0  0.5929191244775894  0.003913316478325199  0.7859731037416962  1.0000
  C   C133      1.0  0.6847398859019903  0.5829743018742519  0.9720449977936736  1.0000
  C   C134      1.0  0.31525894759818124  0.41702593412630756  0.027955160045657085  1.0000
  C   C135      1.0  0.4147279747723473  0.03696412534340959  0.4405459379422607  1.0000
  C   C136      1.0  0.5852699906469495  0.9630319336554363  0.5594527190460424  1.0000
  C   C137      1.0  0.8730905396020174  0.6788025448404937  0.5216147442438765  1.0000
  C   C138      1.0  0.12690551827523683  0.321197688151706  0.47838480666811717  1.0000
  C   C139      1.0  0.1720165906400268  0.902918594391913  0.9024149315362988  1.0000
  C   C140      1.0  0.8279877074985292  0.09707955915134647  0.09758555111267239  1.0000
  C   C141      1.0  0.9551577728660873  0.5753189200812441  0.785351280165976  1.0000
  C   C142      1.0  0.04484045544833749  0.42468340210474753  0.21464867125068565  1.0000
  C   C143      1.0  0.5458098722277711  0.2730572575899116  0.9860150260188402  1.0000
  C   C144      1.0  0.45419179565788426  0.7269443729900472  0.013985873875590513  1.0000
  C   C145      1.0  0.35077787637238333  0.963269771310628  0.07673189229439706  1.0000
  C   C146      1.0  0.6492194784838146  0.036728377784733396  0.923268960507954  1.0000
  C   C147      1.0  0.6683835355509871  0.26974324068094546  0.42681003273514045  1.0000
  C   C148      1.0  0.33161185607338683  0.7302576886018242  0.5731902061564255  1.0000
  C   C149      1.0  0.45182820022680653  0.0650763055229078  0.19739124413680992  1.0000
  C   C150      1.0  0.5481719634745514  0.9349225395727031  0.8026085672733956  1.0000
  C   C151      1.0  0.8839647728467668  0.5107845696908057  0.7860215402742836  1.0000
  C   C152      1.0  0.11603426709055502  0.4892205362496752  0.2139787473356022  1.0000
  C   C153      1.0  0.38654365078480873  0.06158310242223309  0.9690559444410167  1.0000
  C   C154      1.0  0.6134544020101274  0.9384150444919043  0.030943258415632592  1.0000
  C   C155      1.0  0.992747426631233  0.5159205893713049  0.4314138132979507  1.0000
  C   C156      1.0  0.007249990060294898  0.48407894906019056  0.5685858019254864  1.0000
  C   C157      1.0  0.1928216231339803  0.7812551477714605  0.9850133987795144  1.0000
  C   C158      1.0  0.8071778480059917  0.2187436955942843  0.014985660339675584  1.0000
  C   C159      1.0  0.38137678828061167  0.0180334348582463  0.04745092065279978  1.0000
  C   C160      1.0  0.6186206585603884  0.9819667988000444  0.9525484189578532  1.0000
  C   C161      1.0  0.38280836188302897  0.9867918432277775  0.12812129041383707  1.0000
  C   C162      1.0  0.6171890254272225  0.0132069994182018  0.8718782572457113  1.0000
  C   C163      1.0  0.522408676242442  0.36570816342354107  0.8476267052421134  1.0000
  C   C164      1.0  0.47759371435407166  0.634294164113072  0.15237467133054847  1.0000
  C   C165      1.0  0.5261081714578139  0.39197553132792967  0.896446380532218  1.0000
  C   C166      1.0  0.4738941309948572  0.6080247088521205  0.10355479334877767  1.0000
  C   C167      1.0  0.7941175855877132  0.8039658231075179  0.44064863284691563  1.0000
  C   C168      1.0  0.2058819404738514  0.19603441462290758  0.5593522772834233  1.0000
  S   S1        1.0  0.39169583980367406  0.5768257250533677  0.7188785076398216  1.0000
  S   S2        1.0  0.6083043021983343  0.42317241866944494  0.28111780443975215  1.0000
  S   S3        1.0  0.8322424486948562  0.015804471202230296  0.6951453287707918  1.0000
  S   S4        1.0  0.16775695907340088  0.9841929839448368  0.30485565428066497  1.0000
  S   S5        1.0  0.8763987926007245  0.517846210443551  0.6976605513527545  1.0000
  S   S6        1.0  0.12360218195533432  0.4821554189652772  0.30233993942734827  1.0000
  S   S7        1.0  0.33507116058155617  0.06798265038290909  0.7164253299715353  1.0000
  S   S8        1.0  0.6649290309647001  0.9320168916156747  0.2835752353559045  1.0000
  S   S9        1.0  0.7516106680961697  0.6736950097256056  0.25183460278284997  1.0000
  S   S10       1.0  0.248399536936347  0.3263114970257063  0.748166531780768  1.0000
  S   S11       1.0  0.757103926911874  0.4173141298222518  0.16506700082196346  1.0000
  S   S12       1.0  0.24289849076134118  0.5826888951760694  0.8349354728446056  1.0000
  S   S13       1.0  0.5120675965809269  0.1430359647691545  0.24550357449513166  1.0000
  S   S14       1.0  0.4879299082544364  0.8569656610189044  0.7544962434199787  1.0000
  S   S15       1.0  0.34616246955101093  0.9189393211670663  0.16593319302930354  1.0000
  S   S16       1.0  0.6538383279491811  0.08105813408736398  0.8340672355441324  1.0000
  N   N1        1.0  0.9987047518758841  0.7355157008963643  0.5863175348537906  1.0000
  N   N2        1.0  0.0012955602682609005  0.26448662200938594  0.4136819280225195  1.0000
  N   N3        1.0  0.6078403744127171  0.23928268456931076  0.5866152640301718  1.0000
  N   N4        1.0  0.39216175482505367  0.7607133786627073  0.41338413176078587  1.0000
  N   N5        1.0  0.5981758310510514  0.3420085031893407  0.8290993646407256  1.0000
  N   N6        1.0  0.40182378315434863  0.657993821897641  0.17090174818128645  1.0000
  N   N7        1.0  0.20866072393400964  0.8484776449689729  0.8255917442517811  1.0000
  N   N8        1.0  0.791342971323381  0.15152259308353414  0.17440750244450237  1.0000
  N   N9        1.0  0.8113729894734475  0.5082571142210668  0.26129553196033567  1.0000
  N   N10       1.0  0.18862731882973086  0.4917452114783244  0.7387056467993316  1.0000
  N   N11       1.0  0.7022590124633935  0.5841137006206836  0.1552904466236242  1.0000
  N   N12       1.0  0.2977524640077578  0.415890023654633  0.8447102063830838  1.0000
  N   N13       1.0  0.41733211123443686  0.0031290880371344005  0.26149909529725324  1.0000
  N   N14       1.0  0.582669440662478  0.9968697582832888  0.7385008479882769  1.0000
  N   N15       1.0  0.4385320262210541  0.060239849969150286  0.14980512753969316  1.0000
  N   N16       1.0  0.5614653603210016  0.9397589932355571  0.8501947632965283  1.0000
  O   O1        1.0  0.687749689171994  0.20463971096467756  0.7591882457021127  1.0000
  O   O2        1.0  0.31224911494689417  0.7953598292503657  0.24081184457332225  1.0000
  O   O3        1.0  0.9663041178808952  0.866347094626917  0.6795882635624081  1.0000
  O   O4        1.0  0.0336989660452005  0.13365523408083388  0.32041352212458907  1.0000
  O   O5        1.0  0.25848812208744226  0.7293132283733995  0.7301912663345431  1.0000
  O   O6        1.0  0.7415090950806654  0.2706814350896352  0.269805130528283  1.0000
  O   O7        1.0  0.48510308986405437  0.21840829149141433  0.7332361520273024  1.0000
  O   O8        1.0  0.5148951090690943  0.781593334909047  0.26676373182546337  1.0000
  O   O9        1.0  0.144835557310266  0.8746682787331252  0.6495927830407737  1.0000
  O   O10       1.0  0.8551680188856138  0.12532917729475201  0.3504068797533008  1.0000
  O   O11       1.0  0.7331239148947546  0.3652877313124917  0.6842591185510682  1.0000
  O   O12       1.0  0.2668718300731641  0.6347215468377951  0.3157415879305033  1.0000
  O   O13       1.0  0.0833920854712744  0.6967807973085056  0.7578784636156256  1.0000
  O   O14       1.0  0.9166095236518145  0.3032194417004135  0.24212230115103484  1.0000
  O   O15       1.0  0.7007698175043372  0.1671042487226657  0.6812030961682891  1.0000
  O   O16       1.0  0.299231009377138  0.8328939023172808  0.31879739996903567  1.0000
  O   O17       1.0  0.5174841356121007  0.41728507383633223  0.7352624165237313  1.0000
  O   O18       1.0  0.48252170377395487  0.5827165553895242  0.26473579040662537  1.0000
  O   O19       1.0  0.17162760171758148  0.6866571157434861  0.6554228176440374  1.0000
  O   O20       1.0  0.8283694670077465  0.3133340699093948  0.34457392775268386  1.0000
  O   O21       1.0  0.7160344365936453  0.39302327975811824  0.7617820590799695  1.0000
  O   O22       1.0  0.28396451289525965  0.6069797405019769  0.23821905536826893  1.0000
  O   O23       1.0  0.20763782615716045  0.9213683142293262  0.7283235699535167  1.0000
  O   O24       1.0  0.7923616179061027  0.07862983167471778  0.2716743920717661  1.0000
  O   O25       1.0  0.9960109960388052  0.6681821593350462  0.6828329227035821  1.0000
  O   O26       1.0  0.0039939954293331005  0.3318159953793511  0.3171679690597244  1.0000
  O   O27       1.0  0.03704053275345129  0.8837268330557035  0.7573150182670432  1.0000
  O   O28       1.0  0.9629596874058918  0.11627340528712439  0.2426859578009583  1.0000
  O   O29       1.0  0.5338635422760873  0.38185236566852143  0.6577843231951872  1.0000
  O   O30       1.0  0.46613720414347876  0.6181436924275941  0.34221253848372857  1.0000
  O   O31       1.0  0.5045189427893676  0.19195726348691974  0.6561658304314475  1.0000
  O   O32       1.0  0.4954819111688095  0.8080415850147344  0.34383576279978445  1.0000
