data_image0
_chemical_formula_structural       Zn2H48C44N8O8
_chemical_formula_sum              "Zn2 H48 C44 N8 O8"
_cell_length_a       8.797998435900942
_cell_length_b       10.786090558229184
_cell_length_c       14.126
_cell_angle_alpha    75.23159577778142
_cell_angle_beta     77.57404100662626
_cell_angle_gamma    79.89247842606181

_space_group_name_H-M_alt    "P 1"
_space_group_IT_number       1

loop_
  _space_group_symop_operation_xyz
  'x, y, z'

loop_
  _atom_site_type_symbol
  _atom_site_label
  _atom_site_symmetry_multiplicity
  _atom_site_fract_x
  _atom_site_fract_y
  _atom_site_fract_z
  _atom_site_occupancy
  Zn  Zn1       1.0  0.6008189974377557  0.0747774636284149  0.19208040096869186  1.0000
  Zn  Zn2       1.0  0.39918295582543806  0.9252174044597652  0.8079172213202739  1.0000
  H   H1        1.0  0.41329942626560967  0.3147783974147913  0.29780847037237385  1.0000
  H   H2        1.0  0.5866909315062543  0.685238705155534  0.7021955810464108  1.0000
  H   H3        1.0  0.32742539691346906  0.44263730367394055  0.4306820158441981  1.0000
  H   H4        1.0  0.672575021576641  0.5573749653133149  0.5693216280775815  1.0000
  H   H5        1.0  0.4198585046298647  0.3672701429101792  0.5912316762751715  1.0000
  H   H6        1.0  0.5801414996015309  0.6327372924939922  0.4087722560674081  1.0000
  H   H7        1.0  0.6046905059229175  0.1647787805149221  0.6260717074151572  1.0000
  H   H8        1.0  0.3953012366965112  0.8352218878729473  0.3739304017869359  1.0000
  H   H9        1.0  0.7709759317858342  0.9005796648016612  0.3620923443427557  1.0000
  H   H10       1.0  0.22902940658278234  0.0994384044852836  0.637899600444712  1.0000
  H   H11       1.0  0.826958825848287  0.8384033522539766  0.5366917548584667  1.0000
  H   H12       1.0  0.17301500869962888  0.1616002162837376  0.4633093581938326  1.0000
  H   H13       1.0  0.7191410413845746  0.9276119615159147  0.6236458501664899  1.0000
  H   H14       1.0  0.2808455603951074  0.0723993407547212  0.3763548782010773  1.0000
  H   H15       1.0  0.528892990663202  0.1115590974081968  0.9771097156377593  1.0000
  H   H16       1.0  0.4711258211928425  0.8884396375464405  0.02287073635789481  1.0000
  H   H17       1.0  0.5094552557541335  0.215392195626734  0.801158143710566  1.0000
  H   H18       1.0  0.49057373122782616  0.7846084727611355  0.19882198414018862  1.0000
  H   H19       1.0  0.588122749323702  0.43286863227610445  0.7232123880753463  1.0000
  H   H20       1.0  0.4119066519169722  0.5671368696948349  0.2767752384139257  1.0000
  H   H21       1.0  0.6918366672302625  0.5560959992312391  0.8197854291358767  1.0000
  H   H22       1.0  0.3081697561348733  0.4439075693064751  0.18021414809609843  1.0000
  H   H23       1.0  0.7182860875303446  0.3553592274927908  0.17968741585626455  1.0000
  H   H24       1.0  0.281715636917518  0.6446221065627711  0.8203142872153748  1.0000
  H   H25       1.0  0.7554662087868705  0.5865659402295833  0.08495485742417236  1.0000
  H   H26       1.0  0.244512766600785  0.4134269944253575  0.9150547156074964  1.0000
  H   H27       1.0  0.7103322112575583  0.6387589702908372  0.9632614868447361  1.0000
  H   H28       1.0  0.28965708918153865  0.3612349310807232  0.03674580636936751  1.0000
  H   H29       1.0  0.15327701260327592  0.9640320432815698  0.16314104011745909  1.0000
  H   H30       1.0  0.8467369937819313  0.03596765838968  0.8368377439894276  1.0000
  H   H31       1.0  0.11988929943401419  0.1191768243369324  0.08479864227117422  1.0000
  H   H32       1.0  0.8801202802212061  0.8808364113669284  0.9151957986695577  1.0000
  H   H33       1.0  0.027035052212873698  0.0929739704786243  0.210975234453727  1.0000
  H   H34       1.0  0.9729635948347166  0.9070121971600145  0.7890202769108543  1.0000
  H   H35       1.0  0.031094625857086604  0.8597310542212142  0.0469548758092131  1.0000
  H   H36       1.0  0.9689191161949253  0.1402628471503462  0.9530583446844857  1.0000
  H   H37       1.0  0.9449758267253258  0.712398608463019  0.09085707456414133  1.0000
  H   H38       1.0  0.05503513777745889  0.2875981930583933  0.9091509982785553  1.0000
  H   H39       1.0  0.061532314775661213  0.7517024058921749  0.16315643499751786  1.0000
  H   H40       1.0  0.938474893734941  0.2482885953295408  0.8368568097677669  1.0000
  H   H41       1.0  0.9874475296008  0.645169268167038  0.948505603424806  1.0000
  H   H42       1.0  0.012538843363550711  0.3548285000709797  0.0515119481861532  1.0000
  H   H43       1.0  0.9104013858020181  0.0882467262296984  0.5695315677938027  1.0000
  H   H44       1.0  0.089595312213774  0.9117520087249389  0.43046388239403655  1.0000
  H   H45       1.0  0.9639214940198217  0.5215842160642339  0.8943180255153251  1.0000
  H   H46       1.0  0.0360727262977818  0.478415485607016  0.1056938505975964  1.0000
  H   H47       1.0  0.0018656458117120957  0.929774506584394  0.6097369233245828  1.0000
  H   H48       1.0  0.9981263966587618  0.0702242283702432  0.39025702704527276  1.0000
  C   C1        1.0  0.5643239699282533  0.1736909409915768  0.385963055808304  1.0000
  C   C2        1.0  0.4356577119729224  0.8263145609793696  0.6140401688052891  1.0000
  C   C3        1.0  0.4595728665289087  0.2867880845347486  0.36683988918218097  1.0000
  C   C4        1.0  0.5404204542355585  0.7132174174361907  0.6331624835322245  1.0000
  C   C5        1.0  0.41148045122191945  0.3552876904632569  0.4418614830561225  1.0000
  C   C6        1.0  0.5885055863735289  0.6447197449409146  0.5581457368918167  1.0000
  C   C7        1.0  0.464903327275735  0.313047974673367  0.5334961891248043  1.0000
  C   C8        1.0  0.5350939349242906  0.6869546271477346  0.46650692777234326  1.0000
  C   C9        1.0  0.5687297246884455  0.2001722092350988  0.5536707440441475  1.0000
  C   C10       1.0  0.4312541350598665  0.7998342594524601  0.446332000535925  1.0000
  C   C11       1.0  0.6167661392343148  0.131733506453358  0.47836942223121787  1.0000
  C   C12       1.0  0.3832184701416139  0.868268128651124  0.5216348706172554  1.0000
  C   C13       1.0  0.7121718285137888  0.9885943790436826  0.38522250930723356  1.0000
  C   C14       1.0  0.28782059269754257  0.0114169232269532  0.6147731916666006  1.0000
  C   C15       1.0  0.7969636831186832  0.9358561208113869  0.5510240118923022  1.0000
  C   C16       1.0  0.20302032655515487  0.0641493811595595  0.448975361186136  1.0000
  C   C17       1.0  0.9439826959946274  0.9933322571753748  0.5499559173421105  1.0000
  C   C18       1.0  0.05600570489133359  0.006667444495874999  0.4500397487300276  1.0000
  C   C19       1.0  0.6168715000254891  0.2773210287208983  0.9980251060450483  1.0000
  C   C20       1.0  0.38312534791582215  0.7226767395171265  0.001966972641156358  1.0000
  C   C21       1.0  0.5624864910314074  0.2077754354146109  0.9437036005848043  1.0000
  C   C22       1.0  0.43752781520483824  0.7922223328234138  0.05627905923606846  1.0000
  C   C23       1.0  0.553132532840948  0.2666861792357409  0.844864765602594  1.0000
  C   C24       1.0  0.44688391572458375  0.7333202894518251  0.1551194532095438  1.0000
  C   C25       1.0  0.5986812621624367  0.3906037818542174  0.800643999942757  1.0000
  C   C26       1.0  0.4013383782110367  0.6094046202665737  0.1993464939285445  1.0000
  C   C27       1.0  0.6559074515547394  0.46037365341525327  0.8530686208980995  1.0000
  C   C28       1.0  0.344101299583059  0.539629915122454  0.14692922854217727  1.0000
  C   C29       1.0  0.6628376936524204  0.4012560322384502  0.9524672201943288  1.0000
  C   C30       1.0  0.3371604681007412  0.5987407692829549  0.0475298259826857  1.0000
  C   C31       1.0  0.6914133191377019  0.3473954160157646  0.11015324700538548  1.0000
  C   C32       1.0  0.308584878133317  0.6525936517727189  0.8898445918047813  1.0000
  C   C33       1.0  0.7756203864558628  0.5620084380505546  0.012019598952491644  1.0000
  C   C34       1.0  0.2243646726966304  0.4379902969040828  0.9879887376807588  1.0000
  C   C35       1.0  0.9496682011928854  0.5486484144268005  0.9661649821359362  1.0000
  C   C36       1.0  0.050315993924329  0.4513483870946047  0.03385375742301731  1.0000
  C   C37       1.0  0.2746649340276193  0.1105933475094858  0.18545624804429653  1.0000
  C   C38       1.0  0.7253405108945683  0.8894015205786872  0.8145437379585019  1.0000
  C   C39       1.0  0.13535185267851088  0.0676923975547155  0.16063853049204374  1.0000
  C   C40       1.0  0.8646599758595526  0.9323063373999217  0.8393555998525175  1.0000
  C   C41       1.0  0.8299410483985739  0.8589190122643443  0.16860356575605803  1.0000
  C   C42       1.0  0.17007633523794397  0.1410739223906035  0.8314107706932959  1.0000
  C   C43       1.0  0.9767676338328641  0.7934403957587151  0.11314778987320291  1.0000
  C   C44       1.0  0.023247272105471898  0.2065535056128454  0.8868631508956781  1.0000
  N   N1        1.0  0.6271316062849053  0.0817677914738084  0.32937168861194277  1.0000
  N   N2        1.0  0.3728609648519452  0.9182425440802148  0.6706234725181945  1.0000
  N   N3        1.0  0.7093529083517254  0.0137844122178805  0.4749001495089403  1.0000
  N   N4        1.0  0.2906373705303267  0.986218189603214  0.5250982399605348  1.0000
  N   N5        1.0  0.6359737718505087  0.2472609755674497  0.0970090545426245  1.0000
  N   N6        1.0  0.36403317232691285  0.7527242253545694  0.9029812855362779  1.0000
  N   N7        1.0  0.7092813751173352  0.4425096970807161  0.026068276651436382  1.0000
  N   N8        1.0  0.2907149086397354  0.5574842042908443  0.973932417358597  1.0000
  O   O1        1.0  0.3992268328150601  0.0248040149159436  0.187591053520741  1.0000
  O   O2        1.0  0.6007702005696273  0.9751850528725469  0.8124168520735681  1.0000
  O   O3        1.0  0.26566142828566797  0.2208280431546896  0.20145111175772001  1.0000
  O   O4        1.0  0.7343428527501885  0.7791668249334833  0.7985461985685094  1.0000
  O   O5        1.0  0.7770448198558739  0.9731027452831427  0.12162284460027442  1.0000
  O   O6        1.0  0.22294436617555394  0.0268843890721158  0.8783787019458416  1.0000
  O   O7        1.0  0.7684250731633853  0.8026106695716635  0.2537082192728235  1.0000
  O   O8        1.0  0.2316040637441006  0.1973890320995864  0.7463152594322366  1.0000
