data_image0
_chemical_formula_structural       Cu4H36C44N16
_chemical_formula_sum              "Cu4 H36 C44 N16"
_cell_length_a       10.52808190518424
_cell_length_b       10.872961413569845
_cell_length_c       13.100133572712142
_cell_angle_alpha    89.99892698319503
_cell_angle_beta     105.14526204673456
_cell_angle_gamma    90.00066908661687

_space_group_name_H-M_alt    "P 1"
_space_group_IT_number       1

loop_
  _space_group_symop_operation_xyz
  'x, y, z'

loop_
  _atom_site_type_symbol
  _atom_site_label
  _atom_site_symmetry_multiplicity
  _atom_site_fract_x
  _atom_site_fract_y
  _atom_site_fract_z
  _atom_site_occupancy
  Cu  Cu1       1.0  0.42435118426188023  0.5901051890134071  0.4650300781011722  1.0000
  Cu  Cu2       1.0  0.5756523821287943  0.0901071357586218  0.034968466985382876  1.0000
  Cu  Cu3       1.0  0.5756626138871114  0.4098903524851921  0.5349696377243374  1.0000
  Cu  Cu4       1.0  0.42433675221784034  0.90989208447715  0.9650287987763518  1.0000
  H   H1        1.0  0.9308151927120749  0.6890988240420413  0.274179278536856  1.0000
  H   H2        1.0  0.0691635978145797  0.18911567493026377  0.2258083240940962  1.0000
  H   H3        1.0  0.06918746503199462  0.310892118698689  0.7258324570397504  1.0000
  H   H4        1.0  0.9308177993766974  0.810903779025168  0.774181107220677  1.0000
  H   H5        1.0  0.1642850028077731  0.6797195914952923  0.38082100940340513  1.0000
  H   H6        1.0  0.8356949875244766  0.17972817128780602  0.11915403342469935  1.0000
  H   H7        1.0  0.8357220085559122  0.3202796288819059  0.6191726111120344  1.0000
  H   H8        1.0  0.16428757749636702  0.8202903630505674  0.8808272604320064  1.0000
  H   H9        1.0  0.10538188705823612  0.2920681655919282  0.42588888219714954  1.0000
  H   H10       1.0  0.8946112607061775  0.7920745910783328  0.07410789879045136  1.0000
  H   H11       1.0  0.8946365963595042  0.7079301349429344  0.5741225676102457  1.0000
  H   H12       1.0  0.10537101998215802  0.2079338262782642  0.9258863105386295  1.0000
  H   H13       1.0  0.8764410576791519  0.31748078144194386  0.3185895291197838  1.0000
  H   H14       1.0  0.1235490560710275  0.8174963318948516  0.1814183803702676  1.0000
  H   H15       1.0  0.1235690530284899  0.6825184385280495  0.6814429560961627  1.0000
  H   H16       1.0  0.8764300556141862  0.1825203627566978  0.8185850467058982  1.0000
  H   H17       1.0  0.2349418273179182  0.3572986924339858  0.5857844475762164  1.0000
  H   H18       1.0  0.7650512690688771  0.8573008089149072  0.9142126743056307  1.0000
  H   H19       1.0  0.765072904551552  0.6427005278931476  0.4142177669688748  1.0000
  H   H20       1.0  0.2349348802205853  0.14270392957030964  0.08578545220026966  1.0000
  H   H21       1.0  0.3898007913643866  0.29444807824202  0.9380860977857352  1.0000
  H   H22       1.0  0.6102378885242247  0.7944211875550876  0.5619313714876312  1.0000
  H   H23       1.0  0.6102139070987462  0.7055621786199495  0.06191763613806239  1.0000
  H   H24       1.0  0.3897718570408201  0.20557067502140566  0.4380727842373062  1.0000
  H   H25       1.0  0.3164409188750171  0.39954420857008455  0.7638971771436684  1.0000
  H   H26       1.0  0.683578832512417  0.8995262997984029  0.7361151369695945  1.0000
  H   H27       1.0  0.6835797497292474  0.6004623694940819  0.23610483523846423  1.0000
  H   H28       1.0  0.3164239924811413  0.1004692415895008  0.26388900128011966  1.0000
  H   H29       1.0  0.6331298384185189  0.21098935955041748  0.6727220980952566  1.0000
  H   H30       1.0  0.3668584403979906  0.7109879316572574  0.8272679097173777  1.0000
  H   H31       1.0  0.36686911788679316  0.7889859481803256  0.3272781231509824  1.0000
  H   H32       1.0  0.6331357805659082  0.2890112886784594  0.17272285654170355  1.0000
  H   H33       1.0  0.6916794420084642  0.11382378125907171  0.8511069590825499  1.0000
  H   H34       1.0  0.3083239210476236  0.6138182300628757  0.6488856911881269  1.0000
  H   H35       1.0  0.3083165626962838  0.8861598038758275  0.14889260342913957  1.0000
  H   H36       1.0  0.6916732682702645  0.38618099029081066  0.35110497401615254  1.0000
  C   C1        1.0  0.9725572134500311  0.6019319915370503  0.3093946295193106  1.0000
  C   C2        1.0  0.027423943749596412  0.1019399407868633  0.1905926163883294  1.0000
  C   C3        1.0  0.0274474455211973  0.3980663089279517  0.690616025661612  1.0000
  C   C4        1.0  0.9725594378819056  0.8980693963443543  0.8093964943867887  1.0000
  C   C5        1.0  0.1027704745705691  0.5973683032958378  0.3688586870662646  1.0000
  C   C6        1.0  0.8972137515155225  0.09737548120210701  0.13112244612066354  1.0000
  C   C7        1.0  0.8972354024201437  0.4026345958531224  0.631141551428527  1.0000
  C   C8        1.0  0.10276976392227512  0.9026393742721198  0.8688605867796041  1.0000
  C   C9        1.0  0.1548114597094639  0.48554481905674873  0.416351716144156  1.0000
  C   C10       1.0  0.8451752936055923  0.9855532334796208  0.08363746446391918  1.0000
  C   C11       1.0  0.8451982858589346  0.5144479632323782  0.5836524395741165  1.0000
  C   C12       1.0  0.15481197338382197  0.014461621914975402  0.9163548036919804  1.0000
  C   C13       1.0  0.07016464075287128  0.3827905854386202  0.39605144655892127  1.0000
  C   C14       1.0  0.9298261829578537  0.882803196851171  0.10394487989419333  1.0000
  C   C15       1.0  0.9298489232903933  0.6172104742181972  0.6039589054375581  1.0000
  C   C16       1.0  0.07015906612468112  0.11721625707502172  0.8960492283000788  1.0000
  C   C17       1.0  0.941842112819444  0.39730007910236514  0.3345531827035444  1.0000
  C   C18       1.0  0.05814866610686661  0.8973152353371036  0.1654497709398512  1.0000
  C   C19       1.0  0.05816241234884962  0.6026936227322538  0.6654635503455565  1.0000
  C   C20       1.0  0.9418373996064417  0.10270053965774652  0.8345521541328221  1.0000
  C   C21       1.0  0.3142240101833025  0.3989256507476355  0.5570663722311052  1.0000
  C   C22       1.0  0.685766538189668  0.8989234793042585  0.9429249291326085  1.0000
  C   C23       1.0  0.6857878536684724  0.6010726498992868  0.4429313849993333  1.0000
  C   C24       1.0  0.3142227299498543  0.1010775804239827  0.0570662587809494  1.0000
  C   C25       1.0  0.4407759800153031  0.278018373473202  0.8766251627358199  1.0000
  C   C26       1.0  0.5592537253113222  0.7780015160793711  0.6233905686354575  1.0000
  C   C27       1.0  0.559243570882309  0.7219762482563042  0.12338270800964315  1.0000
  C   C28       1.0  0.44075021733192427  0.22199034652837918  0.3766077113642652  1.0000
  C   C29       1.0  0.39898486600264965  0.3350312706696955  0.7789105589800299  1.0000
  C   C30       1.0  0.601027695437466  0.8350127520724869  0.7210935562313024  1.0000
  C   C31       1.0  0.6010299327666146  0.6649697891163058  0.22108861663430449  1.0000
  C   C32       1.0  0.39897037739758906  0.1649809499581849  0.2789018869472883  1.0000
  C   C33       1.0  0.4686664003547207  0.3129308924746539  0.7020443783168344  1.0000
  C   C34       1.0  0.5313263058223966  0.8129181789032459  0.7979564258246012  1.0000
  C   C35       1.0  0.5313414945428789  0.6870674081427026  0.29795402013958483  1.0000
  C   C36       1.0  0.4686636953248282  0.18707736242637915  0.20204637762746808  1.0000
  C   C37       1.0  0.5770479761333077  0.23224205549442437  0.7298712271207533  1.0000
  C   C38       1.0  0.42295308069363113  0.7322397551380535  0.7701289241311784  1.0000
  C   C39       1.0  0.4229656547393859  0.7677415296559079  0.2701360860849817  1.0000
  C   C40       1.0  0.5770331521753534  0.26775486655016323  0.22986540380127707  1.0000
  C   C41       1.0  0.6102014853469627  0.1787718259640201  0.8290793375874442  1.0000
  C   C42       1.0  0.38980927148184463  0.6787602812501207  0.6709123885726738  1.0000
  C   C43       1.0  0.38980247402290763  0.8212209563647547  0.1709181826762531  1.0000
  C   C44       1.0  0.6101908360034615  0.3212343405331666  0.3290804547981878  1.0000
  N   N1        1.0  0.8905160176951059  0.5044780493266999  0.2915935927193019  1.0000
  N   N2        1.0  0.10946426224379022  0.0044911402548919  0.20840266331057214  1.0000
  N   N3        1.0  0.10949229245795067  0.49551197359454596  0.7084308561533915  1.0000
  N   N4        1.0  0.8905111480428757  0.9955209559383039  0.7915892493552262  1.0000
  N   N5        1.0  0.2842613351031957  0.4790774696744009  0.47725428825405186  1.0000
  N   N6        1.0  0.7157322247520668  0.9790774669427339  0.022738042543238586  1.0000
  N   N7        1.0  0.7157592163979488  0.5209180717793346  0.5227530423135747  1.0000
  N   N8        1.0  0.2842522243425591  0.020923592819947608  0.977247489203279  1.0000
  N   N9        1.0  0.4388529193105627  0.3703080665897928  0.6040869955274741  1.0000
  N   N10       1.0  0.5611373369376906  0.8703055066638615  0.8959085193773146  1.0000
  N   N11       1.0  0.5611549588403051  0.6296837960307187  0.39591216270496676  1.0000
  N   N12       1.0  0.4388537651694548  0.1296955530035646  0.10408918548745308  1.0000
  N   N13       1.0  0.5447724998953518  0.20109850812518465  0.9031558290863088  1.0000
  N   N14       1.0  0.4552469734600919  0.7010819685880422  0.5968512245746921  1.0000
  N   N15       1.0  0.4552333603620439  0.7989016318774703  0.096845169157838  1.0000
  N   N16       1.0  0.54475401756919  0.2989144925733172  0.4031463967171546  1.0000
