data_image0
_chemical_formula_structural       AlH6C21NO6F6
_chemical_formula_sum              "Al1 H6 C21 N1 O6 F6"
_cell_length_a       4.131773242052303
_cell_length_b       13.510708988332748
_cell_length_c       13.510859182332348
_cell_angle_alpha    120.00001305751648
_cell_angle_beta     89.99952302836512
_cell_angle_gamma    89.99996222266502

_space_group_name_H-M_alt    "P 1"
_space_group_IT_number       1

loop_
  _space_group_symop_operation_xyz
  'x, y, z'

loop_
  _atom_site_type_symbol
  _atom_site_label
  _atom_site_symmetry_multiplicity
  _atom_site_fract_x
  _atom_site_fract_y
  _atom_site_fract_z
  _atom_site_occupancy
  Al  Al1       1.0  7.240867226700001e-06  0.4999942535420061  0.49999823986998143  1.0000
  H   H1        1.0  0.2167687473325373  0.027543075138183326  0.8990074038961564  1.0000
  H   H2        1.0  0.7832313968477466  0.027546893015646338  0.6285395415480578  1.0000
  H   H3        1.0  0.7832290645571974  0.10099156142967305  0.9724489256724382  1.0000
  H   H4        1.0  0.2167650023010097  0.37146031658078715  0.972451708644513  1.0000
  H   H5        1.0  0.7832612729587894  0.37144826765929645  0.8990001917012193  1.0000
  H   H6        1.0  0.21673121639697263  0.10099629860615508  0.6285523739864374  1.0000
  C   C1        1.0  0.5000177694599088  0.41305237603273054  0.32611244548229473  1.0000
  C   C2        1.0  0.49999727567452373  0.4130528457045416  0.5869437305784828  1.0000
  C   C3        1.0  0.5000018701205137  0.6738788021898899  0.5869360839988644  1.0000
  C   C4        1.0  0.34735547203101197  0.8660000200237263  0.756736868757912  1.0000
  C   C5        1.0  0.3416741638368563  0.9844172420066  0.8174379972406598  1.0000
  C   C6        1.0  0.49999267270931813  0.045419002602954985  0.7727107341125574  1.0000
  C   C7        1.0  0.6583271814957355  0.9844202631716994  0.6669825932502818  1.0000
  C   C8        1.0  0.6526428689242253  0.8660043590795253  0.6092629482931146  1.0000
  C   C9        1.0  0.49999603389807856  0.8023089500537423  0.6511513179327579  1.0000
  C   C10       1.0  0.6583247076643631  0.1825551090925046  0.015575579810374097  1.0000
  C   C11       1.0  0.6526329869197272  0.2432533785275339  0.13399289733239073  1.0000
  C   C12       1.0  0.5000002168007923  0.3488418120412149  0.19768497665410223  1.0000
  C   C13       1.0  0.3473522995790717  0.39073528475864794  0.133994213505389  1.0000
  C   C14       1.0  0.3416590751374643  0.3330199000662333  0.015581319847676437  1.0000
  C   C15       1.0  0.49999970548405775  0.22729041349246143  0.9545799424855659  1.0000
  C   C16       1.0  0.6583523704117555  0.33301748615137683  0.8174416997981453  1.0000
  C   C17       1.0  0.6526364687273799  0.39073633607375774  0.7567384185124197  1.0000
  C   C18       1.0  0.5000085631498336  0.3488424871971391  0.6511600628919112  1.0000
  C   C19       1.0  0.34736774913325524  0.2432564944984604  0.6092650336596604  1.0000
  C   C20       1.0  0.34164550600508653  0.1825602519881784  0.6669875346691255  1.0000
  C   C21       1.0  0.4999925010647104  0.22728937197287977  0.7727089954103191  1.0000
  N   N1        1.0  0.49998931243834493  0.16666827460412034  0.8333346661417592  1.0000
  O   O1        1.0  0.7366313043614953  0.6252998477813706  0.6051497413206449  1.0000
  O   O2        1.0  0.7366321596230351  0.479842604859648  0.37469628916931436  1.0000
  O   O3        1.0  0.7366375199830131  0.3948400072152935  0.5201458263484326  1.0000
  O   O4        1.0  0.2633901309795732  0.6252946650600251  0.5201450730972397  1.0000
  O   O5        1.0  0.26336974853671086  0.47984666846871693  0.6051513686104784  1.0000
  O   O6        1.0  0.2633802278147144  0.3948381880327928  0.3746978470061961  1.0000
  F   F1        1.0  0.8063749208604919  0.8090448415811123  0.5069527035224439  1.0000
  F   F2        1.0  0.19361704256618856  0.8090347027500684  0.8020811254105525  1.0000
  F   F3        1.0  0.8063725400594494  0.19790752074111134  0.1909545805059665  1.0000
  F   F4        1.0  0.19362324262425548  0.49304584873819823  0.19095738063355586  1.0000
  F   F5        1.0  0.8064050839166371  0.4930398846294536  0.8020830877433837  1.0000
  F   F6        1.0  0.1936095368977888  0.197914669320042  0.5069613877246866  1.0000
