data_image0
_chemical_formula_structural       Cd4H36C16N4O24
_chemical_formula_sum              "Cd4 H36 C16 N4 O24"
_cell_length_a       5.4465482806047945
_cell_length_b       9.745618666062414
_cell_length_c       14.777670955981833
_cell_angle_alpha    89.99854620806346
_cell_angle_beta     89.99827815254709
_cell_angle_gamma    89.99934970536007

_space_group_name_H-M_alt    "P 1"
_space_group_IT_number       1

loop_
  _space_group_symop_operation_xyz
  'x, y, z'

loop_
  _atom_site_type_symbol
  _atom_site_label
  _atom_site_symmetry_multiplicity
  _atom_site_fract_x
  _atom_site_fract_y
  _atom_site_fract_z
  _atom_site_occupancy
  Cd  Cd1       1.0  0.158268294904488  0.7415626626534361  0.0515104537877491  1.0000
  Cd  Cd2       1.0  0.8417372307678262  0.24156557623811645  0.948488708140907  1.0000
  Cd  Cd3       1.0  0.8417146801580841  0.7415731621904627  0.5514983565589303  1.0000
  Cd  Cd4       1.0  0.15829084529999446  0.24156944211799922  0.4485014819442767  1.0000
  H   H1        1.0  0.5949834270733233  0.6248872328635143  0.1295512088482695  1.0000
  H   H2        1.0  0.4050471416270226  0.1248920438967005  0.8704492591777112  1.0000
  H   H3        1.0  0.40501976290985914  0.62490077855756  0.6295484569955292  1.0000
  H   H4        1.0  0.5949740848527938  0.12490312468727892  0.3704547178014224  1.0000
  H   H5        1.0  0.47062959485742784  0.49757794717157117  0.0783655843307685  1.0000
  H   H6        1.0  0.5293913564835008  0.9975814074948913  0.9216373467965653  1.0000
  H   H7        1.0  0.5293794150569938  0.49759810037249963  0.5783588133051082  1.0000
  H   H8        1.0  0.470641536241871  0.9975869069751726  0.4216373506380222  1.0000
  H   H9        1.0  0.3691928907061738  0.8170531520599553  0.8845019388954114  1.0000
  H   H10       1.0  0.6308106871385561  0.31704241386643156  0.11549661686727572  1.0000
  H   H11       1.0  0.6307909149497278  0.8170445712674592  0.3845002525493797  1.0000
  H   H12       1.0  0.3691998105993121  0.3170602296077547  0.6154983032026493  1.0000
  H   H13       1.0  0.5984533058006107  0.7796048528560533  0.9477701514053295  1.0000
  H   H14       1.0  0.40155674616900683  0.2795975712030341  0.0522344543145294  1.0000
  H   H15       1.0  0.40152973560267197  0.7796147763579809  0.447769530886184  1.0000
  H   H16       1.0  0.598450940050178  0.27961227439939046  0.5522256010267128  1.0000
  H   H17       1.0  0.4252093067831098  0.8416789878453843  0.2057029933686394  1.0000
  H   H18       1.0  0.5747826190076922  0.3416920541921371  0.7942985272111329  1.0000
  H   H19       1.0  0.5747450659551774  0.8416907221700639  0.7056998035645776  1.0000
  H   H20       1.0  0.4252486957970659  0.3416875025908936  0.2943010402478521  1.0000
  H   H21       1.0  0.998252614290209  0.9791548494165596  0.2585900860869756  1.0000
  H   H22       1.0  0.0017339284388810995  0.4791664132697663  0.741399624328011  1.0000
  H   H23       1.0  0.0017395957481128  0.9791599997173749  0.7585848230762551  1.0000
  H   H24       1.0  0.998246946824466  0.4791510018195808  0.2414116543921381  1.0000
  H   H25       1.0  0.1516902529604423  0.8432660216724345  0.3115817298121328  1.0000
  H   H26       1.0  0.8483016320545713  0.34326541490386836  0.688419763911817  1.0000
  H   H27       1.0  0.8482789067259661  0.8432549425394666  0.8115763303880499  1.0000
  H   H28       1.0  0.15170379838435372  0.34324365870043755  0.1884299005397096  1.0000
  H   H29       1.0  0.4966897005320591  0.015401728550358502  0.10528921248675971  1.0000
  H   H30       1.0  0.5033234972212028  0.5154001725234565  0.8947117630385081  1.0000
  H   H31       1.0  0.5033074210169842  0.015408663091775993  0.6052779797707615  1.0000
  H   H32       1.0  0.4966929248847833  0.5153993948039002  0.3947135220173053  1.0000
  H   H33       1.0  0.34313798745710494  0.0944112414990812  0.1967435462340106  1.0000
  H   H34       1.0  0.6568621548364391  0.5944237257129288  0.8032642068043074  1.0000
  H   H35       1.0  0.6568272540934855  0.0944174658922847  0.696725956392598  1.0000
  H   H36       1.0  0.3431692167960421  0.5944144232909352  0.3032675860622049  1.0000
  C   C1        1.0  0.8588232511408052  0.780509576687031  0.2272729600981833  1.0000
  C   C2        1.0  0.1411831054105548  0.28051520481502473  0.7727282466722514  1.0000
  C   C3        1.0  0.141149218816345  0.7805017687862232  0.7272682560007127  1.0000
  C   C4        1.0  0.8588516300011547  0.2804942818563135  0.27273362773954807  1.0000
  C   C5        1.0  0.07436474122651761  0.876324343494005  0.2462576252883153  1.0000
  C   C6        1.0  0.9256336349664804  0.3763321922790012  0.7537378929181244  1.0000
  C   C7        1.0  0.9256017990199227  0.8763262459706098  0.7462527631488456  1.0000
  C   C8        1.0  0.07438739689045801  0.3763200286742645  0.2537495221594384  1.0000
  C   C9        1.0  0.32050861718089146  0.0185238679982618  0.1420882011235705  1.0000
  C   C10       1.0  0.6794971556311609  0.5185280210339159  0.8579174582067849  1.0000
  C   C11       1.0  0.6794742656250534  0.0185340920528034  0.6420717257417506  1.0000
  C   C12       1.0  0.32052416343163503  0.5185290843375514  0.35792242968888394  1.0000
  C   C13       1.0  0.12549555495844797  0.0685418995932849  0.0756196027740899  1.0000
  C   C14       1.0  0.8745015830267918  0.568549815935789  0.9243852064948542  1.0000
  C   C15       1.0  0.8744788601485994  0.06855840407042281  0.5756118965667198  1.0000
  C   C16       1.0  0.12552195009779868  0.5685528075955162  0.424382085371235  1.0000
  N   N1        1.0  0.2681178861652426  0.8806615191085708  0.1767496726738784  1.0000
  N   N2        1.0  0.7318785418028496  0.380666605569033  0.8232532155172338  1.0000
  N   N3        1.0  0.7318471333642265  0.88066431796981  0.6767414416287992  1.0000
  N   N4        1.0  0.2681474587700592  0.3806668851209238  0.3232560329728784  1.0000
  O   O1        1.0  0.8614802512028419  0.6996037303699509  0.15935427043886113  1.0000
  O   O2        1.0  0.13852819324359436  0.1995975636361536  0.8406476347490398  1.0000
  O   O3        1.0  0.13849092620796447  0.6996031176701649  0.659339443876938  1.0000
  O   O4        1.0  0.8615083380365364  0.1995950979995484  0.3406651681720376  1.0000
  O   O5        1.0  0.6789124311464505  0.7856086936067684  0.28149621290899773  1.0000
  O   O6        1.0  0.3210993015561741  0.28562990835062146  0.7185082905223439  1.0000
  O   O7        1.0  0.3210442608325295  0.7856031316878146  0.7814957005556735  1.0000
  O   O8        1.0  0.6789509481810825  0.2855892956866342  0.21851015674847224  1.0000
  O   O9        1.0  0.13418833067500197  0.19762385655110387  0.0554346298947337  1.0000
  O   O10       1.0  0.8657962963639534  0.6976218137748659  0.944570015818968  1.0000
  O   O11       1.0  0.8658211970692234  0.19763424430255583  0.555439872524282  1.0000
  O   O12       1.0  0.1341799538958028  0.697625791363656  0.44456747976664  1.0000
  O   O13       1.0  0.9696178812324446  0.9874960776176422  0.0430101868710793  1.0000
  O   O14       1.0  0.030394149810021504  0.4874890830251174  0.9570037428832094  1.0000
  O   O15       1.0  0.030363146066712  0.987482625927207  0.5429897345709164  1.0000
  O   O16       1.0  0.9696195099794168  0.4874830393557231  0.4569971276391982  1.0000
  O   O17       1.0  0.4344556335984251  0.5865476996755277  0.10835756680029361  1.0000
  O   O18       1.0  0.5655594001885688  0.08655096545981418  0.8916442296119982  1.0000
  O   O19       1.0  0.565528323087463  0.5865584505636009  0.6083565045143686  1.0000
  O   O20       1.0  0.43447018603201576  0.0865586843584794  0.39165002870451804  1.0000
  O   O21       1.0  0.4381823392306357  0.8309965266996852  0.9475371000264303  1.0000
  O   O22       1.0  0.5618263869035757  0.3309915732613504  0.052459188597247006  1.0000
  O   O23       1.0  0.5618159199776328  0.8309954475845133  0.44754358524531307  1.0000
  O   O24       1.0  0.43817260964445387  0.3310018872910874  0.552455410192941  1.0000
