data_image0
_chemical_formula_structural       Rb4H16C28O8
_chemical_formula_sum              "Rb4 H16 C28 O8"
_cell_length_a       7.014508121083301
_cell_length_b       6.987884883006276
_cell_length_c       14.346115249876018
_cell_angle_alpha    89.99993499638542
_cell_angle_beta     92.71081494475334
_cell_angle_gamma    89.9998635533169

_space_group_name_H-M_alt    "P 1"
_space_group_IT_number       1

loop_
  _space_group_symop_operation_xyz
  'x, y, z'

loop_
  _atom_site_type_symbol
  _atom_site_label
  _atom_site_symmetry_multiplicity
  _atom_site_fract_x
  _atom_site_fract_y
  _atom_site_fract_z
  _atom_site_occupancy
  Rb  Rb1       1.0  0.7258598374067446  0.0096003784893739  0.9174176323012303  1.0000
  Rb  Rb2       1.0  0.7741430275128351  0.5095995301698649  0.0825825121382948  1.0000
  Rb  Rb3       1.0  0.2741428142996654  0.9903994045605271  0.0825823896443652  1.0000
  Rb  Rb4       1.0  0.22585963386168834  0.49040025287919786  0.9174182070676975  1.0000
  H   H1        1.0  0.8457632955671387  0.2802975611442236  0.7060116525263496  1.0000
  H   H2        1.0  0.6542360471054351  0.7802964980169378  0.29398757597802216  1.0000
  H   H3        1.0  0.1542379192883487  0.719703652956447  0.29398764387705967  1.0000
  H   H4        1.0  0.34576375990869923  0.21970185398740935  0.7060130866656634  1.0000
  H   H5        1.0  0.7434695942613913  0.275961803642879  0.540441081423161  1.0000
  H   H6        1.0  0.756532642317609  0.7759629655891728  0.45956029802100307  1.0000
  H   H7        1.0  0.25653306711486584  0.7240365483580007  0.4595596377832578  1.0000
  H   H8        1.0  0.2434685918741053  0.22403824850981383  0.5404403929031929  1.0000
  H   H9        1.0  0.34016944555485656  0.7296130883389436  0.5902019102100837  1.0000
  H   H10       1.0  0.15982647181504464  0.22961386706685977  0.40979660949076896  1.0000
  H   H11       1.0  0.6598303614610189  0.2703838326172203  0.4097987524340354  1.0000
  H   H12       1.0  0.840170451830872  0.7703859159916674  0.5902019048085732  1.0000
  H   H13       1.0  0.44631142834864335  0.7307103803939797  0.754759919211743  1.0000
  H   H14       1.0  0.05368733104982941  0.23070894083326013  0.2452379591349825  1.0000
  H   H15       1.0  0.5536897961784392  0.2692879716094723  0.24524007445291565  1.0000
  H   H16       1.0  0.9463124372918371  0.7692894111744482  0.7547599144671295  1.0000
  C   C1        1.0  0.7078905253368789  0.5042837914364071  0.8458188884789806  1.0000
  C   C2        1.0  0.7921066341243017  0.0042777050007672  0.15418044876018658  1.0000
  C   C3        1.0  0.2921078641556037  0.4957217158097862  0.1541824431415861  1.0000
  C   C4        1.0  0.20789315355360574  0.9957206470052568  0.8458188193627121  1.0000
  C   C5        1.0  0.6507684910381714  0.5036357170156337  0.7427775760294111  1.0000
  C   C6        1.0  0.8492315340243338  0.0036335429034295  0.2572225154198264  1.0000
  C   C7        1.0  0.34922990812763993  0.49636549708515787  0.2572244528528316  1.0000
  C   C8        1.0  0.15077110801570373  0.99636480909912  0.7427768092658127  1.0000
  C   C9        1.0  0.7340470936363844  0.3779667639326831  0.6802912758057785  1.0000
  C   C10       1.0  0.7659506037047593  0.8779639418471986  0.319709260447496  1.0000
  C   C11       1.0  0.26595128619146646  0.6220358812179683  0.31970935855525073  1.0000
  C   C12       1.0  0.23404920330937526  0.12203441015714842  0.6802914021961894  1.0000
  C   C13       1.0  0.6756187954226293  0.37706395394528874  0.5861479530572993  1.0000
  C   C14       1.0  0.82438031195381  0.8770650621657978  0.41385121749604536  1.0000
  C   C15       1.0  0.32438101159149824  0.6229343980590587  0.4138527095863863  1.0000
  C   C16       1.0  0.17561947572235678  0.12293472088842348  0.5861480506264272  1.0000
  C   C17       1.0  0.5318249397843291  0.5015610676832836  0.5500977744348319  1.0000
  C   C18       1.0  0.9681750806486422  0.0015638766840737998  0.4499016209949644  1.0000
  C   C19       1.0  0.46817486722980556  0.4984372843210706  0.44990288820885377  1.0000
  C   C20       1.0  0.031824697355929694  0.9984387684673593  0.5500969498662585  1.0000
  C   C21       1.0  0.4511603413536777  0.6291919837221794  0.6134165909267537  1.0000
  C   C22       1.0  0.0488372473787919  0.129191651635665  0.3865820171948613  1.0000
  C   C23       1.0  0.5488394463277046  0.37080350618747093  0.38658267719700484  1.0000
  C   C24       1.0  0.9511625306309954  0.8708067003712049  0.6134165536676406  1.0000
  C   C25       1.0  0.510041944130819  0.629987464833377  0.7073242253470653  1.0000
  C   C26       1.0  0.9899563271827674  0.1299848704215449  0.29267436763202426  1.0000
  C   C27       1.0  0.48995786288156756  0.37001231821916036  0.2926764372961869  1.0000
  C   C28       1.0  0.010044878008081095  0.8700134815835838  0.7073242315118476  1.0000
  O   O1        1.0  0.6182534328824757  0.6183097565642512  0.8977566177114367  1.0000
  O   O2        1.0  0.8817420414710214  0.118305010166516  0.10224401748015309  1.0000
  O   O3        1.0  0.381743529430679  0.38169431963548567  0.10224468562819308  1.0000
  O   O4        1.0  0.11825919272243371  0.8816947728842874  0.8977566734444691  1.0000
  O   O5        1.0  0.8400451654665132  0.3910633595744173  0.8749110074016002  1.0000
  O   O6        1.0  0.6599510921906884  0.8910555280465787  0.1250908872494563  1.0000
  O   O7        1.0  0.1599532433604551  0.6089435787182894  0.12509171873932698  1.0000
  O   O8        1.0  0.3400486954872122  0.10894282395944539  0.8749083808734426  1.0000
