data_image0
_chemical_formula_structural       Cd2H22C30Br8N4O12
_chemical_formula_sum              "Cd2 H22 C30 Br8 N4 O12"
_cell_length_a       9.309994604805238
_cell_length_b       9.343401044815458
_cell_length_c       13.601669450203833
_cell_angle_alpha    70.43464264015746
_cell_angle_beta     88.52113369359816
_cell_angle_gamma    63.700082916720426

_space_group_name_H-M_alt    "P 1"
_space_group_IT_number       1

loop_
  _space_group_symop_operation_xyz
  'x, y, z'

loop_
  _atom_site_type_symbol
  _atom_site_label
  _atom_site_symmetry_multiplicity
  _atom_site_fract_x
  _atom_site_fract_y
  _atom_site_fract_z
  _atom_site_occupancy
  Cd  Cd1       1.0  0.46122358968996463  0.30582046071965163  0.5341647652845083  1.0000
  Cd  Cd2       1.0  0.5387773193310181  0.6941807001077934  0.46583464639581246  1.0000
  H   H1        1.0  0.16024061010755022  0.267248804195198  0.5509398809743757  1.0000
  H   H2        1.0  0.8397587108307859  0.7327510367400764  0.449056932531576  1.0000
  H   H3        1.0  0.31684007522021324  0.10237316213002148  0.6282800627983036  1.0000
  H   H4        1.0  0.6831619066483511  0.8976279831088264  0.371717860267033  1.0000
  H   H5        1.0  0.6084364161983588  0.9598007800266188  0.6320724581915371  1.0000
  H   H6        1.0  0.3915666866386758  0.0401978138767092  0.3679267773426176  1.0000
  H   H7        1.0  0.681568390016764  0.9499756127633745  0.5258433596424723  1.0000
  H   H8        1.0  0.3184357388983585  0.050025536781390705  0.47415451872877407  1.0000
  H   H9        1.0  0.5652119825024328  0.4265785571266036  0.292222486794472  1.0000
  H   H10       1.0  0.434786731688952  0.5734251440126242  0.7077749016301098  1.0000
  H   H11       1.0  0.13140525692057992  0.3989525665432295  0.3620148783199113  1.0000
  H   H12       1.0  0.868596866945708  0.6010409093594119  0.6379863160590415  1.0000
  H   H13       1.0  0.14710387481475345  0.46478566679564903  0.14733254867214637  1.0000
  H   H14       1.0  0.8528992751296158  0.5352103647484229  0.8526672885438913  1.0000
  H   H15       1.0  0.6119430368859752  0.216940065237047  0.1451296391419277  1.0000
  H   H16       1.0  0.3880578717971659  0.7830610867196199  0.8548690394044272  1.0000
  H   H17       1.0  0.11372278211853623  0.7742170365938535  0.03371541979711887  1.0000
  H   H18       1.0  0.8862760262875327  0.22578153982687615  0.9662831719912431  1.0000
  H   H19       1.0  0.191790771209419  0.9104830508881252  0.9566828429101975  1.0000
  H   H20       1.0  0.8082085043108337  0.0895193967602879  0.04331703458372259  1.0000
  H   H21       1.0  0.24873196155115107  0.8142087599929724  0.09625108866341493  1.0000
  H   H22       1.0  0.7512657743451923  0.185789840887125  0.9037497248739044  1.0000
  C   C1        1.0  0.48482865948093234  0.08308756527336669  0.7710249367528376  1.0000
  C   C2        1.0  0.5151680496616249  0.9169084622237378  0.22897576767944375  1.0000
  C   C3        1.0  0.4949209036856034  0.040542577020481516  0.8897599475805863  1.0000
  C   C4        1.0  0.5050763203541705  0.959454777086613  0.11024411050708237  1.0000
  C   C5        1.0  0.6398773983817206  0.9228197102101349  0.9580881669308141  1.0000
  C   C6        1.0  0.3601197788885671  0.07718021512698668  0.04191602260894459  1.0000
  C   C7        1.0  0.35521100982621334  0.11669288588321085  0.9327990383600451  1.0000
  C   C8        1.0  0.6447862135378629  0.8833044504823351  0.0672035534596844  1.0000
  C   C9        1.0  0.18880145111526775  0.6378589027809268  0.5314999773744589  1.0000
  C   C10       1.0  0.811202166956839  0.3621410266031617  0.46850334494906326  1.0000
  C   C11       1.0  0.09017826017436187  0.8253169870125348  0.5159430492283975  1.0000
  C   C12       1.0  0.9098264310831752  0.1746829356537418  0.4840595176141065  1.0000
  C   C13       1.0  0.9695337425685792  0.052986461223604016  0.5863589710749865  1.0000
  C   C14       1.0  0.03047038871149247  0.9470147504165923  0.4136440392340645  1.0000
  C   C15       1.0  0.05707876201903168  0.8791377954260114  0.6019854610522515  1.0000
  C   C16       1.0  0.9429200006310978  0.12086337883707192  0.39801546159010565  1.0000
  C   C17       1.0  0.4508622816419602  0.4246152649960279  0.2842462016448408  1.0000
  C   C18       1.0  0.5491380667258666  0.5753871670637878  0.715752187234088  1.0000
  C   C19       1.0  0.2247087794180374  0.4126457493962192  0.31616969786529836  1.0000
  C   C20       1.0  0.7752927370255944  0.5873515689688277  0.6838306051643386  1.0000
  C   C21       1.0  0.22856768937615599  0.4486451980749635  0.2098789824599407  1.0000
  C   C22       1.0  0.7714338270674828  0.5513521202900762  0.7901213205696891  1.0000
  C   C23       1.0  0.4344706876825626  0.48080213800670896  0.0921674666993511  1.0000
  C   C24       1.0  0.5655269529855431  0.5192015609795676  0.9078299440722759  1.0000
  C   C25       1.0  0.5666089118286024  0.3407583552721364  0.08086314147462298  1.0000
  C   C26       1.0  0.4333903626780967  0.6592440657639428  0.9191345366173849  1.0000
  C   C27       1.0  0.3636567564455575  0.643380913926286  0.012030421616898922  1.0000
  C   C28       1.0  0.6363409306541923  0.3566202049591781  0.9879661245686718  1.0000
  C   C29       1.0  0.22227116214050127  0.793517262637536  0.02526354787843844  1.0000
  C   C30       1.0  0.7777292333346677  0.20648260706302324  0.9747354426823874  1.0000
  Br  Br1       1.0  0.1274461290553361  0.7100602026851844  0.7399835926600816  1.0000
  Br  Br2       1.0  0.8725559016098218  0.2899384245482964  0.26001859775700353  1.0000
  Br  Br3       1.0  0.9330851118210717  0.13070304257249893  0.7008265356947518  1.0000
  Br  Br4       1.0  0.06691743272775601  0.869296884658631  0.29917680897580823  1.0000
  Br  Br5       1.0  0.8284931331571882  0.8234524097278284  0.8984384667103598  1.0000
  Br  Br6       1.0  0.1714997493442851  0.17654748925590982  0.101564345949626  1.0000
  Br  Br7       1.0  0.15823250552009674  0.2694447613218216  0.8397592463885601  1.0000
  Br  Br8       1.0  0.8417650893920761  0.7305615355068086  0.16024049523706196  1.0000
  N   N1        1.0  0.3648055594200272  0.3973847869837215  0.3613524135382917  1.0000
  N   N2        1.0  0.6351953489252578  0.6026163561021747  0.63864553187409  1.0000
  N   N3        1.0  0.3725734406138698  0.4555725332371879  0.1908117293780975  1.0000
  N   N4        1.0  0.6274269548612992  0.5444273364633717  0.8091872611827213  1.0000
  O   O1        1.0  0.4989158907509292  0.21498644200723763  0.7171257631010732  1.0000
  O   O2        1.0  0.5010840399750124  0.7850096185610765  0.2828770736919921  1.0000
  O   O3        1.0  0.46004513889019455  0.9838488560841084  0.7367861192781575  1.0000
  O   O4        1.0  0.5399498405098414  0.016153529727816404  0.2632094488001115  1.0000
  O   O5        1.0  0.3427718645588484  0.5854774712673033  0.5312548087550653  1.0000
  O   O6        1.0  0.6572306779628717  0.4145224027391734  0.46874413711167057  1.0000
  O   O7        1.0  0.11799405663003167  0.5485912725498779  0.5426018373773331  1.0000
  O   O8        1.0  0.8820084892701985  0.45140869016436375  0.4574044398291122  1.0000
  O   O9        1.0  0.2678732806740527  0.17575418052969377  0.5531489290624094  1.0000
  O   O10       1.0  0.7321265538100975  0.8242469515324656  0.4468483055630442  1.0000
  O   O11       1.0  0.6505135895843709  0.017204827543523  0.5729872913621534  1.0000
  O   O12       1.0  0.34948895293734944  0.9827950464629539  0.4270116545045751  1.0000
