data_image0
_chemical_formula_structural       Cu4Re4H16C16N8O16
_chemical_formula_sum              "Cu4 Re4 H16 C16 N8 O16"
_cell_length_a       7.909990332953073
_cell_length_b       8.379528214618912
_cell_length_c       11.941722258034508
_cell_angle_alpha    89.99972736984911
_cell_angle_beta     90.00001532017039
_cell_angle_gamma    101.939953539534

_space_group_name_H-M_alt    "P 1"
_space_group_IT_number       1

loop_
  _space_group_symop_operation_xyz
  'x, y, z'

loop_
  _atom_site_type_symbol
  _atom_site_label
  _atom_site_symmetry_multiplicity
  _atom_site_fract_x
  _atom_site_fract_y
  _atom_site_fract_z
  _atom_site_occupancy
  Cu  Cu1       1.0  0.6613072501581313  0.1693287936705232  0.037521996897197596  1.0000
  Cu  Cu2       1.0  0.8386865975085626  0.3306650039757669  0.5375233220908057  1.0000
  Cu  Cu3       1.0  0.3386908835296651  0.8306623083969527  0.9624812493829321  1.0000
  Cu  Cu4       1.0  0.1613048461624303  0.6693358711602003  0.4624723875711111  1.0000
  Re  Re1       1.0  0.3711408104775272  0.959744292173646  0.2531361180466263  1.0000
  Re  Re2       1.0  0.1288656122038887  0.5402626546231633  0.7531333549196757  1.0000
  Re  Re3       1.0  0.6288637259120833  0.0402529002737424  0.7468646160234016  1.0000
  Re  Re4       1.0  0.8711408948461213  0.4597491772305561  0.24686402952546158  1.0000
  H   H1        1.0  0.7023809912116332  0.42162391305217284  0.8680433231058371  1.0000
  H   H2        1.0  0.7976208852740072  0.07837122054724692  0.3680515354234828  1.0000
  H   H3        1.0  0.2976261743942388  0.5783622929523916  0.1319565735826131  1.0000
  H   H4        1.0  0.2023808540636338  0.9216247563501055  0.6319558978495436  1.0000
  H   H5        1.0  0.41361643198393955  0.3260736398465127  0.16213941806498158  1.0000
  H   H6        1.0  0.08639288755797739  0.17391648937633164  0.6621462502448593  1.0000
  H   H7        1.0  0.5863928059853833  0.6739162233705046  0.8378554542166299  1.0000
  H   H8        1.0  0.9136099299172216  0.8260843666057127  0.3378628578204043  1.0000
  H   H9        1.0  0.7442280956186237  0.8536857218078423  0.097384922277719  1.0000
  H   H10       1.0  0.755761457726983  0.6463129112090513  0.5973776384960415  1.0000
  H   H11       1.0  0.2557633480482266  0.14631515330177794  0.9026183239855355  1.0000
  H   H12       1.0  0.24422447576503  0.3536916338686567  0.40261555895884976  1.0000
  H   H13       1.0  0.010207741716946783  0.28349891194149274  0.9492495395141489  1.0000
  H   H14       1.0  0.4897722806042636  0.2164953600012893  0.4492481102621966  1.0000
  H   H15       1.0  0.9897815456729759  0.7164922049870553  0.05075370676523509  1.0000
  H   H16       1.0  0.5102115805261461  0.7835055278756612  0.550746761998937  1.0000
  C   C1        1.0  0.6104504008554201  0.45560279389552244  0.9264309842524341  1.0000
  C   C2        1.0  0.8895514116261507  0.0443919315368007  0.4264368128765809  1.0000
  C   C3        1.0  0.38955504584062334  0.5443870756729581  0.0735689124297565  1.0000
  C   C4        1.0  0.11045113631534775  0.9556077046784636  0.5735706203903987  1.0000
  C   C5        1.0  0.4527872536881574  0.40385969207900274  0.08968575560761137  1.0000
  C   C6        1.0  0.047215101807921704  0.096133395942843  0.5896903290861317  1.0000
  C   C7        1.0  0.5472134075160682  0.5961314057600121  0.9103124662718329  1.0000
  C   C8        1.0  0.9527854576900482  0.9038686840695649  0.4103154293763041  1.0000
  C   C9        1.0  0.8582356501839995  0.9187288243435177  0.05325299764997739  1.0000
  C   C10       1.0  0.6417570181229169  0.5812725524915406  0.5532450751982196  1.0000
  C   C11       1.0  0.1417595847524566  0.08127204439122691  0.946751923413899  1.0000
  C   C12       1.0  0.3582329761756142  0.41873320599854946  0.4467456100545277  1.0000
  C   C13       1.0  0.0056476590502257  0.1567336145531542  0.9713328302411027  1.0000
  C   C14       1.0  0.49434406632607153  0.3432678046662759  0.47133014079076213  1.0000
  C   C15       1.0  0.9943518223115716  0.843263586383344  0.0286687412286497  1.0000
  C   C16       1.0  0.5056474612629955  0.656739171467585  0.5286622192603687  1.0000
  N   N1        1.0  0.564343696731818  0.3580837000182981  0.016417515117076696  1.0000
  N   N2        1.0  0.9356530550327095  0.14191756166658823  0.5164219989411974  1.0000
  N   N3        1.0  0.4356532571167548  0.6419135051671532  0.9835832189523116  1.0000
  N   N4        1.0  0.06434280288922169  0.8580918475996029  0.4835829221084608  1.0000
  N   N5        1.0  0.8624990367360538  0.07537637834498409  0.0244712889158336  1.0000
  N   N6        1.0  0.6374988860450799  0.42461872395834627  0.5244672430203039  1.0000
  N   N7        1.0  0.13750748809754043  0.9246183703081884  0.9755302825585871  1.0000
  N   N8        1.0  0.36249761265509767  0.5753821426972936  0.4755251170414424  1.0000
  O   O1        1.0  0.7847769008325898  0.2228685899527179  0.7510253650032935  1.0000
  O   O2        1.0  0.7152331238419832  0.27714077072650417  0.2510262006162804  1.0000
  O   O3        1.0  0.21523006136948913  0.7771395804542395  0.24897369424829918  1.0000
  O   O4        1.0  0.2847863742272807  0.7228783606559402  0.7489711838177229  1.0000
  O   O5        1.0  0.5130306974075723  0.019623891746810798  0.8760704596603118  1.0000
  O   O6        1.0  0.9869676485489406  0.4803724119180188  0.3760673109242488  1.0000
  O   O7        1.0  0.4869631898576401  0.980370878136462  0.1239311118130431  1.0000
  O   O8        1.0  0.013029658754170689  0.5196321140496636  0.6239267239317525  1.0000
  O   O9        1.0  0.49111077473585135  0.0487187911562188  0.6336732124958147  1.0000
  O   O10       1.0  0.00889296413043182  0.45128618921176417  0.1336767822476546  1.0000
  O   O11       1.0  0.5088952949484238  0.9512796189612798  0.36632165977126613  1.0000
  O   O12       1.0  0.9911047805361122  0.5487317584775084  0.8663239517871444  1.0000
  O   O13       1.0  0.7332376396294364  0.876619029997798  0.7291145311920386  1.0000
  O   O14       1.0  0.7667729836428947  0.6233774262554803  0.2291091897134834  1.0000
  O   O15       1.0  0.26677286208983725  0.12337083105229853  0.27089290209191563  1.0000
  O   O16       1.0  0.23323615262383868  0.3766234191583422  0.7708865199499256  1.0000
