data_image0
_chemical_formula_structural       Zn4H24C24I16N24O4
_chemical_formula_sum              "Zn4 H24 C24 I16 N24 O4"
_cell_length_a       8.450877057208688
_cell_length_b       10.918239713188479
_cell_length_c       18.89028797813651
_cell_angle_alpha    78.32999592464964
_cell_angle_beta     77.07611531006224
_cell_angle_gamma    67.20964418227169

_space_group_name_H-M_alt    "P 1"
_space_group_IT_number       1

loop_
  _space_group_symop_operation_xyz
  'x, y, z'

loop_
  _atom_site_type_symbol
  _atom_site_label
  _atom_site_symmetry_multiplicity
  _atom_site_fract_x
  _atom_site_fract_y
  _atom_site_fract_z
  _atom_site_occupancy
  Zn  Zn1       1.0  0.4256328959920451  0.6422996620307728  0.6684358418317233  1.0000
  Zn  Zn2       1.0  0.7363658200365176  0.8575878947806219  0.8315812523573033  1.0000
  Zn  Zn3       1.0  0.5743660515653702  0.35769801346470587  0.33156233402317536  1.0000
  Zn  Zn4       1.0  0.26363176999510063  0.1424127813750928  0.16841789544121613  1.0000
  H   H1        1.0  0.24822122050048984  0.09363238703238612  0.695673749245046  1.0000
  H   H2        1.0  0.037672245352673585  0.40617496500710365  0.8043850042803486  1.0000
  H   H3        1.0  0.7517798616953897  0.9063622616090327  0.3043300045871932  1.0000
  H   H4        1.0  0.962320442536985  0.5938257117745991  0.19561419161972546  1.0000
  H   H5        1.0  0.4116948467044638  0.9489873219723961  0.661584683027826  1.0000
  H   H6        1.0  0.022434282593373187  0.550772027536361  0.8384870410687385  1.0000
  H   H7        1.0  0.5883068212130452  0.051008332497332276  0.338417941937962  1.0000
  H   H8        1.0  0.9775615858656936  0.44922764815500926  0.16151193523234753  1.0000
  H   H9        1.0  0.42730743385347836  0.8226629138369079  0.5551169692032047  1.0000
  H   H10       1.0  0.8051515292924094  0.6771907093724677  0.9449386512335568  1.0000
  H   H11       1.0  0.5726938450393958  0.1773357547385714  0.44488320827886707  1.0000
  H   H12       1.0  0.19484589869796312  0.3228139658874484  0.0550621697718796  1.0000
  H   H13       1.0  0.6979938194909537  0.5651371868071422  0.5251522258661013  1.0000
  H   H14       1.0  0.7889559461780773  0.9346227795467428  0.9746892248758886  1.0000
  H   H15       1.0  0.30200352576112255  0.434861495839833  0.4748445802901814  1.0000
  H   H16       1.0  0.21105697159339334  0.06538091757990831  0.02530509165471531  1.0000
  H   H17       1.0  0.6331317018160476  0.7149351669249454  0.4623129600539502  1.0000
  H   H18       1.0  0.8109679572032746  0.7849653621785536  0.03762845757137972  1.0000
  H   H19       1.0  0.3668645912599827  0.2850635116812583  0.5376849056340589  1.0000
  H   H20       1.0  0.18904093076485387  0.21504133020876987  0.9623682997843662  1.0000
  H   H21       1.0  0.49286688357037883  0.6206188331269756  0.49368140113239906  1.0000
  H   H22       1.0  0.6076368632640694  0.8794819858535661  0.0063121251975956924  1.0000
  H   H23       1.0  0.5071284169632192  0.3793808452463736  0.5063169249867487  1.0000
  H   H24       1.0  0.39237133657479006  0.1205287036175662  0.9936868351309304  1.0000
  C   C1        1.0  0.17088820335838015  0.9245567669948116  0.7125886623300064  1.0000
  C   C2        1.0  0.8082053823675112  0.5753613868742702  0.7874035738375017  1.0000
  C   C3        1.0  0.8291123883418124  0.07543989664680592  0.2874120631713098  1.0000
  C   C4        1.0  0.1917874666268133  0.42464129282091534  0.21259560380919856  1.0000
  C   C5        1.0  0.2717898983682401  0.007458524102077002  0.6681308674789792  1.0000
  C   C6        1.0  0.947513966741418  0.4923915483371104  0.8319087638442684  1.0000
  C   C7        1.0  0.7282118291828823  0.9925381341755755  0.33187115838621395  1.0000
  C   C8        1.0  0.05248040088336132  0.5076101336113082  0.16808942360543006  1.0000
  C   C9        1.0  0.21502812947250755  0.04483823528998699  0.4837299630485249  1.0000
  C   C10       1.0  0.7433900742718226  0.45506821220755705  0.016251338086675615  1.0000
  C   C11       1.0  0.7849717740984087  0.9551624254354396  0.5162729654255643  1.0000
  C   C12       1.0  0.25661406204454074  0.5449314514683152  0.9837503112567066  1.0000
  C   C13       1.0  0.09129237935952259  0.1710772806155205  0.49991322828793744  1.0000
  C   C14       1.0  0.7619645718854073  0.32891402532944625  1.0906665203019377e-05  1.0000
  C   C15       1.0  0.9087083974866063  0.8289203727269127  0.5000904379562031  1.0000
  C   C16       1.0  0.23803972553562155  0.671087641259902  0.9999907244247982  1.0000
  C   C17       1.0  0.09760682563161542  0.175063013647744  0.5728749269577166  1.0000
  C   C18       1.0  0.8453879485389562  0.3249296089977349  0.9270792713146893  1.0000
  C   C19       1.0  0.9023955116824143  0.8249336372455643  0.42712892903722405  1.0000
  C   C20       1.0  0.15461134526906045  0.6750710591120425  0.07292182702965991  1.0000
  C   C21       1.0  0.5871007630347831  0.6528538331915925  0.5091493112495373  1.0000
  C   C22       1.0  0.7495995368087454  0.8470359374655488  0.9907924805418135  1.0000
  C   C23       1.0  0.41289725161380636  0.34714584587896263  0.49084872593589796  1.0000
  C   C24       1.0  0.2504077310578836  0.15297075356297538  0.009204686163720098  1.0000
  I   I1        1.0  0.37602642096393146  0.42636169353323783  0.6785143714197731  1.0000
  I   I2        1.0  0.48082793016073594  0.07362596848174971  0.8215143860170856  1.0000
  I   I3        1.0  0.6239752229123068  0.5736349741491509  0.3214852945498096  1.0000
  I   I4        1.0  0.519171423280888  0.9263757034359512  0.17848611322666852  1.0000
  I   I5        1.0  0.28217720872944324  0.9629188542799482  0.386264241419646  1.0000
  I   I6        1.0  0.6312928111205168  0.5368263843922562  0.11378291094128916  1.0000
  I   I7        1.0  0.7178203207319813  0.03708682008552701  0.6137371604330043  1.0000
  I   I8        1.0  0.3687092564360981  0.46317528822264364  0.8862172993687597  1.0000
  I   I9        1.0  0.9351220814948037  0.31977058115565177  0.43123468160413136  1.0000
  I   I10       1.0  0.6858042933368153  0.180257234835949  0.068619503397727  1.0000
  I   I11       1.0  0.06487660879540871  0.6802280726155202  0.5687693246550651  1.0000
  I   I12       1.0  0.3141940079287619  0.8197444330409738  0.9313820553777535  1.0000
  I   I13       1.0  0.9479384287557693  0.31983134239166594  0.6409152619150762  1.0000
  I   I14       1.0  0.9087180812575607  0.1801521800167407  0.8590285405463762  1.0000
  I   I15       1.0  0.05206072798885941  0.6801663095919749  0.35908881367884504  1.0000
  I   I16       1.0  0.09127671722929155  0.8198464831235623  0.14097327433484005  1.0000
  N   N1        1.0  0.2159415628673002  0.7913913776377653  0.7121411192931718  1.0000
  N   N2        1.0  0.7195495478645599  0.7085360275370505  0.7878566371491973  1.0000
  N   N3        1.0  0.7840562310430171  0.20860529471138284  0.28785753524623203  1.0000
  N   N4        1.0  0.28044496306871747  0.2914666488145556  0.21214331109551676  1.0000
  N   N5        1.0  0.08706588707289575  0.7562533804589933  0.7544563835872824  1.0000
  N   N6        1.0  0.5978515659858347  0.7437098796378904  0.7455207321021008  1.0000
  N   N7        1.0  0.9129313985455736  0.2437442983800651  0.24554102166958816  1.0000
  N   N8        1.0  0.40214446357789047  0.2562917989669558  0.2544782259456114  1.0000
  N   N9        1.0  0.9694736357978752  0.8655318629780097  0.7791335478750557  1.0000
  N   N10       1.0  0.6142953613942479  0.6344447962088183  0.7208328817478391  1.0000
  N   N11       1.0  0.03052571858034273  0.13446380692201387  0.22086529641515543  1.0000
  N   N12       1.0  0.38570088890774906  0.365559889117428  0.27916545894590433  1.0000
  N   N13       1.0  0.016455248711672324  0.972732225946409  0.7546742715433299  1.0000
  N   N14       1.0  0.7440851981122732  0.5272214317723537  0.7453021101450263  1.0000
  N   N15       1.0  0.9835478959988533  0.0272624354789315  0.2453261832776478  1.0000
  N   N16       1.0  0.2559108910850653  0.4727812506404161  0.25469624880209113  1.0000
  N   N17       1.0  0.22227408979758675  0.0575345470675046  0.5953812702139418  1.0000
  N   N18       1.0  0.875203464995266  0.4423649634192657  0.9046375564559954  1.0000
  N   N19       1.0  0.7777272131365651  0.9424631082953211  0.4046218662643285  1.0000
  N   N20       1.0  0.1247919788468295  0.557635709357271  0.09536253045817492  1.0000
  N   N21       1.0  0.29359510571253394  0.9766768431325514  0.5414899755424828  1.0000
  N   N22       1.0  0.8117262622214478  0.5231870359943612  0.9585474525490203  1.0000
  N   N23       1.0  0.7064067829432472  0.023321818058576606  0.45851203206933644  1.0000
  N   N24       1.0  0.1882740241290008  0.47681263234826327  0.04145318536419041  1.0000
  O   O1        1.0  0.5099926694606794  0.7284159757389119  0.5705255561051106  1.0000
  O   O2        1.0  0.8091493374247204  0.7713543345595966  0.9294698001067306  1.0000
  O   O3        1.0  0.4900078981982361  0.2715817011153662  0.42947221039999317  1.0000
  O   O4        1.0  0.19084685324366293  0.22864934695873274  0.07052913968760781  1.0000
