data_image0
_chemical_formula_structural       Cu4H38C26S2I4N6O2
_chemical_formula_sum              "Cu4 H38 C26 S2 I4 N6 O2"
_cell_length_a       8.69444654778356
_cell_length_b       9.623760022726664
_cell_length_c       11.738499863848318
_cell_angle_alpha    93.40156323758897
_cell_angle_beta     110.12005396914567
_cell_angle_gamma    96.99101543080019

_space_group_name_H-M_alt    "P 1"
_space_group_IT_number       1

loop_
  _space_group_symop_operation_xyz
  'x, y, z'

loop_
  _atom_site_type_symbol
  _atom_site_label
  _atom_site_symmetry_multiplicity
  _atom_site_fract_x
  _atom_site_fract_y
  _atom_site_fract_z
  _atom_site_occupancy
  Cu  Cu1       1.0  0.8749944789903309  0.08546971416580361  0.2381132141611175  1.0000
  Cu  Cu2       1.0  0.12499525778707724  0.914535475552143  0.7618800048584831  1.0000
  Cu  Cu3       1.0  0.5701119734399427  0.9388437074963537  0.09629974131315318  1.0000
  Cu  Cu4       1.0  0.4298852364386079  0.06115518720198311  0.9036959348691553  1.0000
  H   H1        1.0  0.4763949444012283  0.3112654972508935  0.20991404922772722  1.0000
  H   H2        1.0  0.5236057748956781  0.6887323744389137  0.7900867284216986  1.0000
  H   H3        1.0  0.39835445791158014  0.6792868165414633  0.14609058856349577  1.0000
  H   H4        1.0  0.6016473056614656  0.3207100091675486  0.8539112577289814  1.0000
  H   H5        1.0  0.8375441263186901  0.7808007904004485  0.08382096885854652  1.0000
  H   H6        1.0  0.16245499099627378  0.21919496361816476  0.9161776028716133  1.0000
  H   H7        1.0  0.9124128063314528  0.5383358484194718  0.12089486286266288  1.0000
  H   H8        1.0  0.08758790578636422  0.4616620145215081  0.8791042087560185  1.0000
  H   H9        1.0  0.7158478153535199  0.361208111654456  0.1709832773148463  1.0000
  H   H10       1.0  0.2841543140408191  0.6387908158651925  0.8290179054694846  1.0000
  H   H11       1.0  0.2657417492341382  0.1967887783294487  0.2366220068280427  1.0000
  H   H12       1.0  0.7342593322945135  0.8032111907965814  0.7633772542978717  1.0000
  H   H13       1.0  0.09678481260758792  0.22670467957176052  0.1092198392534556  1.0000
  H   H14       1.0  0.9032150435290447  0.7732952868169677  0.8907791114911704  1.0000
  H   H15       1.0  0.031861010936403  0.18035723815577856  0.5079518477263676  1.0000
  H   H16       1.0  0.9681431998311252  0.8196395886534237  0.4920497663133148  1.0000
  H   H17       1.0  0.9752618091176046  0.35146443711519754  0.4942739700022472  1.0000
  H   H18       1.0  0.0247383596525879  0.6485302796714479  0.5057273764017083  1.0000
  H   H19       1.0  0.15123374670637443  0.3229711483125116  0.6191627356440819  1.0000
  H   H20       1.0  0.8487678249821685  0.6770246155551335  0.3808373098640275  1.0000
  H   H21       1.0  0.39592632125773963  0.2465533164875283  0.5757945503308193  1.0000
  H   H22       1.0  0.6040759856629306  0.7534466553758108  0.4242050211763839  1.0000
  H   H23       1.0  0.4143017180677901  0.2528429992986005  0.43017350789740055  1.0000
  H   H24       1.0  0.5856997292821475  0.7471590716380733  0.5698250897203749  1.0000
  H   H25       1.0  0.27177432334153195  0.1183380314193769  0.45462467475464047  1.0000
  H   H26       1.0  0.7282277916946287  0.8816608786025953  0.5453730959682019  1.0000
  H   H27       1.0  0.1788641294033226  0.5501372927047401  0.4525467444874209  1.0000
  H   H28       1.0  0.8211345121099284  0.44986268406994184  0.5474544549220325  1.0000
  H   H29       1.0  0.35411276747442594  0.5047827886718396  0.42262133031137233  1.0000
  H   H30       1.0  0.645885678564774  0.4952161218870545  0.5773772152983483  1.0000
  H   H31       1.0  0.3491471307362985  0.5044341806398123  0.5725872824105808  1.0000
  H   H32       1.0  0.6508551833634614  0.4955657999723684  0.4274139951273739  1.0000
  H   H33       1.0  0.3660412146749721  0.8695844480611048  0.3131499927953953  1.0000
  H   H34       1.0  0.6339524081107085  0.13042183358221857  0.6868502232293138  1.0000
  H   H35       1.0  0.2311723296090733  0.7036831142333784  0.2774332829590662  1.0000
  H   H36       1.0  0.7688116639772675  0.29632418548077777  0.7225619857228196  1.0000
  H   H37       1.0  0.3096453512328665  0.7916262862112688  0.43062966472697173  1.0000
  H   H38       1.0  0.6903489500076674  0.20837684764060782  0.5693722834489209  1.0000
  C   C1        1.0  0.5115782277756367  0.6450507354832739  0.14340723459351779  1.0000
  C   C2        1.0  0.4884239016186953  0.3549481920363677  0.8565939481908131  1.0000
  C   C3        1.0  0.7573049146262462  0.7003184039158442  0.10718164071239039  1.0000
  C   C4        1.0  0.242695801081112  0.2996794633995493  0.8928182839216703  1.0000
  C   C5        1.0  0.7976006438005142  0.566046692965557  0.1275369339269403  1.0000
  C   C6        1.0  0.2024014784147354  0.43395222580525683  0.8724625428266463  1.0000
  C   C7        1.0  0.6890287459702762  0.46789676811013703  0.15600852975040888  1.0000
  C   C8        1.0  0.3109731879500046  0.5321010931937238  0.8439899992341893  1.0000
  C   C9        1.0  0.542246170476993  0.5070602087970287  0.16356204811734187  1.0000
  C   C10       1.0  0.45775699601439607  0.4929376639929758  0.8364384972792962  1.0000
  C   C11       1.0  0.2738961476219544  0.4119556379955896  0.18293809541292208  1.0000
  C   C12       1.0  0.726105797066964  0.5880422364315337  0.8170629926177994  1.0000
  C   C13       1.0  0.18337246343067898  0.27402236574454975  0.20004777600757248  1.0000
  C   C14       1.0  0.8166261744930238  0.7259776066557038  0.7999525703865087  1.0000
  C   C15       1.0  0.19378464309314583  0.325819251815176  0.4485645810081564  1.0000
  C   C16       1.0  0.8062174827116451  0.6741796713300517  0.5514357487608025  1.0000
  C   C17       1.0  0.080722601295264  0.2930312055469599  0.5214867691899201  1.0000
  C   C18       1.0  0.9192803840802526  0.7069656185249403  0.4785145344684736  1.0000
  C   C19       1.0  0.32588709567011886  0.22980766013178305  0.47698982580201477  1.0000
  C   C20       1.0  0.6741162483476016  0.770191257001912  0.5230091083174884  1.0000
  C   C21       1.0  0.27328094953563203  0.48045008186791444  0.4750911071177839  1.0000
  C   C22       1.0  0.7267201391721088  0.5195498960069501  0.5249098600388749  1.0000
  C   C23       1.0  0.12590382362332522  0.8806231033589499  0.3060100184007268  1.0000
  C   C24       1.0  0.8740783551993374  0.1193947365662424  0.6939886787349466  1.0000
  C   C25       1.0  0.2656600147441139  0.8063291982472407  0.3331756345659684  1.0000
  C   C26       1.0  0.7343367336909097  0.1936739367048262  0.6668260813571294  1.0000
  S   S1        1.0  0.0498334245225251  0.2963769708761462  0.2862288476586556  1.0000
  S   S2        1.0  0.9501680300065017  0.7036251088093621  0.713771455989864  1.0000
  I   I1        1.0  0.7605006608584334  0.07464034882730183  0.9926889900040905  1.0000
  I   I2        1.0  0.2395023173379869  0.9253564664957568  0.007310607623551772  1.0000
  I   I3        1.0  0.6246185773584331  0.09655763780842361  0.3102344440495699  1.0000
  I   I4        1.0  0.3753844899211742  0.903446572671541  0.6897706245643391  1.0000
  N   N1        1.0  0.6177466810767313  0.7395338882597501  0.11597287980596596  1.0000
  N   N2        1.0  0.3822554447280595  0.2604650348854776  0.8840274499629996  1.0000
  N   N3        1.0  0.4333564553736053  0.4052634168518098  0.1902075567444541  1.0000
  N   N4        1.0  0.5666454857257719  0.5947344532008929  0.8097926782708883  1.0000
  N   N5        1.0  0.014539051753487887  0.9432407653267778  0.2848498862317115  1.0000
  N   N6        1.0  0.9854688495482691  0.05675608719201361  0.7151560710133326  1.0000
  O   O1        1.0  0.2055258809162765  0.5177147701208257  0.1601046116593849  1.0000
  O   O2        1.0  0.7944776513963988  0.48228520447982265  0.839895270229107  1.0000
