data_image0
_chemical_formula_structural       Cu4H20C20N12Cl4O8
_chemical_formula_sum              "Cu4 H20 C20 N12 Cl4 O8"
_cell_length_a       3.692158171081688
_cell_length_b       13.158158473540128
_cell_length_c       15.308770051054605
_cell_angle_alpha    90.00027413513651
_cell_angle_beta     90.00012470363785
_cell_angle_gamma    91.6040204227518

_space_group_name_H-M_alt    "P 1"
_space_group_IT_number       1

loop_
  _space_group_symop_operation_xyz
  'x, y, z'

loop_
  _atom_site_type_symbol
  _atom_site_label
  _atom_site_symmetry_multiplicity
  _atom_site_fract_x
  _atom_site_fract_y
  _atom_site_fract_z
  _atom_site_occupancy
  Cu  Cu1       1.0  0.8296263602871791  0.08478186436635578  0.9786988693290225  1.0000
  Cu  Cu2       1.0  0.1703683245955503  0.4152172290901249  0.47869709201361127  1.0000
  Cu  Cu3       1.0  0.17037438055402276  0.9152179201486064  0.021302129313980296  1.0000
  Cu  Cu4       1.0  0.8296219266426306  0.5847856076532166  0.5213026001922642  1.0000
  H   H1        1.0  0.15444381784399042  0.013432247579288495  0.818054029829909  1.0000
  H   H2        1.0  0.8455438007909847  0.48656518205292076  0.31805354690087734  1.0000
  H   H3        1.0  0.8455760515266774  0.9865690380279302  0.1819469688211157  1.0000
  H   H4        1.0  0.15444077690702326  0.5134353794184676  0.6819461452988662  1.0000
  H   H5        1.0  0.8501565391583482  0.36710290891465297  0.7506837481909229  1.0000
  H   H6        1.0  0.14983338887425654  0.132896417508988  0.2506821090509987  1.0000
  H   H7        1.0  0.14984123628384788  0.6328945975442436  0.2493159440059642  1.0000
  H   H8        1.0  0.8501566908767301  0.867104898684701  0.7493195428127422  1.0000
  H   H9        1.0  0.6345493848956705  0.2657050603704008  0.9679432637670331  1.0000
  H   H10       1.0  0.3654424871082753  0.2342939749972359  0.4679408452899025  1.0000
  H   H11       1.0  0.36545956613331754  0.7342954760790475  0.0320570816592962  1.0000
  H   H12       1.0  0.634547592639528  0.7657073411945986  0.5320601533534913  1.0000
  H   H13       1.0  0.613886600810076  0.3714191798660309  0.8977719332139246  1.0000
  H   H14       1.0  0.38610738183703563  0.12858021589579488  0.3977717048043203  1.0000
  H   H15       1.0  0.3861140542732143  0.628579844365788  0.10222710576648099  1.0000
  H   H16       1.0  0.6138800755084259  0.8714218633522106  0.6022286406196216  1.0000
  H   H17       1.0  0.155674185307781  0.2651152961654688  0.6364377349675933  1.0000
  H   H18       1.0  0.8443228404945697  0.23488413566099806  0.13643621937712416  1.0000
  H   H19       1.0  0.8443293494261467  0.734885245844829  0.3635626104573433  1.0000
  H   H20       1.0  0.15567239830319576  0.7651148941372055  0.8635647792629157  1.0000
  C   C1        1.0  0.0895415350846349  0.0913161747176403  0.801511367610317  1.0000
  C   C2        1.0  0.9104458367043833  0.40868040100787073  0.3015066795018058  1.0000
  C   C3        1.0  0.910475368896577  0.908682832839048  0.19849028425560528  1.0000
  C   C4        1.0  0.0895443287727105  0.5913216754504731  0.6984903998211252  1.0000
  C   C5        1.0  0.9247603715891302  0.28907366431980813  0.7630222864994352  1.0000
  C   C6        1.0  0.07523754379631238  0.21092344276345187  0.2630235416809228  1.0000
  C   C7        1.0  0.07524299164805369  0.710925357135295  0.23697805892234666  1.0000
  C   C8        1.0  0.924755072605464  0.7890763500946176  0.7369781101803454  1.0000
  C   C9        1.0  0.0903186024418403  0.23285791235751668  0.7000358376243553  1.0000
  C   C10       1.0  0.9096708324106685  0.2671411274323815  0.2000305687247348  1.0000
  C   C11       1.0  0.909690177090411  0.7671411035367441  0.299964507798812  1.0000
  C   C12       1.0  0.09032178397521308  0.7328586654164511  0.799967817034826  1.0000
  C   C13       1.0  0.1745593182898446  0.13163220428781838  0.7195094566515436  1.0000
  C   C14       1.0  0.8254358082462262  0.36836770043669986  0.21950913188220508  1.0000
  C   C15       1.0  0.8254550490373944  0.8683683266026349  0.2804915419965112  1.0000
  C   C16       1.0  0.17455968779028544  0.6316336101905974  0.7804905603218941  1.0000
  C   C17       1.0  0.8462926468243449  0.24499622671103788  0.8458433297454421  1.0000
  C   C18       1.0  0.1536873751677987  0.25500364934019604  0.3458363143175021  1.0000
  C   C19       1.0  0.15371342456673176  0.7550027919673352  0.1541583221177163  1.0000
  C   C20       1.0  0.84629737402377  0.7449984326845325  0.6541627246650634  1.0000
  N   N1        1.0  0.9284198549113397  0.14575571735945658  0.8636355631382882  1.0000
  N   N2        1.0  0.0715735380996705  0.3542412043856445  0.3636347912263318  1.0000
  N   N3        1.0  0.071594598170627  0.8542455738122924  0.1363667419520311  1.0000
  N   N4        1.0  0.9284166273901419  0.6457608720800964  0.6363649009779593  1.0000
  N   N5        1.0  0.3503855764326076  0.07060020388013301  0.6558177807365125  1.0000
  N   N6        1.0  0.6496057930220687  0.42939554178440886  0.15581304289851516  1.0000
  N   N7        1.0  0.6496176153205581  0.9293972970271653  0.3441851775634674  1.0000
  N   N8        1.0  0.3504001925920193  0.5706027165997299  0.8441827299799839  1.0000
  N   N9        1.0  0.6897702529731475  0.29837357509001083  0.908945790201777  1.0000
  N   N10       1.0  0.3102234097499519  0.20162208252819616  0.4089490882323544  1.0000
  N   N11       1.0  0.3102304021069671  0.7016254491399607  0.09105259555828839  1.0000
  N   N12       1.0  0.689763961853501  0.7983792364459104  0.59105256363069  1.0000
  Cl  Cl1       1.0  0.340885049151666  0.0984870996065084  0.06867203798149998  1.0000
  Cl  Cl2       1.0  0.6591088659210698  0.40151423234499367  0.5686730663615122  1.0000
  Cl  Cl3       1.0  0.6591156916895359  0.9015126849084537  0.93132896066151  1.0000
  Cl  Cl4       1.0  0.3408811280815485  0.5984863235711019  0.43132858550064407  1.0000
  O   O1        1.0  0.43662938836055787  0.10915475771728467  0.584207948894985  1.0000
  O   O2        1.0  0.5633699227780156  0.3908451360340805  0.08420758098786509  1.0000
  O   O3        1.0  0.5633684728236544  0.8908435090155108  0.4157904368627996  1.0000
  O   O4        1.0  0.4366439300399279  0.6091508331797041  0.9157894983286566  1.0000
  O   O5        1.0  0.4137685381809391  0.9797507554608771  0.6753986343909304  1.0000
  O   O6        1.0  0.5862259610703618  0.5202483252266459  0.1753974118661361  1.0000
  O   O7        1.0  0.5862376189489709  0.020249023489547803  0.3246010578127779  1.0000
  O   O8        1.0  0.41377740212865877  0.479750696206267  0.8245950949115439  1.0000
