data_image0
_chemical_formula_structural       Zn8H56C88N40O40
_chemical_formula_sum              "Zn8 H56 C88 N40 O40"
_cell_length_a       14.584720859207092
_cell_length_b       18.142098606345165
_cell_length_c       18.421489544960743
_cell_angle_alpha    90.42488916453343
_cell_angle_beta     91.84513722289256
_cell_angle_gamma    90.71799454740179

_space_group_name_H-M_alt    "P 1"
_space_group_IT_number       1

loop_
  _space_group_symop_operation_xyz
  'x, y, z'

loop_
  _atom_site_type_symbol
  _atom_site_label
  _atom_site_symmetry_multiplicity
  _atom_site_fract_x
  _atom_site_fract_y
  _atom_site_fract_z
  _atom_site_occupancy
  Zn  Zn1       1.0  0.9818452072139152  0.9811383297779342  0.3851778084572643  1.0000
  Zn  Zn2       1.0  0.026610762021739703  0.980727997764021  0.6243176789733412  1.0000
  Zn  Zn3       1.0  0.47327666278282987  0.4799668268355148  0.8791804096313027  1.0000
  Zn  Zn4       1.0  0.5183552699566008  0.48692978766381145  0.11660563216379671  1.0000
  Zn  Zn5       1.0  0.8367508608137301  0.9930967040755833  0.5179307407718596  1.0000
  Zn  Zn6       1.0  0.17195835558980124  0.9952266332064637  0.49014804451314836  1.0000
  Zn  Zn7       1.0  0.3279941578134924  0.49538450071209883  0.013075346146365503  1.0000
  Zn  Zn8       1.0  0.6648824436664426  0.49568900005882444  0.9843044406343328  1.0000
  H   H1        1.0  0.6888495605097519  0.052812004660538  0.6379205590332546  1.0000
  H   H2        1.0  0.2243858612534311  0.827261195552559  0.5040095990760706  1.0000
  H   H3        1.0  0.32024637281388374  0.0577123342217405  0.36842489206981816  1.0000
  H   H4        1.0  0.7824611484587721  0.8261530117964072  0.5001585709759553  1.0000
  H   H5        1.0  0.17894561727202782  0.5527098271714479  0.13651314080975396  1.0000
  H   H6        1.0  0.716355303537597  0.3297461626708084  0.0003409892135905996  1.0000
  H   H7        1.0  0.812703810426555  0.5540628172560814  0.8628151347411759  1.0000
  H   H8        1.0  0.27504572427282886  0.32519771246381174  0.00044122292001700015  1.0000
  H   H9        1.0  0.1293603765895526  0.18774185297277765  0.2103351541295666  1.0000
  H   H10       1.0  0.9530621187538274  0.6576215110591762  0.6417128953285528  1.0000
  H   H11       1.0  0.8739102545094467  0.18961399279352517  0.8006624263027433  1.0000
  H   H12       1.0  0.04595992592150821  0.657627434286198  0.3621578555608309  1.0000
  H   H13       1.0  0.6274475931379443  0.6881083752543872  0.7051427375113306  1.0000
  H   H14       1.0  0.45496108913403793  0.16444899704413274  0.14443812749887294  1.0000
  H   H15       1.0  0.36945607367891853  0.6916471511955252  0.2925683900347096  1.0000
  H   H16       1.0  0.5443941961970323  0.15872714381247724  0.8543647663502301  1.0000
  H   H17       1.0  0.6982441121830548  0.775670685474516  0.6233047798899563  1.0000
  H   H18       1.0  0.38770636228720434  0.0747748431447022  0.22858878740482422  1.0000
  H   H19       1.0  0.3033878797514475  0.777630788688441  0.37832346921572224  1.0000
  H   H20       1.0  0.6177798176329149  0.06889376862695677  0.7739280262551348  1.0000
  H   H21       1.0  0.19562487086059827  0.27559609191801127  0.1258366761923639  1.0000
  H   H22       1.0  0.8808420319924082  0.5679409162044208  0.723482055732056  1.0000
  H   H23       1.0  0.8017756297226627  0.27759878462922666  0.8808943577932099  1.0000
  H   H24       1.0  0.1138287459703022  0.5688288618997248  0.2771893277029989  1.0000
  H   H25       1.0  0.7262425796900589  0.8820388211082958  0.18576297975909034  1.0000
  H   H26       1.0  0.04665913084071599  0.27714746294070375  0.6803967635660442  1.0000
  H   H27       1.0  0.2842385090528624  0.8795871469177  0.8177287309904744  1.0000
  H   H28       1.0  0.9420766469100741  0.2890948683552565  0.33184482957810246  1.0000
  H   H29       1.0  0.2126540801429897  0.3832616129979484  0.6829928679332938  1.0000
  H   H30       1.0  0.5562970486779834  0.7799385185968858  0.17887752205983531  1.0000
  H   H31       1.0  0.7489569799431594  0.3452103681220251  0.29354550288218206  1.0000
  H   H32       1.0  0.4479447500290732  0.7743194931313582  0.8176175795400199  1.0000
  H   H33       1.0  0.9769640678587522  0.11569372123423699  0.2899831661596224  1.0000
  H   H34       1.0  0.1000692431709354  0.8583347648378208  0.7258024904938124  1.0000
  H   H35       1.0  0.0290865200961576  0.11657823886943669  0.7156563216455896  1.0000
  H   H36       1.0  0.9072848271681907  0.8594063606173704  0.2792563776509027  1.0000
  H   H37       1.0  0.47174612273770583  0.6134655108488118  0.786287734772479  1.0000
  H   H38       1.0  0.5872142891395811  0.37712646347210205  0.22920571811184232  1.0000
  H   H39       1.0  0.5233723198517454  0.6207597897108244  0.2089513087984898  1.0000
  H   H40       1.0  0.39581385354726006  0.35689416294628273  0.7765017825994747  1.0000
  H   H41       1.0  0.935608859811758  0.08554302316635191  0.8189068743112102  1.0000
  H   H42       1.0  0.0158314855994632  0.7620197751112981  0.3083437877668587  1.0000
  H   H43       1.0  0.06988111276706381  0.08170619097315782  0.19017412102911632  1.0000
  H   H44       1.0  0.9850268331692363  0.7621733084773082  0.6984540229588916  1.0000
  H   H45       1.0  0.43160374794095446  0.5897254505684798  0.31145863420690034  1.0000
  H   H46       1.0  0.5129677059488316  0.26247678788618606  0.8009034439726292  1.0000
  H   H47       1.0  0.5641644071049471  0.5828646131653913  0.6843019661127556  1.0000
  H   H48       1.0  0.4844182817041514  0.27127398135175435  0.19774012170304905  1.0000
  H   H49       1.0  0.19977357091566722  0.22130093659643524  0.456826772439719  1.0000
  H   H50       1.0  0.579550411596621  0.9271144000217644  0.4138255466839241  1.0000
  H   H51       1.0  0.7902443028301819  0.2206904631348365  0.5417084378942932  1.0000
  H   H52       1.0  0.4268510993592188  0.9311441734941539  0.5895697941314567  1.0000
  H   H53       1.0  0.715444779712314  0.7215167935033688  0.9586046875547538  1.0000
  H   H54       1.0  0.07049552959786351  0.4327984034818683  0.9116010221478207  1.0000
  H   H55       1.0  0.29600598962890246  0.7201373611890387  0.042602748541583  1.0000
  H   H56       1.0  0.9253137978616975  0.45274180044248874  0.1053077650874883  1.0000
  C   C1        1.0  0.9235571885271555  0.14415149408770833  0.3819964401495923  1.0000
  C   C2        1.0  0.20444721022682444  0.9109456019498127  0.6919698808206575  1.0000
  C   C3        1.0  0.07565599102773748  0.14642151124545674  0.6215484356517678  1.0000
  C   C4        1.0  0.8036675457591543  0.9104141796634834  0.31370745245523324  1.0000
  C   C5        1.0  0.42377738309399154  0.6447219226193751  0.8796316622731695  1.0000
  C   C6        1.0  0.6931431597477697  0.42437359925622076  0.19178093886622352  1.0000
  C   C7        1.0  0.5759201475682686  0.6504172008117307  0.11682528911828172  1.0000
  C   C8        1.0  0.29306331411746805  0.4097877275941427  0.8105029150162154  1.0000
  C   C9        1.0  0.7574562959776897  0.04636104225722449  0.6615708881566675  1.0000
  C   C10       1.0  0.16386708187925336  0.834064233092718  0.46879427621185243  1.0000
  C   C11       1.0  0.2510698375997151  0.04979552653546189  0.3458202531466413  1.0000
  C   C12       1.0  0.8422628727679752  0.8332562468186284  0.5364344880556048  1.0000
  C   C13       1.0  0.24884202225391763  0.5481298784256552  0.15806669159108816  1.0000
  C   C14       1.0  0.656515765129889  0.3356112090190776  0.9642147377919201  1.0000
  C   C15       1.0  0.7436164568671728  0.5467066543399566  0.8398558680356134  1.0000
  C   C16       1.0  0.33550305834130256  0.3344159157300552  0.0355809042414208  1.0000
  C   C17       1.0  0.8857389476176393  0.051216975089474204  0.7265323615995812  1.0000
  C   C18       1.0  0.050518001553747596  0.8255142399484328  0.3876912863143787  1.0000
  C   C19       1.0  0.12140415404041253  0.05134368411683  0.2826716867133285  1.0000
  C   C20       1.0  0.9534351319184182  0.8250745451151574  0.619130754616748  1.0000
  C   C21       1.0  0.37940121306940705  0.555017743228305  0.22001831487158804  1.0000
  C   C22       1.0  0.5451004097796925  0.3252959896301491  0.8815671140054704  1.0000
  C   C23       1.0  0.6144948472103807  0.5495021670483097  0.7760313173486679  1.0000
  C   C24       1.0  0.4491195377158661  0.33068830228396706  0.11674993123818209  1.0000
  C   C25       1.0  0.1291657954000627  0.15603669842151646  0.5099503774161676  1.0000
  C   C26       1.0  0.700802655855277  0.9481347988286684  0.39179456734348866  1.0000
  C   C27       1.0  0.8605482237140406  0.15327391880413188  0.4904680965128563  1.0000
  C   C28       1.0  0.3068089990501477  0.9513774995034793  0.6143568299530814  1.0000
  C   C29       1.0  0.6364145778849633  0.6590438125416966  0.007527743959457204  1.0000
  C   C30       1.0  0.19194203024560616  0.45135765307823295  0.8881862378915173  1.0000
  C   C31       1.0  0.3693508071249809  0.6562120653444125  0.9908107856768708  1.0000
  C   C32       1.0  0.79844474362433  0.452830188963432  0.11188144877792891  1.0000
  C   C33       1.0  0.8723329786381485  0.19428944259056635  0.4251014146593093  1.0000
  C   C34       1.0  0.30107397081958004  0.9114211349073785  0.6808957455492931  1.0000
  C   C35       1.0  0.11474966545787171  0.1997655576024187  0.5738022743299498  1.0000
  C   C36       1.0  0.7067992758263345  0.9105357363037  0.3234782615160157  1.0000
  C   C37       1.0  0.383022973973695  0.6982323672319525  0.926173778525296  1.0000
  C   C38       1.0  0.7903229137230311  0.4226838129005159  0.18339249888290252  1.0000
  C   C39       1.0  0.6221924510271678  0.7024435872729312  0.07172480503707851  1.0000
  C   C40       1.0  0.19634078098697222  0.41183108054266876  0.8208229215884516  1.0000
  C   C41       1.0  0.7940143021267048  0.0738933971996616  0.7281181160722455  1.0000
  C   C42       1.0  0.12773221331865162  0.786926601591496  0.4138740450967974  1.0000
  C   C43       1.0  0.21299605621099724  0.0758646997469654  0.2798579713186982  1.0000
  C   C44       1.0  0.8755734753755677  0.7864035036676141  0.5913401767709416  1.0000
  C   C45       1.0  0.28724441991438  0.5758770844456362  0.22391715156114603  1.0000
  C   C46       1.0  0.6230200983368022  0.28804258355533807  0.9086093745475311  1.0000
  C   C47       1.0  0.7065370153529997  0.5729025620953576  0.7736697612312042  1.0000
  C   C48       1.0  0.37164444161724935  0.2898474343977213  0.0913764885613162  1.0000
  C   C49       1.0  0.1996550028357404  0.17960413907746187  0.19336304374733973  1.0000
  C   C50       1.0  0.8817059144824597  0.6650188646258285  0.6564578324273995  1.0000
  C   C51       1.0  0.8025732809345743  0.1797784235396946  0.8147481491222237  1.0000
  C   C52       1.0  0.1169555071674893  0.6656975521037723  0.3462252545642528  1.0000
  C   C53       1.0  0.6975642484723394  0.6781992747149204  0.6885988340423809  1.0000
  C   C54       1.0  0.38355179279106005  0.17037214388017222  0.15964844027988787  1.0000
  C   C55       1.0  0.2999250608597634  0.6808298067299745  0.31056729804474514  1.0000
  C   C56       1.0  0.6165749318663458  0.16644936611834277  0.8415852802079514  1.0000
  C   C57       1.0  0.7378846413497655  0.7288754918411013  0.6429925230597392  1.0000
  C   C58       1.0  0.34548611752098424  0.11906783688129251  0.20649970050920533  1.0000
  C   C59       1.0  0.26223868935161215  0.7306936019975793  0.35827977681689305  1.0000
  C   C60       1.0  0.658066663602085  0.11499915259695828  0.7969672539795454  1.0000
  C   C61       1.0  0.23726652324003086  0.2302604291119081  0.1462965995972212  1.0000
  C   C62       1.0  0.8408679479368149  0.6137461756876448  0.7018183635469059  1.0000
  C   C63       1.0  0.7615046361949425  0.23073220128087257  0.8595471809142056  1.0000
  C   C64       1.0  0.1552337102010313  0.614952194959045  0.298937074497033  1.0000
  C   C65       1.0  0.8315075944407726  0.7244609473806918  0.627375414070606  1.0000
  C   C66       1.0  0.2531680206744156  0.12363573898725377  0.22560020125629876  1.0000
  C   C67       1.0  0.16917355702700831  0.7253406887204149  0.3757285848572636  1.0000
  C   C68       1.0  0.7514739991220054  0.1216340458246279  0.7812076584286843  1.0000
  C   C69       1.0  0.33072386243144797  0.2279394789613249  0.1297180838260275  1.0000
  C   C70       1.0  0.7485091789381286  0.6203753216691721  0.7201285042844106  1.0000
  C   C71       1.0  0.6669652725681275  0.22636762269853244  0.872515021696657  1.0000
  C   C72       1.0  0.24701398405299815  0.6226333950217439  0.27890003369201827  1.0000
  C   C73       1.0  0.13651408660675202  0.2746501787535535  0.5940031002125252  1.0000
  C   C74       1.0  0.6387670957776307  0.8792524841471305  0.273541130290738  1.0000
  C   C75       1.0  0.8328922425793976  0.2602327741901362  0.396635662422959  1.0000
  C   C76       1.0  0.3688431091681252  0.8779808960407749  0.7282593657553066  1.0000
  C   C77       1.0  0.648268577033072  0.7759374846579234  0.094073564000702  1.0000
  C   C78       1.0  0.12734402173887102  0.380103761076036  0.7721175421917154  1.0000
  C   C79       1.0  0.3597547045263312  0.7717565196881182  0.9049239553875809  1.0000
  C   C80       1.0  0.8550405630304924  0.38994390881392604  0.23498030017305643  1.0000
  C   C81       1.0  0.10454076239955869  0.30604122416598756  0.6576856142166889  1.0000
  C   C82       1.0  0.6606148778436208  0.8601770162508656  0.2025904894019064  1.0000
  C   C83       1.0  0.8699430575833277  0.299736457272985  0.33975565431911303  1.0000
  C   C84       1.0  0.347957418674639  0.85708187508979  0.7987236139673402  1.0000
  C   C85       1.0  0.6160988070838868  0.8074825800208174  0.1576636691466149  1.0000
  C   C86       1.0  0.14812347716362953  0.36041088874447513  0.7011088702750641  1.0000
  C   C87       1.0  0.3908309740623892  0.8028435001356158  0.8409696973303298  1.0000
  C   C88       1.0  0.8233118108429736  0.34637398060976204  0.2912042879925991  1.0000
  N   N1        1.0  0.938476728728226  0.08165112094098961  0.41742706824238246  1.0000
  N   N2        1.0  0.1597161281312651  0.9481465426021102  0.6402043110869045  1.0000
  N   N3        1.0  0.06803356760035939  0.0807673781817542  0.5894896778295261  1.0000
  N   N4        1.0  0.8484711337812314  0.945601503626584  0.3679570499784433  1.0000
  N   N5        1.0  0.43289266155797185  0.5804661644313426  0.9129837401986478  1.0000
  N   N6        1.0  0.6506363731832041  0.45397873555376134  0.1344648189302902  1.0000
  N   N7        1.0  0.5641144176645128  0.5860519753944827  0.08296703183076201  1.0000
  N   N8        1.0  0.3392056476918626  0.4459420405122642  0.8634128208657118  1.0000
  N   N9        1.0  0.8219965627658469  0.0114461694151871  0.6244959188891316  1.0000
  N   N10       1.0  0.11209387039306051  0.8948460783984301  0.47404535168426776  1.0000
  N   N11       1.0  0.1873441123461177  0.014005032494644404  0.3837006761200286  1.0000
  N   N12       1.0  0.896150470974881  0.893978405836435  0.5326386764837068  1.0000
  N   N13       1.0  0.3130415813329749  0.5148125881114822  0.11917823740365213  1.0000
  N   N14       1.0  0.6028975275374292  0.3953627995527994  0.9690170566191373  1.0000
  N   N15       1.0  0.6789625976355894  0.5118441894595733  0.8775018594722114  1.0000
  N   N16       1.0  0.3875491559245319  0.3958333043016822  0.028956497251265007  1.0000
  N   N17       1.0  0.9029509027148422  0.014103746221763898  0.6657912709783887  1.0000
  N   N18       1.0  0.041554694663979305  0.889537128429588  0.4230800023239993  1.0000
  N   N19       1.0  0.10561471902372689  0.014664985353178398  0.34349933891810025  1.0000
  N   N20       1.0  0.9652728353687792  0.8889162304166972  0.5846093785575662  1.0000
  N   N21       1.0  0.3953324886033515  0.5188528751897223  0.1585991381099134  1.0000
  N   N22       1.0  0.5335635715012897  0.38888309477552946  0.9171526104017858  1.0000
  N   N23       1.0  0.5974672851578973  0.513252010994286  0.8369294690695882  1.0000
  N   N24       1.0  0.4581752860892649  0.39344427807578336  0.0798648129513069  1.0000
  N   N25       1.0  0.1030837623680938  0.08600206894551118  0.5202068838580161  1.0000
  N   N26       1.0  0.7839456932524983  0.9681843942671547  0.4177247343619328  1.0000
  N   N27       1.0  0.8988853675313636  0.0869391401624071  0.48530570229221587  1.0000
  N   N28       1.0  0.22386612122125624  0.9725450577324678  0.5906097513144033  1.0000
  N   N29       1.0  0.6034303504281838  0.5904563678148731  0.015133924538460502  1.0000
  N   N30       1.0  0.2757303888490057  0.47097486502128305  0.9129780915112847  1.0000
  N   N31       1.0  0.3973784927491977  0.5868407890167688  0.9820727885947776  1.0000
  N   N32       1.0  0.7163110893935921  0.47136647976477514  0.0839120426616518  1.0000
  N   N33       1.0  0.5488297166842883  0.8603514392398921  0.2993543762751045  1.0000
  N   N34       1.0  0.20188465351148474  0.3173711104701339  0.5522712169105901  1.0000
  N   N35       1.0  0.45723633248107387  0.8591910765919619  0.700218461860331  1.0000
  N   N36       1.0  0.74639463687177  0.28460135150741905  0.4271795861347272  1.0000
  N   N37       1.0  0.037895495260251294  0.3614776341250446  0.799021977567989  1.0000
  N   N38       1.0  0.71781219868393  0.8167028650465794  0.054686172806356084  1.0000
  N   N39       1.0  0.9525750863138995  0.4029130760357161  0.22950199751599606  1.0000
  N   N40       1.0  0.294086265959379  0.8134747329663983  0.9467497516996989  1.0000
  O   O1        1.0  0.9491879076994395  0.15835670206090668  0.31432567009762385  1.0000
  O   O2        1.0  0.15970925088895171  0.8774468413873251  0.745787456601491  1.0000
  O   O3        1.0  0.05199364587321039  0.16039050288522816  0.6900139363040411  1.0000
  O   O4        1.0  0.8487477983564345  0.8788821556162743  0.2589831452097259  1.0000
  O   O5        1.0  0.4475841869131899  0.6572937370568466  0.8110684021069262  1.0000
  O   O6        1.0  0.64418801571275  0.4011759540467565  0.2486478044001643  1.0000
  O   O7        1.0  0.5498291882200235  0.6641699664173047  0.1846869525312371  1.0000
  O   O8        1.0  0.33660707567913317  0.37542102132532307  0.7566195622165424  1.0000
  O   O9        1.0  0.9580548462254656  0.061608052386112895  0.7753954789905109  1.0000
  O   O10       1.0  0.9923860527482306  0.8071486525496211  0.3302844793020867  1.0000
  O   O11       1.0  0.048126211986797784  0.059389991938182604  0.2346329862654812  1.0000
  O   O12       1.0  0.009935806576493195  0.8071697497043928  0.6770401904094498  1.0000
  O   O13       1.0  0.45295464179908157  0.5658008168551234  0.2675426292377097  1.0000
  O   O14       1.0  0.48804321057640015  0.3066190061256576  0.8235415977231855  1.0000
  O   O15       1.0  0.5419464468037491  0.5583509221239353  0.7274970510356625  1.0000
  O   O16       1.0  0.507495098179831  0.31588769212727646  0.1744422388534588  1.0000
  O   O17       1.0  0.16236621058418174  0.17556900808675382  0.4461109179795315  1.0000
  O   O18       1.0  0.6275433960770586  0.9641010991979189  0.4306304863100436  1.0000
  O   O19       1.0  0.8197543516118415  0.17212727386404228  0.5515440502161226  1.0000
  O   O20       1.0  0.3796513686823104  0.9685182370753652  0.5751478080184711  1.0000
  O   O21       1.0  0.6755990369678314  0.6776681145004488  0.9456478849320361  1.0000
  O   O22       1.0  0.11951571381211322  0.4693918986279185  0.9270971329643772  1.0000
  O   O23       1.0  0.335140567144073  0.6765492400548966  0.0541599078742934  1.0000
  O   O24       1.0  0.8714722259729939  0.4608632273384075  0.07066011003708893  1.0000
  O   O25       1.0  0.5374543814181579  0.8576433889704518  0.36751321419031063  1.0000
  O   O26       1.0  0.48444463845889624  0.8466923206063867  0.2551833029710764  1.0000
  O   O27       1.0  0.25016380691874934  0.2844285386673278  0.506622524977182  1.0000
  O   O28       1.0  0.2085624283653971  0.38484974862364396  0.5624565700647253  1.0000
  O   O29       1.0  0.46752882746152835  0.860080822695508  0.6318958862175208  1.0000
  O   O30       1.0  0.5214681107559898  0.8422811644799282  0.7427055962056032  1.0000
  O   O31       1.0  0.7405603031009704  0.2857573402825508  0.49538447655221773  1.0000
  O   O32       1.0  0.6832979894670075  0.3053339771279369  0.38627114860725  1.0000
  O   O33       1.0  0.0267404019931448  0.36203291086867045  0.8672499100718412  1.0000
  O   O34       1.0  0.9735739957781889  0.3451428008129652  0.7556320524977096  1.0000
  O   O35       1.0  0.766817555782545  0.7823733452535677  0.010512910936910203  1.0000
  O   O36       1.0  0.7273799260914658  0.8839082193430412  0.06546143150556821  1.0000
  O   O37       1.0  0.006694074253765297  0.3789114025083506  0.2769471597987944  1.0000
  O   O38       1.0  0.982837354289032  0.44084262036528077  0.1772369370909246  1.0000
  O   O39       1.0  0.2443358978307231  0.7796390367171567  0.9909494126105117  1.0000
  O   O40       1.0  0.28855973840081367  0.8809140757473414  0.9378077078940166  1.0000
