data_image0
_chemical_formula_structural       Zn4H46C84N22O12
_chemical_formula_sum              "Zn4 H46 C84 N22 O12"
_cell_length_a       19.993089427532244
_cell_length_b       19.070440785879853
_cell_length_c       21.455275679769212
_cell_angle_alpha    106.19210531664677
_cell_angle_beta     108.7005595793514
_cell_angle_gamma    113.19907021253029

_space_group_name_H-M_alt    "P 1"
_space_group_IT_number       1

loop_
  _space_group_symop_operation_xyz
  'x, y, z'

loop_
  _atom_site_type_symbol
  _atom_site_label
  _atom_site_symmetry_multiplicity
  _atom_site_fract_x
  _atom_site_fract_y
  _atom_site_fract_z
  _atom_site_occupancy
  Zn  Zn1       1.0  0.903834297784485  0.8882405647499992  0.5242003386672279  1.0000
  Zn  Zn2       1.0  0.12160726320993832  0.0902889155584177  0.4851099719814016  1.0000
  Zn  Zn3       1.0  0.1495036082398258  0.9973538584693526  0.6094985802182222  1.0000
  Zn  Zn4       1.0  0.9181810534232896  0.9979056410570522  0.414432304886752  1.0000
  H   H1        1.0  0.1596410867771354  0.26177268259441894  0.44252220694517064  1.0000
  H   H2        1.0  0.11146867786522562  0.24506701864383731  0.6083090337960401  1.0000
  H   H3        1.0  0.7579140326201071  0.9138820648309433  0.536518805760558  1.0000
  H   H4        1.0  0.9186465608594716  0.17270624396884668  0.432062654587348  1.0000
  H   H5        1.0  0.09786938736871782  0.10952073812785561  0.7892367829596411  1.0000
  H   H6        1.0  0.7149843162330144  0.7155207508025184  0.4000568708601976  1.0000
  H   H7        1.0  0.23257597001493485  0.054978197602132226  0.41966854905664525  1.0000
  H   H8        1.0  0.13649645234390562  0.8225923290545794  0.5746481236367558  1.0000
  H   H9        1.0  0.8873125098903715  0.008715160085316078  0.259373634531812  1.0000
  H   H10       1.0  0.13311169598523517  0.04667695238777008  0.3425962119594175  1.0000
  H   H11       1.0  0.8994214494445816  0.7457936178671076  0.4007281346051812  1.0000
  H   H12       1.0  0.7704162939880421  0.8390188730462785  0.2661136514765731  1.0000
  H   H13       1.0  0.2507992710329959  0.9258946326137832  0.554909925178123  1.0000
  H   H14       1.0  0.2932173731611556  0.8553318110002408  0.48888428561469505  1.0000
  H   H15       1.0  0.3120864552114854  0.012936662103221957  0.37683114212997293  1.0000
  H   H16       1.0  0.5176765332677675  0.021166660778064245  0.3083318519173303  1.0000
  H   H17       1.0  0.6370028921569855  0.005312663869673927  0.36635989443723815  1.0000
  H   H18       1.0  0.6180945138681652  0.8467022195057013  0.47720996955009554  1.0000
  H   H19       1.0  0.4902603382768049  0.7756280279655458  0.48687883039390567  1.0000
  H   H20       1.0  0.36926977382957205  0.7785233050550673  0.4911267750097466  1.0000
  H   H21       1.0  0.14443311574108722  0.7369711669411744  0.46481058405449016  1.0000
  H   H22       1.0  0.8791805412633027  0.5895587603776634  0.3808562967322117  1.0000
  H   H23       1.0  0.8025774177852371  0.4295510878695055  0.32126214599144726  1.0000
  H   H24       1.0  0.8080455214093406  0.300411067346417  0.31409406715992816  1.0000
  H   H25       1.0  0.8936683828160953  0.24043330940932622  0.3562762917661075  1.0000
  H   H26       1.0  0.15964637092370285  0.38818711655024174  0.4427212295019203  1.0000
  H   H27       1.0  0.6060957309410356  0.8008642200687959  0.24027358353924894  1.0000
  H   H28       1.0  0.3338493076831028  0.3239355921054781  0.814249050776489  1.0000
  H   H29       1.0  0.10336466077212245  0.31800476618814605  0.7520707099232241  1.0000
  H   H30       1.0  0.3182454814028688  0.5775749125136757  0.9971104340084623  1.0000
  H   H31       1.0  0.4642175955391537  0.4845594322661668  0.13505344022274818  1.0000
  H   H32       1.0  0.39988455553424285  0.4503726959690582  0.9340158702708694  1.0000
  H   H33       1.0  0.3817486132961535  0.4635548948742782  0.031518044452099034  1.0000
  H   H34       1.0  0.17024938908633658  0.44573076846970844  0.8729866460825377  1.0000
  H   H35       1.0  0.061101674917353035  0.18054768902968024  0.8501295842589657  1.0000
  H   H36       1.0  0.9271774580996919  0.10620093770813102  0.22279226308005207  1.0000
  H   H37       1.0  0.09542609789603773  0.2185182475393006  0.07494037472148561  1.0000
  H   H38       1.0  0.8346537010303552  0.007447059626827126  0.890501377713072  1.0000
  H   H39       1.0  0.9356197136082827  0.17005092664378915  0.1392878769007168  1.0000
  H   H40       1.0  0.8314615632645755  0.9458137263013171  0.7713422681275973  1.0000
  H   H41       1.0  0.9069439134801273  0.10615344731343168  0.016704264757834222  1.0000
  H   H42       1.0  0.06611410595091631  0.24004882450655884  0.9693656823214312  1.0000
  H   H43       1.0  0.39666790204661606  0.024237476689748443  0.3124707317142636  1.0000
  H   H44       1.0  0.22675752108268207  0.5317881935925827  0.44686446206240055  1.0000
  H   H45       1.0  0.22139354715629625  0.6611559394693177  0.45504425328142883  1.0000
  H   H46       1.0  0.7696982216491011  0.026342797784678924  0.38857580289887034  1.0000
  C   C1        1.0  0.9100541459521738  0.9454125822737682  0.6688178071025775  1.0000
  C   C2        1.0  0.101698891024931  0.23028652553009016  0.44357150861517175  1.0000
  C   C3        1.0  0.18730698205255442  0.16086746680964845  0.7017436733445948  1.0000
  C   C4        1.0  0.7802873090003928  0.0020175858722594683  0.4286343183543053  1.0000
  C   C5        1.0  0.13206130098717495  0.20924158177293614  0.6320399550987403  1.0000
  C   C6        1.0  0.7758699376347096  0.9451065245030817  0.5045458453255094  1.0000
  C   C7        1.0  0.9781851520308396  0.18363098604543635  0.4371552526529853  1.0000
  C   C8        1.0  0.038595190502192615  0.054470899266974  0.742832527048698  1.0000
  C   C9        1.0  0.960762665082754  0.018264666394287407  0.7407856738978964  1.0000
  C   C10       1.0  0.034970523576767214  0.24334709127492  0.4250686630095899  1.0000
  C   C11       1.0  0.1768225648815474  0.23137793806906615  0.7070967542718591  1.0000
  C   C12       1.0  0.7261127663073099  0.9581220871560705  0.45124544086653645  1.0000
  C   C13       1.0  0.7423197555716002  0.7548163738616368  0.37652214788364086  1.0000
  C   C14       1.0  0.22964261521261886  0.02804036888920794  0.4577564469229998  1.0000
  C   C15       1.0  0.08026143419224502  0.8173254390018273  0.5386952967890083  1.0000
  C   C16       1.0  0.9459392037387887  0.013810594867571574  0.2882928493236676  1.0000
  C   C17       1.0  0.07090746245753371  0.032425094720245816  0.33019221433931284  1.0000
  C   C18       1.0  0.9591588435028626  0.7778725085600229  0.4502320946455995  1.0000
  C   C19       1.0  0.7709639016991119  0.8197208617494454  0.30932107657464064  1.0000
  C   C20       1.0  0.2387650095753956  0.9619612512025241  0.526330534145366  1.0000
  C   C21       1.0  0.7056847712090717  0.7523889905603411  0.30756556090742043  1.0000
  C   C22       1.0  0.2563341935093035  0.9729433427648645  0.4701761085537798  1.0000
  C   C23       1.0  0.01647096628341421  0.751717883647004  0.4674801186365727  1.0000
  C   C24       1.0  0.017323326950681  0.045020827066153395  0.2796559236374351  1.0000
  C   C25       1.0  0.3186782178085466  0.8833269938304014  0.4577778064847138  1.0000
  C   C26       1.0  0.29964980581400624  0.9405896300274251  0.43888759952770334  1.0000
  C   C27       1.0  0.32884622748238  0.9712237674674211  0.39476957493332065  1.0000
  C   C28       1.0  0.3847705204251285  0.9547623439096358  0.37744397756615206  1.0000
  C   C29       1.0  0.41220246765360014  0.9057290233713929  0.4054152803738588  1.0000
  C   C30       1.0  0.3746270985560046  0.8652925958687588  0.4421251713894918  1.0000
  C   C31       1.0  0.42146843608907153  0.9917952494149346  0.3382512077902646  1.0000
  C   C32       1.0  0.48835368120605693  0.9901380752829565  0.33600191061599105  1.0000
  C   C33       1.0  0.5241894484718587  0.9513928986402361  0.37274314488777804  1.0000
  C   C34       1.0  0.4816310519848273  0.9040557938123542  0.4030962801720861  1.0000
  C   C35       1.0  0.5140846597448318  0.8620146641721295  0.43745775611826343  1.0000
  C   C36       1.0  0.46829337272048127  0.8121834573546423  0.4649304883134846  1.0000
  C   C37       1.0  0.4013861001042259  0.8138034551929181  0.4671752492352468  1.0000
  C   C38       1.0  0.6024172231288389  0.9645126318800339  0.38558728361826416  1.0000
  C   C39       1.0  0.6393563061848297  0.9321359970299311  0.427339580864924  1.0000
  C   C40       1.0  0.5922042168327337  0.8764306441125814  0.44846767692962425  1.0000
  C   C41       1.0  0.0866053857187623  0.6748093880283079  0.4391017207344063  1.0000
  C   C42       1.0  0.012489155024020709  0.6722607836440063  0.42908348632091287  1.0000
  C   C43       1.0  0.9373400332082229  0.5921384631660943  0.39057860788435755  1.0000
  C   C44       1.0  0.9366115842064531  0.5151582908482623  0.3711371842837464  1.0000
  C   C45       1.0  0.0137893216233422  0.5189957259068619  0.3904124284800901  1.0000
  C   C46       1.0  0.0889565523808287  0.5996048205992395  0.42065889990736594  1.0000
  C   C47       1.0  0.8619124591562937  0.4330068306472937  0.33943218667005226  1.0000
  C   C48       1.0  0.8650268584539804  0.36170796385353304  0.3354705763775598  1.0000
  C   C49       1.0  0.9430310587768531  0.36629035079922556  0.3625228290133292  1.0000
  C   C50       1.0  0.016959173302360905  0.4448058639804131  0.38586880327369505  1.0000
  C   C51       1.0  0.09510672297793828  0.45025947160270613  0.4108352232966369  1.0000
  C   C52       1.0  0.16796520448565394  0.5292507241533001  0.4320404666518343  1.0000
  C   C53       1.0  0.16496105839402736  0.6007602449068443  0.43665167166077623  1.0000
  C   C54       1.0  0.9500159211465304  0.29908826251751464  0.37165689630337795  1.0000
  C   C55       1.0  0.02782947729334501  0.307540996407063  0.4037169803117423  1.0000
  C   C56       1.0  0.09893394145326793  0.38138794994694075  0.41920369474669883  1.0000
  C   C57       1.0  0.6196684502290211  0.6963179304860533  0.2479259854769111  1.0000
  C   C58       1.0  0.5765427430781219  0.7311865349736097  0.216595995652682  1.0000
  C   C59       1.0  0.49605879895410965  0.6794646818341832  0.15632265192736838  1.0000
  C   C60       1.0  0.4532739035063501  0.588125504168083  0.12086343598274846  1.0000
  C   C61       1.0  0.4942075912285874  0.5542886536208016  0.15774574063378566  1.0000
  C   C62       1.0  0.5736956535379962  0.6061056164523819  0.21817210096435957  1.0000
  C   C63       1.0  0.3341100236961694  0.4199230306636609  0.895160536884717  1.0000
  C   C64       1.0  0.2971358954662334  0.34918825119304125  0.8274884016934793  1.0000
  C   C65       1.0  0.1685818598169604  0.3470695677174974  0.7919224742014137  1.0000
  C   C66       1.0  0.20622513291436212  0.4189392377147527  0.8602327008711727  1.0000
  C   C67       1.0  0.28880817329454095  0.4547574482430009  0.9143843632709476  1.0000
  C   C68       1.0  0.38421217572255273  0.5246100975380016  0.046285293512269635  1.0000
  C   C69       1.0  0.3302028463911597  0.5255632288137307  0.989263595477361  1.0000
  C   C70       1.0  0.21301196800818906  0.30983931462104414  0.7753059846184771  1.0000
  C   C71       1.0  0.949423931788687  0.05504843364317235  0.8032790294400486  1.0000
  C   C72       1.0  0.012369415199394506  0.1407794809377947  0.8593057466734778  1.0000
  C   C73       1.0  0.014944574620812999  0.17501793140771582  0.9266143705216122  1.0000
  C   C74       1.0  0.9533793786930574  0.12548480173776277  0.9409139245228034  1.0000
  C   C75       1.0  0.884779572277111  0.045270242721962055  0.8815719477533364  1.0000
  C   C76       1.0  0.8830234233584876  0.009956631709407129  0.8145158890859819  1.0000
  C   C77       1.0  0.9812949065207732  0.1535360879678435  0.16119858303390075  1.0000
  C   C78       1.0  0.975484596650702  0.11559294981314856  0.20704778577834296  1.0000
  C   C79       1.0  0.0969886329470597  0.11292495829196271  0.21972013857330808  1.0000
  C   C80       1.0  0.10675170614162971  0.1569067566626074  0.1777919650301882  1.0000
  C   C81       1.0  0.0447597303723271  0.17157738279559712  0.1414526006221166  1.0000
  C   C82       1.0  0.9634599480560837  0.14366537910058944  0.014870174327796705  1.0000
  C   C83       1.0  0.0382861238639052  0.18646945171486357  0.0773232652356768  1.0000
  C   C84       1.0  0.03011562391919401  0.08869173003729003  0.234616896556318  1.0000
  N   N1        1.0  0.9560401948628654  0.9441319016400983  0.6338572619442575  1.0000
  N   N2        1.0  0.08460035119989581  0.16761854298346895  0.46422797137280725  1.0000
  N   N3        1.0  0.15086675080416975  0.10383743167696484  0.6301935184775048  1.0000
  N   N4        1.0  0.8552715011585762  0.011967681729416455  0.46492400596372363  1.0000
  N   N5        1.0  0.11786449197639833  0.1321573419369884  0.5869162760755061  1.0000
  N   N6        1.0  0.8526962721865491  0.9757613722236375  0.5118096402441951  1.0000
  N   N7        1.0  0.0083396773680278  0.138285506535162  0.4604708212298619  1.0000
  N   N8        1.0  0.03458389073998801  0.010396998006761707  0.679070248881132  1.0000
  N   N9        1.0  0.8224231305439531  0.8198474466650937  0.4159256794803098  1.0000
  N   N10       1.0  0.19833870871985942  0.047789831758720425  0.5027674217986587  1.0000
  N   N11       1.0  0.06256245536561522  0.8779146436396842  0.5621065017505559  1.0000
  N   N12       1.0  0.9579319606437767  0.9877575250485435  0.34061672230399154  1.0000
  N   N13       1.0  0.03605368987065561  9.541262475920414e-05  0.36804465472231135  1.0000
  N   N14       1.0  0.9874063931769685  0.8541193626524688  0.5065694729726289  1.0000
  N   N15       1.0  0.8412645102538863  0.8597795403509566  0.37470630915668585  1.0000
  N   N16       1.0  0.20428270211661476  0.006232306193524604  0.5454048053975812  1.0000
  N   N17       1.0  0.8255257972895863  0.8771807134008113  0.6275627649347939  1.0000
  N   N18       1.0  0.22361317794913302  0.1367498063669998  0.7537182431181079  1.0000
  N   N19       1.0  0.6115314058175372  0.5613269372907439  0.24687764269268794  1.0000
  N   N20       1.0  0.45844203152938695  0.7256747530733989  0.1312470951560343  1.0000
  N   N21       1.0  0.16038814955094693  0.0930074287829257  0.25167731822854483  1.0000
  N   N22       1.0  0.17948484409460974  0.1811648817729576  0.1659442712916857  1.0000
  O   O1        1.0  0.8008400831105437  0.8222002643401896  0.5627449219017039  1.0000
  O   O2        1.0  0.7778131409201025  0.8727786089495455  0.6538972202314568  1.0000
  O   O3        1.0  0.22487041119692464  0.06818379853536531  0.7276708775106187  1.0000
  O   O4        1.0  0.25206574606349363  0.1796761355683145  0.8208035888392616  1.0000
  O   O5        1.0  0.6789061308366443  0.5771092998621298  0.24948906872590015  1.0000
  O   O6        1.0  0.5719900990081116  0.510099101105965  0.26509149324039083  1.0000
  O   O7        1.0  0.38155551178549996  0.6895323219764224  0.10323572882032295  1.0000
  O   O8        1.0  0.5056717256331852  0.7985634672015608  0.14111586740081353  1.0000
  O   O9        1.0  0.22783243669938  0.1540265217496852  0.30651118321128473  1.0000
  O   O10       1.0  0.1398851230425677  0.016984514757730596  0.2241617161089664  1.0000
  O   O11       1.0  0.19981388173524553  0.12758001254304932  0.1517541482113103  1.0000
  O   O12       1.0  0.21518575511900914  0.25392311264796763  0.17080129065906394  1.0000
