data_image0
_chemical_formula_structural       Ni4H136C128N16O22
_chemical_formula_sum              "Ni4 H136 C128 N16 O22"
_cell_length_a       13.663236487243303
_cell_length_b       13.970464274382335
_cell_length_c       19.073576967691217
_cell_angle_alpha    67.38533804121484
_cell_angle_beta     74.94084025788474
_cell_angle_gamma    83.56267863755996

_space_group_name_H-M_alt    "P 1"
_space_group_IT_number       1

loop_
  _space_group_symop_operation_xyz
  'x, y, z'

loop_
  _atom_site_type_symbol
  _atom_site_label
  _atom_site_symmetry_multiplicity
  _atom_site_fract_x
  _atom_site_fract_y
  _atom_site_fract_z
  _atom_site_occupancy
  Ni  Ni1       1.0  0.4122071071630628  0.6379384225704355  0.20468427042055054  1.0000
  Ni  Ni2       1.0  0.5835894694231029  0.3722921659524305  0.7846310792103215  1.0000
  Ni  Ni3       1.0  0.18560774334580538  0.8727751025142537  0.6069362832917309  1.0000
  Ni  Ni4       1.0  0.8282377095165144  0.12789730081059497  0.3897266788208641  1.0000
  H   H1        1.0  0.37204144331748523  0.42135986940587605  0.33883027197079235  1.0000
  H   H2        1.0  0.6194844384832406  0.5572303861815939  0.702139174914237  1.0000
  H   H3        1.0  0.3717051790117337  0.4827740242205536  0.39115625439367835  1.0000
  H   H4        1.0  0.5691305798211984  0.5067890009628186  0.657844288565336  1.0000
  H   H5        1.0  0.6027090314338395  0.4757504295764577  0.21211421397401162  1.0000
  H   H6        1.0  0.39248755886998044  0.5219000682238644  0.799364563422991  1.0000
  H   H7        1.0  0.6970325737732636  0.5402909096902421  0.9237223819274195  1.0000
  H   H8        1.0  0.3139555799895389  0.44606148616219327  0.08913500620847271  1.0000
  H   H9        1.0  0.80837893859686  0.4331474019026517  0.010558040279107714  1.0000
  H   H10       1.0  0.19762346467032899  0.5563375399361448  0.007858846457665448  1.0000
  H   H11       1.0  0.761859904716772  0.39875543731452723  0.1524315034275149  1.0000
  H   H12       1.0  0.23654767016559217  0.5966828523472573  0.865339867387178  1.0000
  H   H13       1.0  0.3204207181164378  0.7399345885059959  0.08723182785212205  1.0000
  H   H14       1.0  0.6919206942572558  0.2733092848914537  0.9028203548927398  1.0000
  H   H15       1.0  0.2885511257914644  0.6645035096626513  0.0389748366992678  1.0000
  H   H16       1.0  0.7115234924504604  0.3211655936918731  0.9725932176778685  1.0000
  H   H17       1.0  0.3617057243267396  0.7776584329611325  0.9833378971123283  1.0000
  H   H18       1.0  0.6428605706339852  0.2054153305419035  0.005187385013321917  1.0000
  H   H19       1.0  0.42551295412850715  0.6696851243869162  0.9066379408544311  1.0000
  H   H20       1.0  0.5873244587424579  0.3142261896986867  0.09527181289367806  1.0000
  H   H21       1.0  0.5487536440021473  0.6229956672633817  0.8794955768507227  1.0000
  H   H22       1.0  0.46699813063838747  0.3643931732629824  0.12596361063370415  1.0000
  H   H23       1.0  0.5058525863998824  0.8319935746593287  0.901572715122605  1.0000
  H   H24       1.0  0.5009903817198591  0.15472009685495886  0.10451702384419555  1.0000
  H   H25       1.0  0.6244492827378565  0.7857340971362915  0.8638368896817571  1.0000
  H   H26       1.0  0.38366170232293934  0.20535552532425067  0.14075655220353414  1.0000
  H   H27       1.0  0.44268753258697296  0.8536615100561491  0.7880028024527167  1.0000
  H   H28       1.0  0.5636721985021111  0.1341011979121589  0.21852358471447536  1.0000
  H   H29       1.0  0.5610952996250161  0.9139979315404998  0.7566634716214867  1.0000
  H   H30       1.0  0.4434312323850306  0.0770097870691018  0.2500682715089298  1.0000
  H   H31       1.0  0.5155321034603872  0.7069603496479928  0.7510568945722728  1.0000
  H   H32       1.0  0.49338237536782964  0.286210049567039  0.2500724343463788  1.0000
  H   H33       1.0  0.63974861678701  0.740424828989589  0.7399120951018434  1.0000
  H   H34       1.0  0.36867437481511434  0.2523706219171515  0.2635085921384147  1.0000
  H   H35       1.0  0.6324449278192786  0.8962559355214026  0.6237438432726209  1.0000
  H   H36       1.0  0.3764658752791519  0.10141872773046148  0.38290902025843837  1.0000
  H   H37       1.0  0.6048025778233991  0.7836512491827108  0.6125759482104345  1.0000
  H   H38       1.0  0.4077667998502789  0.21658065253917164  0.38886149125328034  1.0000
  H   H39       1.0  0.5919600855214142  0.0662431084426629  0.600655294064353  1.0000
  H   H40       1.0  0.41761011052273733  0.9307325492485887  0.40498037209165744  1.0000
  H   H41       1.0  0.5156712461507807  0.24113578438794298  0.5494220257463385  1.0000
  H   H42       1.0  0.49654500468613344  0.7565938135216823  0.4520933248116423  1.0000
  H   H43       1.0  0.34650088840348997  0.2646068517952358  0.5194793468026051  1.0000
  H   H44       1.0  0.6700122649173396  0.73458093573673  0.4756770421882878  1.0000
  H   H45       1.0  0.24578895326168035  0.11032054820310579  0.5441091139101247  1.0000
  H   H46       1.0  0.7687883945589533  0.8888297695929384  0.452481657994781  1.0000
  H   H47       1.0  0.34724185815584013  0.710466660744359  0.6106792536515261  1.0000
  H   H48       1.0  0.667082901120544  0.28774858936319003  0.3882060479384962  1.0000
  H   H49       1.0  0.3596400500179655  0.6839515869928761  0.706362003690487  1.0000
  H   H50       1.0  0.6468707652592159  0.314803455580261  0.2946029388107405  1.0000
  H   H51       1.0  0.47042985934420045  0.6889069693466253  0.6323462966394191  1.0000
  H   H52       1.0  0.5406195394200778  0.308520499085148  0.3734722252460189  1.0000
  H   H53       1.0  0.48835766739223624  0.8192576574295387  0.04119098471056764  1.0000
  H   H54       1.0  0.4979681802291509  0.19104380938899376  0.9479071701813314  1.0000
  H   H55       1.0  0.598204791757311  0.9628392189030065  0.9416332022388761  1.0000
  H   H56       1.0  0.39523420624498573  0.0415608619192653  0.0482442863537855  1.0000
  H   H57       1.0  0.7472537616713099  0.014509960237020898  0.9693508087921149  1.0000
  H   H58       1.0  0.24981188989728761  0.9816927868875638  0.022623062863566266  1.0000
  H   H59       1.0  0.7880180156199826  0.9264965280028364  0.09969657857079295  1.0000
  H   H60       1.0  0.20331538885959327  0.06793537452190182  0.8939048332112879  1.0000
  H   H61       1.0  0.4796855727100393  0.6503476364660725  0.35792027298831663  1.0000
  H   H62       1.0  0.5067412258049444  0.3815937140315456  0.6390927478640622  1.0000
  H   H63       1.0  0.6084095300014809  0.6142770361062091  0.36206461580431465  1.0000
  H   H64       1.0  0.38682838934769836  0.36375789640317885  0.6257579550828685  1.0000
  H   H65       1.0  0.5343670708507773  0.5433728278453245  0.33367600460461244  1.0000
  H   H66       1.0  0.40145399519060015  0.4643806030716674  0.6575974325344167  1.0000
  H   H67       1.0  0.7666009081960965  0.8474736301249661  0.22644545028482835  1.0000
  H   H68       1.0  0.2132508160468589  0.1538576335913575  0.7690466011814652  1.0000
  H   H69       1.0  0.6805295655958048  0.7851752669753082  0.31564391566382727  1.0000
  H   H70       1.0  0.2973949253421395  0.21490679112915967  0.6785343282722354  1.0000
  H   H71       1.0  0.8409392126757779  0.6637754251361586  0.23537065352411468  1.0000
  H   H72       1.0  0.1429278605713762  0.3378940658130247  0.7615195067375925  1.0000
  H   H73       1.0  0.7692130964793761  0.6176605754422226  0.33270392659014925  1.0000
  H   H74       1.0  0.21346121641351354  0.38450543054400294  0.6637190617595936  1.0000
  H   H75       1.0  0.8548216647796778  0.7758496158938825  0.3411426723696992  1.0000
  H   H76       1.0  0.1241449948834727  0.235310585886424  0.6506020603642855  1.0000
  H   H77       1.0  0.9212422720437983  0.657260233491769  0.35204870424786355  1.0000
  H   H78       1.0  0.05486103781894511  0.3500688605991583  0.6490558255146158  1.0000
  H   H79       1.0  0.027728333621169592  0.7207588203953251  0.2240975324455834  1.0000
  H   H80       1.0  0.9502989457078852  0.27219815170055034  0.7743171699953282  1.0000
  H   H81       1.0  0.9429939333879033  0.820785989688268  0.188255671171831  1.0000
  H   H82       1.0  0.04306513808556638  0.1810765340954319  0.8083859149557217  1.0000
  H   H83       1.0  0.06693988548370558  0.8155773643527766  0.30322021824976303  1.0000
  H   H84       1.0  0.9248211830904723  0.1718426178695509  0.6942975523008601  1.0000
  H   H85       1.0  0.1011855733629545  0.8827659575373233  0.20132563896996214  1.0000
  H   H86       1.0  0.8941761613933108  0.10287761888768188  0.7960267651198267  1.0000
  H   H87       1.0  0.9573289817086348  0.94774982589459  0.44085344861913733  1.0000
  H   H88       1.0  0.056155627828410104  0.0497592775553173  0.5536417567599801  1.0000
  H   H89       1.0  0.06286146085333398  0.8946845635472229  0.3892191348706435  1.0000
  H   H90       1.0  0.9473716552768606  0.10133368171843671  0.6033436163986681  1.0000
  H   H91       1.0  0.9452033565088483  0.8302744231235122  0.42826877329757485  1.0000
  H   H92       1.0  0.06366121691183217  0.16789643630226442  0.5666000747450115  1.0000
  H   H93       1.0  0.9784210097812434  0.9790943459387904  0.09955300408924482  1.0000
  H   H94       1.0  0.013248209318398093  0.016610560305693398  0.8982936655594717  1.0000
  H   H95       1.0  0.8729522929191161  0.12273526923554101  0.02831615686687883  1.0000
  H   H96       1.0  0.1176094556368952  0.8746073172151795  0.9724338818569722  1.0000
  H   H97       1.0  0.7671702550681799  0.23522502059328335  0.09263811837300306  1.0000
  H   H98       1.0  0.23174384456635974  0.7654716504858854  0.9091809547778101  1.0000
  H   H99       1.0  0.7692628585908564  0.21339468792358218  0.22876160676111115  1.0000
  H   H100      1.0  0.24067666011259092  0.7898611741000109  0.7707139588869867  1.0000
  H   H101      1.0  0.8558387530347104  0.3762422722984694  0.8476693397200566  1.0000
  H   H102      1.0  0.1504316461054316  0.6305293636324195  0.1481005665570977  1.0000
  H   H103      1.0  0.1263221441968767  0.5541229417012801  0.7850811242404138  1.0000
  H   H104      1.0  0.8802331634716936  0.4492917366435449  0.2191682171880205  1.0000
  H   H105      1.0  0.8911232660199531  0.6772003685442627  0.6618657238171866  1.0000
  H   H106      1.0  0.1227826047481884  0.33050392263638173  0.33507179277108906  1.0000
  H   H107      1.0  0.18302629682837326  0.377233940035154  0.8564192330234381  1.0000
  H   H108      1.0  0.8201930433703951  0.6150135753693107  0.14687195361518232  1.0000
  H   H109      1.0  0.11937920147692438  0.4658041222766087  0.9005726152439809  1.0000
  H   H110      1.0  0.8902858686456054  0.5311006009133551  0.10073755581936443  1.0000
  H   H111      1.0  0.197209602678754  0.31282396455264916  0.9901019695821066  1.0000
  H   H112      1.0  0.8019759805638953  0.681382940780914  0.01486455287610515  1.0000
  H   H113      1.0  0.11231351111653248  0.23019706431295353  0.9859499046546536  1.0000
  H   H114      1.0  0.8848029039029652  0.766957881350109  0.01790797385341147  1.0000
  H   H115      1.0  0.27351030734291726  0.9811766895035489  0.16271425712411525  1.0000
  H   H116      1.0  0.7102424489112806  0.0381336319297674  0.832610563701856  1.0000
  H   H117      1.0  0.19187470057426026  0.08647264189519178  0.3560719752697211  1.0000
  H   H118      1.0  0.8184064977046714  0.919602567399707  0.6465000835070144  1.0000
  H   H119      1.0  0.2867415636542319  0.7695878138663163  0.39454674546596646  1.0000
  H   H120      1.0  0.7156083700891288  0.2361106488471734  0.5941409534405154  1.0000
  H   H121      1.0  0.22907377650239616  0.2545576731110586  0.23596916949048827  1.0000
  H   H122      1.0  0.7738426681969911  0.7643317112663652  0.7608133465672967  1.0000
  H   H123      1.0  0.10697423169307288  0.19739319500088473  0.2684046166421013  1.0000
  H   H124      1.0  0.8971512100106976  0.8166367076572244  0.7342505241929588  1.0000
  H   H125      1.0  0.21056405296278058  0.3105348986889638  0.0968545222620848  1.0000
  H   H126      1.0  0.7856183085437464  0.7006890700483337  0.9033064102192161  1.0000
  H   H127      1.0  0.12889958341562394  0.3778927706559685  0.1507879633470425  1.0000
  H   H128      1.0  0.8662924477737447  0.6347651420484227  0.8473364699978422  1.0000
  H   H129      1.0  0.9840615103981348  0.2740252304783013  0.17193731245755833  1.0000
  H   H130      1.0  0.013149120861449095  0.7337933944916556  0.8294494972695721  1.0000
  H   H131      1.0  0.06200639845394559  0.1864061482480039  0.13508850237163736  1.0000
  H   H132      1.0  0.937376197321832  0.8183366105684514  0.8707558797468454  1.0000
  H   H133      1.0  0.9646231887290212  0.3203006816430404  0.040991028851578924  1.0000
  H   H134      1.0  0.03448828539824689  0.6785596158837491  0.9607212215258945  1.0000
  H   H135      1.0  0.042802969653123996  0.41656549660448394  0.035845681380585935  1.0000
  H   H136      1.0  0.955570641838669  0.5853590879960465  0.9623532494957634  1.0000
  C   C1        1.0  0.624083548620824  0.4898241970085238  0.1498479771903974  1.0000
  C   C2        1.0  0.37413524202069937  0.5053413096273403  0.8619194028479886  1.0000
  C   C3        1.0  0.5621457654225566  0.5511038713739822  0.10091248246202883  1.0000
  C   C4        1.0  0.439000601851859  0.4423423224435865  0.9077130053802168  1.0000
  C   C5        1.0  0.5885058332495489  0.5691876844713165  0.01995700979273356  1.0000
  C   C6        1.0  0.41688115279972476  0.42107042159916824  0.9890899736815874  1.0000
  C   C7        1.0  0.6765992584033212  0.5268955908180929  0.9858617232442132  1.0000
  C   C8        1.0  0.330900866729877  0.4620565490745819  0.026655601786330946  1.0000
  C   C9        1.0  0.7380223933032539  0.46614010913936715  0.03520815912787621  1.0000
  C   C10       1.0  0.2667663590097291  0.5246509894105884  0.9803786166617744  1.0000
  C   C11       1.0  0.7119505201121968  0.44739066417926676  0.11593517201073679  1.0000
  C   C12       1.0  0.2883215236376202  0.5464511007223932  0.8993457203054337  1.0000
  C   C13       1.0  0.44111734113349127  0.6479755150662925  0.049767550129225006  1.0000
  C   C14       1.0  0.5628941302244214  0.34502491245140726  0.9523607947061952  1.0000
  C   C15       1.0  0.34774897480996  0.7114652713467675  0.03924858388256081  1.0000
  C   C16       1.0  0.6576470526573884  0.2824069619883645  0.9585288318597951  1.0000
  C   C17       1.0  0.5046915312647611  0.6742512458525807  0.9080058968389226  1.0000
  C   C18       1.0  0.5067608968139297  0.3128875692037668  0.0961258247017298  1.0000
  C   C19       1.0  0.5431258444061983  0.7856486230638352  0.8664295089982662  1.0000
  C   C20       1.0  0.4651131628787012  0.20286625561797683  0.13859690441790926  1.0000
  C   C21       1.0  0.5244294421041998  0.8378024171299856  0.7840515433711491  1.0000
  C   C22       1.0  0.4823474326818696  0.1519911117663355  0.22155049891035375  1.0000
  C   C23       1.0  0.564527572356745  0.7738789161899504  0.7326850260262535  1.0000
  C   C24       1.0  0.4439186184791238  0.21904736091505583  0.2707445950810909  1.0000
  C   C25       1.0  0.5763583193799491  0.8348241590452403  0.6452558996067241  1.0000
  C   C26       1.0  0.43354857757008597  0.1623682302459386  0.3585138177559416  1.0000
  C   C27       1.0  0.46071258368270657  0.9905709361644812  0.6011786445913718  1.0000
  C   C28       1.0  0.5502840094682213  0.007315268832002202  0.4012143142043032  1.0000
  C   C29       1.0  0.5167644906989182  0.0752221698443947  0.5894206512238187  1.0000
  C   C30       1.0  0.49397220264062014  0.9223282752117258  0.4139940641005496  1.0000
  C   C31       1.0  0.4727252919950259  0.1732111458035419  0.5611283823728643  1.0000
  C   C32       1.0  0.5394412325776585  0.8246407189116522  0.4402454068053886  1.0000
  C   C33       1.0  0.3757531215685859  0.1862036315810798  0.5453466215167568  1.0000
  C   C34       1.0  0.6378358113258925  0.8124661644882919  0.4533731702338958  1.0000
  C   C35       1.0  0.3191943658384417  0.1012514923497463  0.5584335292659903  1.0000
  C   C36       1.0  0.6943424789869681  0.8976800284845865  0.4399152313631662  1.0000
  C   C37       1.0  0.3625064628534602  0.0024402991627425993  0.5870137954733539  1.0000
  C   C38       1.0  0.649893883968488  0.9961935408196823  0.4129118378443411  1.0000
  C   C39       1.0  0.4006255211486831  0.8368333760149868  0.6240551936278325  1.0000
  C   C40       1.0  0.6104864192522611  0.1614732139152224  0.37716821601964073  1.0000
  C   C41       1.0  0.39505916988417056  0.7238084284448335  0.6440477782490178  1.0000
  C   C42       1.0  0.6154282799748785  0.27450420263804187  0.3575762693873872  1.0000
  C   C43       1.0  0.5561963321188158  0.8381198961242404  0.05246888977481499  1.0000
  C   C44       1.0  0.4319144891177942  0.16766588727776371  0.9371922916188286  1.0000
  C   C45       1.0  0.6174286383058601  0.919740298035691  0.9976074369365197  1.0000
  C   C46       1.0  0.3745822530609217  0.08334430504577742  0.9926114357300267  1.0000
  C   C47       1.0  0.7013690015078281  0.9498625702751795  0.013859865888719071  1.0000
  C   C48       1.0  0.2919745652401744  0.0487108346143188  0.9776936442268255  1.0000
  C   C49       1.0  0.7252743494460957  0.9005178797643864  0.08633301693053146  1.0000
  C   C50       1.0  0.26516012482863976  0.09686897580694159  0.9062320863312013  1.0000
  C   C51       1.0  0.663310750654645  0.8189069998909914  0.14128139320547484  1.0000
  C   C52       1.0  0.32333376318511853  0.1811261220353018  0.8507550300709643  1.0000
  C   C53       1.0  0.5808021373158638  0.7856555841366841  0.12468179530178966  1.0000
  C   C54       1.0  0.4052147337889308  0.21827588434499023  0.8654430766484471  1.0000
  C   C55       1.0  0.5819747277727673  0.6921897535452356  0.24743085710891694  1.0000
  C   C56       1.0  0.3990524752862044  0.31087886887890187  0.7445420126214233  1.0000
  C   C57       1.0  0.5508075370273388  0.6207370921609083  0.32988944415946275  1.0000
  C   C58       1.0  0.42438557312796377  0.3846441484081424  0.6620102295114452  1.0000
  C   C59       1.0  0.7279575468429298  0.7736706873918067  0.2632043699016722  1.0000
  C   C60       1.0  0.25254073442678754  0.22706157124877538  0.7314943837251636  1.0000
  C   C61       1.0  0.8063751711819832  0.6868706601315893  0.2854580937386261  1.0000
  C   C62       1.0  0.17543520276899469  0.3156125157183141  0.7107631967320673  1.0000
  C   C63       1.0  0.889441725495942  0.7235919762713294  0.3100721727349909  1.0000
  C   C64       1.0  0.09041484185607367  0.2818748758955961  0.6865414272012986  1.0000
  C   C65       1.0  0.9747628767906134  0.7787247720560587  0.2395217150673049  1.0000
  C   C66       1.0  0.009258209045150099  0.21934981714585436  0.7577290131438945  1.0000
  C   C67       1.0  0.035982233546505406  0.853978122152313  0.2513831935724583  1.0000
  C   C68       1.0  0.9573833965525154  0.1375222554397837  0.745586064496479  1.0000
  C   C69       1.0  0.9805292236382214  0.9071455364748358  0.4000557435081834  1.0000
  C   C70       1.0  0.029746318920373892  0.0903604207357702  0.594237452740302  1.0000
  C   C71       1.0  0.9484002748753327  0.9681323228611235  0.32670571278186605  1.0000
  C   C72       1.0  0.059528844673444305  0.030513676746906502  0.6687397562377771  1.0000
  C   C73       1.0  0.927840457442933  0.013956206037995899  0.20558318063027778  1.0000
  C   C74       1.0  0.0730017344966214  0.9843207146967002  0.79175498710098  1.0000
  C   C75       1.0  0.9311438408518882  0.027897341408952097  0.1283227140600616  1.0000
  C   C76       1.0  0.06410855945195951  0.9692386535226658  0.8700316264190922  1.0000
  C   C77       1.0  0.8721550377854683  0.10866372529824281  0.08883346167360884  1.0000
  C   C78       1.0  0.1225524920750516  0.8894517137362214  0.9111244107535018  1.0000
  C   C79       1.0  0.8124868088888204  0.17318105141532664  0.125299967119716  1.0000
  C   C80       1.0  0.18728660018094698  0.8270634980437704  0.8751608719611074  1.0000
  C   C81       1.0  0.8119925601946179  0.16129669127283816  0.20135219620830475  1.0000
  C   C82       1.0  0.19394697720562698  0.8404605920676576  0.7978018927088616  1.0000
  C   C83       1.0  0.871250554633825  0.08112750011662942  0.24154572738436297  1.0000
  C   C84       1.0  0.1353100845495732  0.919699875987334  0.7559471590664233  1.0000
  C   C85       1.0  0.761147915479995  0.512030432558454  0.7426431538467003  1.0000
  C   C86       1.0  0.2526473252438776  0.4928063658673096  0.24894722945362716  1.0000
  C   C87       1.0  0.8640187685579404  0.5244308795055446  0.7528015115594757  1.0000
  C   C88       1.0  0.14633790585850903  0.48275375591749287  0.2432630584535148  1.0000
  C   C89       1.0  0.9010422108237462  0.44518335557712163  0.8115656077214198  1.0000
  C   C90       1.0  0.1062665380577599  0.5614551668573711  0.18594897860177897  1.0000
  C   C91       1.0  0.9952592493513988  0.4543533375659834  0.8244832731038941  1.0000
  C   C92       1.0  0.010405518664406097  0.5507671702709445  0.17627099803589635  1.0000
  C   C93       1.0  0.05262813082656951  0.5431617425743696  0.7777996811776052  1.0000
  C   C94       1.0  0.9544375095813179  0.46172352798430444  0.2247781052887776  1.0000
  C   C95       1.0  0.0145364606384248  0.6234588279304987  0.7198635374502872  1.0000
  C   C96       1.0  0.9950099159997804  0.3821392870200525  0.2815160847756036  1.0000
  C   C97       1.0  0.9206873679378588  0.6144138186461845  0.7066150850370935  1.0000
  C   C98       1.0  0.09041204900068318  0.39274516621130573  0.2917669516231102  1.0000
  C   C99       1.0  0.07485972873206487  0.7206411238959946  0.6769865116867212  1.0000
  C   C100      1.0  0.9367960791021729  0.28312194582260014  0.32325329001636766  1.0000
  C   C101      1.0  0.1177640239148374  0.3866442756970444  0.9016830398042689  1.0000
  C   C102      1.0  0.8863515521099997  0.6103825620746193  0.10053754356518141  1.0000
  C   C103      1.0  0.12072346217012611  0.30955931375646634  0.9823332153545938  1.0000
  C   C104      1.0  0.8787804889316246  0.687436652544811  0.02094786783808202  1.0000
  C   C105      1.0  0.3185005902793918  0.7892794338521084  0.23655562439430627  1.0000
  C   C106      1.0  0.6667616324400143  0.2323632483289231  0.7427576111234231  1.0000
  C   C107      1.0  0.2845071362289318  0.8671246174085424  0.274468945525996  1.0000
  C   C108      1.0  0.7078040935037819  0.14550562806940087  0.716403210262769  1.0000
  C   C109      1.0  0.26468325904146883  0.9661869602111041  0.22434490703770404  1.0000
  C   C110      1.0  0.7259577133929794  0.0491237988440503  0.7710920187231527  1.0000
  C   C111      1.0  0.23236146147155518  0.046101143332087695  0.2521285599098776  1.0000
  C   C112      1.0  0.7665931730008919  0.9671794783776947  0.7468948603934682  1.0000
  C   C113      1.0  0.21949243227172133  0.027228010597603696  0.33145905536100184  1.0000
  C   C114      1.0  0.7861532810972844  0.9809148740149992  0.6678891298530946  1.0000
  C   C115      1.0  0.23970769726652458  0.9269988696650912  0.38184866781675464  1.0000
  C   C116      1.0  0.7670963972400386  0.07823367190847108  0.6135643962942157  1.0000
  C   C117      1.0  0.27259589664814843  0.8466880752827707  0.3540535946211493  1.0000
  C   C118      1.0  0.7287161475122589  0.16076305891217396  0.6371444383448905  1.0000
  C   C119      1.0  0.2223985150263132  0.9059044434971497  0.4669810619189509  1.0000
  C   C120      1.0  0.7896687574239819  0.09493847496175079  0.529024890817084  1.0000
  C   C121      1.0  0.1725766250501692  0.22371246262390795  0.2182855935276252  1.0000
  C   C122      1.0  0.8288079936668566  0.7914917467882887  0.7821621337087808  1.0000
  C   C123      1.0  0.14382806857516064  0.30173511083509647  0.14558836142475687  1.0000
  C   C124      1.0  0.853130265163564  0.7095678212758046  0.8550133536604464  1.0000
  C   C125      1.0  0.052860067109314506  0.2685668282909289  0.12832718922209818  1.0000
  C   C126      1.0  0.945102217379798  0.7374253807648259  0.874306391637774  1.0000
  C   C127      1.0  0.03989373965416829  0.3333835991301017  0.04610395839601719  1.0000
  C   C128      1.0  0.9588785113252597  0.6673446941141847  0.9552005113192766  1.0000
  N   N1        1.0  0.4704856852299173  0.6013720248511873  0.1173019168478505  1.0000
  N   N2        1.0  0.5301701711763228  0.39383428324089215  0.8869790179172345  1.0000
  N   N3        1.0  0.5106955144299192  0.6303375734039206  0.9898188285813065  1.0000
  N   N4        1.0  0.4965499185969334  0.3591053214272364  0.015480279246538907  1.0000
  N   N5        1.0  0.48266603479434883  0.884945097138349  0.6244907210447721  1.0000
  N   N6        1.0  0.5276660870363089  0.1126258324317533  0.3787414781146198  1.0000
  N   N7        1.0  0.32722221773642696  0.9051211908205447  0.6028644661497683  1.0000
  N   N8        1.0  0.6852534793076757  0.09373137949592092  0.396225405858246  1.0000
  N   N9        1.0  0.5333184362352481  0.7050062255093438  0.1915705308175149  1.0000
  N   N10       1.0  0.4497186750362232  0.30030577123469027  0.7983659891940819  1.0000
  N   N11       1.0  0.6616986312018937  0.7587872508088581  0.21903525256941253  1.0000
  N   N12       1.0  0.3214717693660134  0.2412544667771144  0.7737004155937446  1.0000
  N   N13       1.0  0.9750277909502926  0.9428391566850466  0.26106910840248815  1.0000
  N   N14       1.0  0.026601618993034  0.053973486852193296  0.7350842452646378  1.0000
  N   N15       1.0  0.8876219161526818  0.051771587980404404  0.3160221102120461  1.0000
  N   N16       1.0  0.12360605403483758  0.9495065779182498  0.6801241676136061  1.0000
  O   O1        1.0  0.7249773705901603  0.4208799477357203  0.7763338998593384  1.0000
  O   O2        1.0  0.2853509075100362  0.5869878652165212  0.21589123528822546  1.0000
  O   O3        1.0  0.7170295327915852  0.5922777062841291  0.7028173871337065  1.0000
  O   O4        1.0  0.2999981404842841  0.4131673885506544  0.28272416564658465  1.0000
  O   O5        1.0  0.318673615254113  0.8151350329604913  0.16593331728046218  1.0000
  O   O6        1.0  0.6493162190648576  0.2184381119665133  0.81517048389302  1.0000
  O   O7        1.0  0.34998852772680067  0.6989453130676394  0.2791877543891135  1.0000
  O   O8        1.0  0.6471560045066268  0.31991536499877776  0.6926752965337005  1.0000
  O   O9        1.0  0.4067270372139261  0.4252596054709414  0.3779302151712971  1.0000
  O   O10       1.0  0.5532856608316976  0.5219021542222889  0.7053726865846814  1.0000
  O   O11       1.0  0.15988034017414773  0.7238801003509395  0.6931203823961243  1.0000
  O   O12       1.0  0.8531422881982492  0.2784790266127288  0.30565044868502184  1.0000
  O   O13       1.0  0.0418919584866657  0.7994515038866936  0.6273549902583614  1.0000
  O   O14       1.0  0.9708601464334662  0.20423372122583322  0.3719699082204429  1.0000
  O   O15       1.0  0.23931640356605752  0.8154735048833927  0.5140394425340279  1.0000
  O   O16       1.0  0.7744109457427227  0.18469304133780182  0.4801941136957313  1.0000
  O   O17       1.0  0.19022584000580167  0.9795045891425506  0.4920192096619689  1.0000
  O   O18       1.0  0.823535251719477  0.019913324501089798  0.5061607919377311  1.0000
  O   O19       1.0  0.024839904740282685  0.37367888868051585  0.8838802080257797  1.0000
  O   O20       1.0  0.9777131944718035  0.6295446747719564  0.1173760389458139  1.0000
  O   O21       1.0  0.21613002770682493  0.1377675867439123  0.1962133183508642  1.0000
  O   O22       1.0  0.7850947271031714  0.8777467272415649  0.8043209141470841  1.0000
