data_image0
_chemical_formula_structural       Al4H44C48O20
_chemical_formula_sum              "Al4 H44 C48 O20"
_cell_length_a       6.734099750338451
_cell_length_b       18.075457790816476
_cell_length_c       20.637403125001704
_cell_angle_alpha    72.5949104267888
_cell_angle_beta     87.68926577064242
_cell_angle_gamma    87.43423880487407

_space_group_name_H-M_alt    "P 1"
_space_group_IT_number       1

loop_
  _space_group_symop_operation_xyz
  'x, y, z'

loop_
  _atom_site_type_symbol
  _atom_site_label
  _atom_site_symmetry_multiplicity
  _atom_site_fract_x
  _atom_site_fract_y
  _atom_site_fract_z
  _atom_site_occupancy
  Al  Al1       1.0  0.1288094025244959  0.4987704363613474  0.49858587630087203  1.0000
  Al  Al2       1.0  0.6286308154919952  0.4992558393426875  0.4997815734513864  1.0000
  Al  Al3       1.0  0.6139021325373336  0.00015466257616480108  0.0006560494599696983  1.0000
  Al  Al4       1.0  0.11411505723266664  0.9992972060792625  0.9992480878350987  1.0000
  H   H1        1.0  0.6113064084184431  0.7804209634719471  0.6780468282744039  1.0000
  H   H2        1.0  0.21628168815510662  0.19680951518043335  0.35131418400334263  1.0000
  H   H3        1.0  0.5585022090061641  0.821330530649  0.7734597100258968  1.0000
  H   H4        1.0  0.07308794397636831  0.15892795256341694  0.2660311586928543  1.0000
  H   H5        1.0  0.11058585042611208  0.8524092276080992  0.7326496469830274  1.0000
  H   H6        1.0  0.631341061152142  0.1578078004854646  0.23154681968730983  1.0000
  H   H7        1.0  0.8713959757064487  0.8840789480229674  0.701537460927561  1.0000
  H   H8        1.0  0.44472242055859823  0.11845677352843607  0.2933193544253355  1.0000
  H   H9        1.0  0.929209582082578  0.8088574478586353  0.627418678795067  1.0000
  H   H10       1.0  0.5740469910471903  0.2005907798036759  0.35066423072015596  1.0000
  H   H11       1.0  0.15083641761516736  0.72716167682276  0.81971754032795  1.0000
  H   H12       1.0  0.557913821863295  0.2876398246189993  0.1505253305213969  1.0000
  H   H13       1.0  0.5960625540189924  0.7281405487315026  0.8310824870184845  1.0000
  H   H14       1.0  0.0315950283130917  0.2544118468316867  0.21263477312478327  1.0000
  H   H15       1.0  0.10483836693713039  0.6328013981809378  0.7655473293769574  1.0000
  H   H16       1.0  0.5096832866103966  0.38284152507304725  0.2060511612429394  1.0000
  H   H17       1.0  0.6305206123187687  0.5596941013969923  0.7759396344074289  1.0000
  H   H18       1.0  0.5360619538002142  0.6027816366798362  0.8386540461610322  1.0000
  H   H19       1.0  0.3728287036318747  0.563296997505681  0.7937153739838435  1.0000
  H   H20       1.0  0.34725063179412535  0.7033971364210244  0.743405714463833  1.0000
  H   H21       1.0  0.46814711205249904  0.662642925129198  0.6843105712416957  1.0000
  H   H22       1.0  0.034079484267849125  0.41258105851148485  0.2735327651384337  1.0000
  H   H23       1.0  0.9009657359988951  0.359805203526939  0.2302878581440879  1.0000
  H   H24       1.0  0.7878847861890819  0.3855896786625976  0.29997529950197327  1.0000
  H   H25       1.0  0.884583890442947  0.2493649375376208  0.34647634684891665  1.0000
  H   H26       1.0  0.04701419178277181  0.3029377407378959  0.37729403398117967  1.0000
  H   H27       1.0  0.1409303854489963  0.7616112638762614  0.671302217939555  1.0000
  H   H28       1.0  0.6863727135832819  0.2600334499729228  0.275114706525315  1.0000
  H   H29       1.0  0.09197619838313642  0.5567605242889042  0.9025469295619003  1.0000
  H   H30       1.0  0.2440786570850904  0.6209731830541614  0.9270621657076176  1.0000
  H   H31       1.0  0.05199694003710683  0.5725250735783969  0.9829267853064749  1.0000
  H   H32       1.0  0.9490315770432717  0.7109041416381174  0.9277358340692174  1.0000
  H   H33       1.0  0.7936291240974994  0.6479035738982263  0.904021041203954  1.0000
  H   H34       1.0  0.34135968653530574  0.4521532598110057  0.08692935021939262  1.0000
  H   H35       1.0  0.5169188256501726  0.4053390248684891  0.04439415694533719  1.0000
  H   H36       1.0  0.2755239725232316  0.4319069013211064  0.011863740903343996  1.0000
  H   H37       1.0  0.2953018683527305  0.2899317431058961  0.0694418345026975  1.0000
  H   H38       1.0  0.1253746226807593  0.3352758791519577  0.11402787606257898  1.0000
  H   H39       1.0  0.8699788181762289  0.6100926732646741  0.8046662913201174  1.0000
  H   H40       1.0  0.24828028741517733  0.381474515900642  0.20453157345272635  1.0000
  H   H41       1.0  0.36555054606132137  0.5965008280001102  0.4978967220179058  1.0000
  H   H42       1.0  0.8877870708287645  0.3991356576392703  0.5072446441052422  1.0000
  H   H43       1.0  0.378419465841951  0.9037777283110486  0.9975778797453287  1.0000
  H   H44       1.0  0.855103896703085  0.09498298843510607  0.003773572434560897  1.0000
  C   C1        1.0  0.40070690151377153  0.4215565815069907  0.4219128998178618  1.0000
  C   C2        1.0  0.8610836330402166  0.5768244867470357  0.5762916029179194  1.0000
  C   C3        1.0  0.3757953131672238  0.3928418587963876  0.6032984596534732  1.0000
  C   C4        1.0  0.8798882078317405  0.6049801076811789  0.39536925956806357  1.0000
  C   C5        1.0  0.8767232052743524  0.6666707615185388  0.33208028802813055  1.0000
  C   C6        1.0  0.3750121084986091  0.33161668456157395  0.666915611079517  1.0000
  C   C7        1.0  0.872838002953941  0.7197994890097731  0.278960373255238  1.0000
  C   C8        1.0  0.37221865567283885  0.2789082728443049  0.720349555529026  1.0000
  C   C9        1.0  0.8691142081373969  0.77838439880788  0.22031558245448926  1.0000
  C   C10       1.0  0.3695046190599315  0.22069239776002564  0.7792781374668393  1.0000
  C   C11       1.0  0.8658873876347998  0.8314829552759305  0.16718450383252298  1.0000
  C   C12       1.0  0.3671071342946846  0.16784617592245607  0.8325907056897532  1.0000
  C   C13       1.0  0.6542389883719794  0.768484881982168  0.7837098817787974  1.0000
  C   C14       1.0  0.13913123607841274  0.2162286225775247  0.2471076541733126  1.0000
  C   C15       1.0  0.9648915680874527  0.832136450777966  0.7244816971813249  1.0000
  C   C16       1.0  0.49913092468158043  0.17295749447620773  0.25850810372644156  1.0000
  C   C17       1.0  0.9850719756953125  0.7789183790506088  0.6781991771513559  1.0000
  C   C18       1.0  0.5498707504140867  0.23052982917906914  0.29665217387778847  1.0000
  C   C19       1.0  0.8587351847386702  0.6208816461870724  0.6240177190332331  1.0000
  C   C20       1.0  0.4082647306327233  0.3773728663090735  0.37417349995136107  1.0000
  C   C21       1.0  0.8699641167741703  0.7879326344206844  0.7945254620269678  1.0000
  C   C22       1.0  0.33525049482088315  0.2100575095921897  0.2066122079038735  1.0000
  C   C23       1.0  0.6490960589947364  0.7331582752985707  0.7242733363928336  1.0000
  C   C24       1.0  0.181748203087551  0.24730651005190651  0.3071943738797386  1.0000
  C   C25       1.0  0.8642013214157276  0.7050064833593553  0.7102203361163147  1.0000
  C   C26       1.0  0.37918987248350794  0.2924461510908927  0.28957886596697335  1.0000
  C   C27       1.0  0.9631591364007194  0.658530895981208  0.777719806971298  1.0000
  C   C28       1.0  0.38362098736457984  0.3442411998599937  0.21438724859132208  1.0000
  C   C29       1.0  0.9939093261004432  0.7107083678356717  0.8235561516617764  1.0000
  C   C30       1.0  0.4003411513846871  0.2936165455079943  0.1656895578399613  1.0000
  C   C31       1.0  0.8640580043039706  0.6587213325336021  0.6636792395995953  1.0000
  C   C32       1.0  0.4021077162439965  0.33894774121477417  0.33498955375208794  1.0000
  C   C33       1.0  0.8751640780098809  0.8359849969886426  0.8394140078612295  1.0000
  C   C34       1.0  0.3211504071734694  0.1627416083498261  0.16149535309347837  1.0000
  C   C35       1.0  0.8839456926210046  0.876667187180992  0.8765800480398837  1.0000
  C   C36       1.0  0.3292562964509572  0.1225004614634742  0.1235775324291666  1.0000
  C   C37       1.0  0.3657776479117345  0.10623321203389932  0.8960760280596957  1.0000
  C   C38       1.0  0.8636973502192973  0.8931614759757094  0.1037745370619447  1.0000
  C   C39       1.0  0.34197805061249653  0.07716045000811529  0.0769570044329626  1.0000
  C   C40       1.0  0.8812578936497176  0.9222283043745848  0.9230136430407185  1.0000
  C   C41       1.0  0.4861528352998548  0.673884204813504  0.7332881328388225  1.0000
  C   C42       1.0  0.5091686555469223  0.5960488658716869  0.7885333572609169  1.0000
  C   C43       1.0  0.0052652915801019015  0.29044231853285396  0.3307737582254191  1.0000
  C   C44       1.0  0.9285809765530786  0.36605019337157074  0.2806334129357566  1.0000
  C   C45       1.0  0.946442011590527  0.6689262467042384  0.8986341063005907  1.0000
  C   C46       1.0  0.09122466605258243  0.6010311628225862  0.9293134241932108  1.0000
  C   C47       1.0  0.2845458831007975  0.329828912313232  0.1006926393814496  1.0000
  C   C48       1.0  0.3585767967781166  0.4091571009943066  0.058876960921026  1.0000
  O   O1        1.0  0.5458583943411526  0.41497170079889395  0.5773519172057603  1.0000
  O   O2        1.0  0.050692907222938295  0.5791000958207846  0.4176063065153314  1.0000
  O   O3        1.0  0.22724535229438206  0.43637262751995104  0.443193144981386  1.0000
  O   O4        1.0  0.6942061705243673  0.5575191068753681  0.5603441943667491  1.0000
  O   O5        1.0  0.20593169842555173  0.41769364860032704  0.5794776247806084  1.0000
  O   O6        1.0  0.7109307997205433  0.5835634514059294  0.4227458334007039  1.0000
  O   O7        1.0  0.032362068629708994  0.5618400939100354  0.5536236322959098  1.0000
  O   O8        1.0  0.5652439458870332  0.4409839136244427  0.43932661974598375  1.0000
  O   O9        1.0  0.3739896304680669  0.5447066242410087  0.4931734908375986  1.0000
  O   O10       1.0  0.8828142181797459  0.453266430110503  0.5056697658818975  1.0000
  O   O11       1.0  0.1783969554870311  0.058158114578191096  0.0584288542976523  1.0000
  O   O12       1.0  0.7095992193357646  0.9390130125365489  0.944130428598008  1.0000
  O   O13       1.0  0.5352154951781571  0.08243102342699869  0.9207454233173421  1.0000
  O   O14       1.0  0.033169479150544114  0.9151435745058265  0.0772657454295356  1.0000
  O   O15       1.0  0.5164779940801338  0.0609245787880255  0.05754855241456618  1.0000
  O   O16       1.0  0.04797594090501182  0.9407618947321053  0.9397127946389361  1.0000
  O   O17       1.0  0.6930355265438236  0.9181900621487742  0.08084204651838428  1.0000
  O   O18       1.0  0.19549343990473034  0.08308260416619362  0.9208508019263348  1.0000
  O   O19       1.0  0.36916726926298793  0.953951394452652  0.005671764770255497  1.0000
  O   O20       1.0  0.859805170988615  0.045560658441729594  0.9942686947626739  1.0000
