data_image0
_chemical_formula_structural       H32W4C40N8O12
_chemical_formula_sum              "H32 W4 C40 N8 O12"
_cell_length_a       7.326837155472489
_cell_length_b       13.20831123281206
_cell_length_c       13.208250314374721
_cell_angle_alpha    79.36974865655394
_cell_angle_beta     73.89496411656033
_cell_angle_gamma    73.89509741556898

_space_group_name_H-M_alt    "P 1"
_space_group_IT_number       1

loop_
  _space_group_symop_operation_xyz
  'x, y, z'

loop_
  _atom_site_type_symbol
  _atom_site_label
  _atom_site_symmetry_multiplicity
  _atom_site_fract_x
  _atom_site_fract_y
  _atom_site_fract_z
  _atom_site_occupancy
  H   H1        1.0  0.797377382297661  0.4583792250236768  0.43217318870141946  1.0000
  H   H2        1.0  0.6883111571861987  0.5415844525706535  0.5678087116256733  1.0000
  H   H3        1.0  0.18831190904665354  0.5678106543423311  0.5415817291500743  1.0000
  H   H4        1.0  0.29737911231901376  0.43217066653090824  0.45838032291952396  1.0000
  H   H5        1.0  0.6925217241957073  0.6580899133289221  0.39936262171374887  1.0000
  H   H6        1.0  0.7505377376091005  0.34185015007717834  0.6006270380228783  1.0000
  H   H7        1.0  0.2505391673844244  0.6006285469063357  0.3418465048068312  1.0000
  H   H8        1.0  0.19252786411782807  0.3993595624047687  0.6580929885879809  1.0000
  H   H9        1.0  0.7534608348646614  0.7421684151998562  0.20834408422825848  1.0000
  H   H10       1.0  0.7041767682349801  0.25782290931080354  0.7916958370954815  1.0000
  H   H11       1.0  0.20417800398034552  0.7916983183557422  0.25781910948394676  1.0000
  H   H12       1.0  0.2534659189540989  0.20834177020107353  0.7421690553122102  1.0000
  H   H13       1.0  0.913352594925662  0.6276619758033065  0.0631979963127236  1.0000
  H   H14       1.0  0.6038965650046464  0.3723765681044284  0.9367814996708147  1.0000
  H   H15       1.0  0.10389961253992616  0.9367812445195799  0.37237426157096104  1.0000
  H   H16       1.0  0.4133501913783277  0.06319636909960018  0.6276627829436093  1.0000
  H   H17       1.0  0.05034707417097896  0.5221483021060892  0.9523612317841026  1.0000
  H   H18       1.0  0.5246401935557188  0.47787919413881497  0.04769467843416208  1.0000
  H   H19       1.0  0.02464497076339708  0.04769225759617512  0.47787690832901564  1.0000
  H   H20       1.0  0.5503462087658094  0.9523600998730899  0.5221479254183662  1.0000
  H   H21       1.0  0.2045939019741213  0.38724900220704933  0.8299038570963758  1.0000
  H   H22       1.0  0.4213749584805058  0.6127897631909109  0.1701260411585749  1.0000
  H   H23       1.0  0.9213768650234897  0.17012244306965843  0.6127878320859067  1.0000
  H   H24       1.0  0.7045948813394888  0.829904566380776  0.38724681328452687  1.0000
  H   H25       1.0  0.2692536191514563  0.19120705900475343  0.9046917788817834  1.0000
  H   H26       1.0  0.3649208712084188  0.8088327371314324  0.09527934907486468  1.0000
  H   H27       1.0  0.8649227726522  0.09527926001075575  0.8088311512346067  1.0000
  H   H28       1.0  0.7692533830255925  0.904692277846678  0.19120454027591194  1.0000
  H   H29       1.0  0.162613186987187  0.1463993859762454  0.1024107877932536  1.0000
  H   H30       1.0  0.41139650885781287  0.8535930187377474  0.8975747865034334  1.0000
  H   H31       1.0  0.9113999519954205  0.8975749795577103  0.8535920383332251  1.0000
  H   H32       1.0  0.6626112472884673  0.10241082670320628  0.14639666528246656  1.0000
  W   W1        1.0  0.9797686337613098  0.25297254996731056  0.31457348370503974  1.0000
  W   W2        1.0  0.5473131105850085  0.7470543985525852  0.6854321390341055  1.0000
  W   W3        1.0  0.04731387589460198  0.6854334562757103  0.7470532919329783  1.0000
  W   W4        1.0  0.47976937978272355  0.31457222465834184  0.2529731607716029  1.0000
  C   C1        1.0  0.8191244335764267  0.500884379409932  0.3524966458734652  1.0000
  C   C2        1.0  0.6727971503269998  0.4990909434336076  0.6474874909151964  1.0000
  C   C3        1.0  0.17279962005014232  0.6474883488157491  0.49908738638483624  1.0000
  C   C4        1.0  0.3191243870186824  0.35249360189682494  0.5008864850594178  1.0000
  C   C5        1.0  0.761733007637865  0.6108971097492883  0.33296658628934483  1.0000
  C   C6        1.0  0.7060055786225732  0.3890653722508262  0.6670147293474357  1.0000
  C   C7        1.0  0.20600795855046516  0.6670169165409804  0.389061566750506  1.0000
  C   C8        1.0  0.2617347711686476  0.33296439833910807  0.6108998932110409  1.0000
  C   C9        1.0  0.7972333676335025  0.6564409544919912  0.22751789252570376  1.0000
  C   C10       1.0  0.6813756553417321  0.34354522249024205  0.7724687042295599  1.0000
  C   C11       1.0  0.18137870049096685  0.7724700395245281  0.34354158664424966  1.0000
  C   C12       1.0  0.2972367747581118  0.22751612441381747  0.6564419218256746  1.0000
  C   C13       1.0  0.886419827372791  0.5924608627943189  0.14591896772354568  1.0000
  C   C14       1.0  0.6246499020259507  0.4075741026963016  0.8540495194926762  1.0000
  C   C15       1.0  0.12465056230654148  0.8540498453020009  0.40757176016957425  1.0000
  C   C16       1.0  0.38642061987035714  0.14591605631174795  0.592462254823509  1.0000
  C   C17       1.0  0.9373502451908635  0.482285580718596  0.17237342091544144  1.0000
  C   C18       1.0  0.5918914069608973  0.5177537070392902  0.8275940433282398  1.0000
  C   C19       1.0  0.09189175819187063  0.8275938829895751  0.517751663565562  1.0000
  C   C20       1.0  0.4373497145602769  0.17237146377502915  0.48228532314075767  1.0000
  C   C21       1.0  0.02646698073733221  0.40646891006294084  0.0926488018488385  1.0000
  C   C22       1.0  0.5254395527217284  0.5935360575185912  0.9073631060894198  1.0000
  C   C23       1.0  0.025442484678478594  0.9073621189912444  0.593535566435598  1.0000
  C   C24       1.0  0.5264661371229947  0.09264706142135992  0.40646759374451585  1.0000
  C   C25       1.0  0.07749598187999841  0.4383381413769386  0.9836224434682064  1.0000
  C   C26       1.0  0.49925841291562273  0.5616856197708344  0.016405719891956494  1.0000
  C   C27       1.0  0.9992632272584461  0.016403994412890206  0.561684247784285  1.0000
  C   C28       1.0  0.5774945238761547  0.9836209339394558  0.4383374821747664  1.0000
  C   C29       1.0  0.16488221260813432  0.36111819146025675  0.9144650920113404  1.0000
  C   C30       1.0  0.4401192468261146  0.6389058615449769  0.08556196077152829  1.0000
  C   C31       1.0  0.9401188850749663  0.08555939745162523  0.6389057384288748  1.0000
  C   C32       1.0  0.6648839161644843  0.9144645456045098  0.36111568178564096  1.0000
  C   C33       1.0  0.19877785971841874  0.25434988372939676  0.9555079029579473  1.0000
  C   C34       1.0  0.4084012421572822  0.7456679866169935  0.044489827866406984  1.0000
  C   C35       1.0  0.9084023416875128  0.04448783592388849  0.7456673101227337  1.0000
  C   C36       1.0  0.6987777785173461  0.9555077589648636  0.2543471262654932  1.0000
  C   C37       1.0  0.14156689830981142  0.2282125621789248  0.06471830277359199  1.0000
  C   C38       1.0  0.434402982472726  0.7717802042625407  0.9352704188178719  1.0000
  C   C39       1.0  0.9344062807612514  0.9352689737878566  0.7717800877835187  1.0000
  C   C40       1.0  0.6415650593819819  0.06471812786341499  0.22821017158717177  1.0000
  N   N1        1.0  0.9042268802727021  0.4388035783504662  0.27465841222748105  1.0000
  N   N2        1.0  0.6177937247407785  0.5612054364116332  0.7253077353323788  1.0000
  N   N3        1.0  0.11779315122125687  0.725307327619582  0.5612039596365931  1.0000
  N   N4        1.0  0.4042280830192765  0.27465639344207204  0.4388045747334032  1.0000
  N   N5        1.0  0.057466290672032  0.3024370865189425  0.1310803654191588  1.0000
  N   N6        1.0  0.49083455722088604  0.6975555413216842  0.8689261095286083  1.0000
  N   N7        1.0  0.9908376499110216  0.8689257992131019  0.6975548213666228  1.0000
  N   N8        1.0  0.557463098519449  0.1310792512035732  0.30243642868023096  1.0000
  O   O1        1.0  0.7312081288397325  0.28558995193795056  0.2815907362146958  1.0000
  O   O2        1.0  0.2983426643341573  0.714492147278584  0.7184121788686183  1.0000
  O   O3        1.0  0.798342166122922  0.718413625644743  0.7144923930832829  1.0000
  O   O4        1.0  0.23120598003553278  0.28159047673702997  0.28559346527592305  1.0000
  O   O5        1.0  0.05135800228097761  0.1153420777039997  0.3037284786331255  1.0000
  O   O6        1.0  0.4705994306248014  0.8847267334002425  0.6961200366371542  1.0000
  O   O7        1.0  0.9706014460190743  0.6961204768392194  0.8847259493959923  1.0000
  O   O8        1.0  0.5513555053869155  0.30372855780566976  0.11534188797675429  1.0000
  O   O9        1.0  0.9022680135569202  0.26565282824549297  0.45158844202159537  1.0000
  O   O10       1.0  0.6195031984627667  0.7342739239326903  0.5484424421764229  1.0000
  O   O11       1.0  0.11950194097902765  0.548443964591016  0.7342719945122838  1.0000
  O   O12       1.0  0.4022708703278397  0.45158674739492  0.26565525357791836  1.0000
