data_image0
_chemical_formula_structural       Cu2H40C36N4O8
_chemical_formula_sum              "Cu2 H40 C36 N4 O8"
_cell_length_a       5.1040460950947955
_cell_length_b       9.554966003876403
_cell_length_c       16.588601196499177
_cell_angle_alpha    100.20680867717691
_cell_angle_beta     90.00009877169384
_cell_angle_gamma    90.00065608833438

_space_group_name_H-M_alt    "P 1"
_space_group_IT_number       1

loop_
  _space_group_symop_operation_xyz
  'x, y, z'

loop_
  _atom_site_type_symbol
  _atom_site_label
  _atom_site_symmetry_multiplicity
  _atom_site_fract_x
  _atom_site_fract_y
  _atom_site_fract_z
  _atom_site_occupancy
  Cu  Cu1       1.0  0.2547920952178089  0.2502823302970186  0.4915378253275478  1.0000
  Cu  Cu2       1.0  0.7547909643934929  0.7497171715458888  0.5084631633382203  1.0000
  H   H1        1.0  0.8526764309761318  0.3593880939704589  0.7218195250233634  1.0000
  H   H2        1.0  0.35267288567226984  0.640608678706357  0.2781752401651403  1.0000
  H   H3        1.0  0.9686168923387581  0.24457940846613715  0.8384597134284562  1.0000
  H   H4        1.0  0.46860924868109777  0.755416051254407  0.16153680771949297  1.0000
  H   H5        1.0  0.689962247843063  0.2823276571280004  0.964397860906061  1.0000
  H   H6        1.0  0.18994721792329727  0.7176671128714885  0.03560084324347199  1.0000
  H   H7        1.0  0.2995285938321429  0.43989919778527303  0.971648259373488  1.0000
  H   H8        1.0  0.799514864681079  0.5600942355793846  0.028352797687134106  1.0000
  H   H9        1.0  0.18908185677960176  0.5588141947614814  0.8549975851955551  1.0000
  H   H10       1.0  0.6890780166946088  0.4411849308372595  0.1450051385395668  1.0000
  H   H11       1.0  0.005704403414526398  0.9352207652714737  0.34276298903456853  1.0000
  H   H12       1.0  0.5056876225507595  0.0647832859383826  0.6572316407796777  1.0000
  H   H13       1.0  0.3406994516061985  0.2432024436525565  0.177172772653158  1.0000
  H   H14       1.0  0.8407041566490889  0.7568039281911892  0.8228264902801712  1.0000
  H   H15       1.0  0.1900803903430131  0.36052355294306443  0.6663884004447738  1.0000
  H   H16       1.0  0.690085734645521  0.6394797780722782  0.3336129039096249  1.0000
  H   H17       1.0  0.6158408499355729  0.408668913369965  0.5552232586461728  1.0000
  H   H18       1.0  0.11584111439955075  0.5913276060165202  0.4447791808302242  1.0000
  H   H19       1.0  0.6002617684843444  0.2774051367440507  0.6078560218453787  1.0000
  H   H20       1.0  0.10025864342233601  0.7225913166970342  0.3921476081367601  1.0000
  H   H21       1.0  0.616997077407717  0.5857174106852125  0.6845422407613171  1.0000
  H   H22       1.0  0.1170026560488679  0.4142875500915934  0.3154585680979666  1.0000
  H   H23       1.0  0.3035502242215244  0.6259770044287477  0.72872695649626  1.0000
  H   H24       1.0  0.80355350636637  0.3740196992492812  0.2712762139947387  1.0000
  H   H25       1.0  0.9240290508755821  0.21322582572226167  0.3713588319702836  1.0000
  H   H26       1.0  0.42403841268796316  0.7867779202365242  0.6286408404386421  1.0000
  H   H27       1.0  0.8498027744603361  0.11500912239819165  0.4396630202645254  1.0000
  H   H28       1.0  0.34979620227409913  0.8849867126239628  0.5603364798278817  1.0000
  H   H29       1.0  0.38867655569460874  0.16108990424303468  0.3023140858581286  1.0000
  H   H30       1.0  0.8886783804091535  0.8389209626296219  0.6976832093498261  1.0000
  H   H31       1.0  0.4182087475544094  0.9783429839889518  0.2627965434642547  1.0000
  H   H32       1.0  0.9181895425096653  0.02167132016442251  0.7372028956921285  1.0000
  H   H33       1.0  0.832747663903909  0.9091653631991503  0.22666077703905776  1.0000
  H   H34       1.0  0.3327254454688173  0.09082933291780648  0.7733398134955395  1.0000
  H   H35       1.0  0.5768524684768791  0.9261674554749816  0.10166280979227339  1.0000
  H   H36       1.0  0.07683451055980578  0.0738266639241374  0.8983387818393282  1.0000
  H   H37       1.0  0.708172523099023  0.09299043314326377  0.011697803403834004  1.0000
  H   H38       1.0  0.2081825383397202  0.9070087633820662  0.9883031294564334  1.0000
  H   H39       1.0  0.09460425164876798  0.25398457189013607  0.04975431337115311  1.0000
  H   H40       1.0  0.5946133627005635  0.7460180615626582  0.9502444583654892  1.0000
  C   C1        1.0  0.36292947361183536  0.976624874266328  0.41131843948470964  1.0000
  C   C2        1.0  0.8629349404579542  0.0234230919508676  0.588684078759222  1.0000
  C   C3        1.0  0.11577791675608037  0.5059843553862035  0.5880726956799904  1.0000
  C   C4        1.0  0.6157786565021439  0.49398013966025883  0.411922562991677  1.0000
  C   C5        1.0  0.14156935401869927  0.024874363650574997  0.3598338309219073  1.0000
  C   C6        1.0  0.6415561113399589  0.9751327942461427  0.6401641810249359  1.0000
  C   C7        1.0  0.310985191610655  0.4356715825345816  0.6392895193406005  1.0000
  C   C8        1.0  0.8109832166622722  0.5643272421672306  0.360712042888359  1.0000
  C   C9        1.0  0.27471489285733947  0.06295988147795842  0.2835840899283824  1.0000
  C   C10       1.0  0.7747012710454088  0.9370471755254993  0.7164170060256794  1.0000
  C   C11       1.0  0.44265261313086046  0.5390311954407424  0.7085843159084746  1.0000
  C   C12       1.0  0.9426519748894221  0.4609663290645258  0.2914159982142763  1.0000
  C   C13       1.0  0.1026572219209783  0.07682628378183409  0.2115079507803657  1.0000
  C   C14       1.0  0.6026417519191439  0.9231785107866342  0.7884904225813116  1.0000
  C   C15       1.0  0.5139778369296765  0.46890391498170897  0.7800874974945345  1.0000
  C   C16       1.0  0.013977519089003501  0.5310993799716853  0.21991550805673646  1.0000
  C   C17       1.0  0.8873364542007209  0.9875127147265557  0.18910592554559  1.0000
  C   C18       1.0  0.3873127852675323  0.012489871968227807  0.8108984412617986  1.0000
  C   C19       1.0  0.7312672249611437  0.3784184497988006  0.7766143163340969  1.0000
  C   C20       1.0  0.23127080500089642  0.6215840155144787  0.22338452072073517  1.0000
  C   C21       1.0  0.7455390262462203  0.9950764235800448  0.1181570158183476  1.0000
  C   C22       1.0  0.2455253917680054  0.004916692265332802  0.8818451857657053  1.0000
  C   C23       1.0  0.7949416750600379  0.3116637528784665  0.8422500345859872  1.0000
  C   C24       1.0  0.29493258729358723  0.688333740981761  0.1577459689280332  1.0000
  C   C25       1.0  0.8189788614538995  0.09035572394621738  0.067545451582788  1.0000
  C   C26       1.0  0.3189788224866064  0.909644162210597  0.9324544047681796  1.0000
  C   C27       1.0  0.6407017273050569  0.3335667832017677  0.9127521150902425  1.0000
  C   C28       1.0  0.14068981940491912  0.6664276099949191  0.0872447163491117  1.0000
  C   C29       1.0  0.0342161833724788  0.17926767362931878  0.0887987401911019  1.0000
  C   C30       1.0  0.5342266595772711  0.8207292119251618  0.9111982586463298  1.0000
  C   C31       1.0  0.42156476466361426  0.42194046778677563  0.9168060242466183  1.0000
  C   C32       1.0  0.9215438878570551  0.578060144391351  0.0831957686441811  1.0000
  C   C33       1.0  0.17288474020247688  0.17328538932731158  0.1605811569968267  1.0000
  C   C34       1.0  0.6728773067768471  0.8267187658924015  0.8394159929969618  1.0000
  C   C35       1.0  0.3595870123395031  0.4891463263019631  0.8511167529254706  1.0000
  C   C36       1.0  0.8595807531858667  0.5108486359308984  0.148886892647262  1.0000
  N   N1        1.0  0.0041817572533204995  0.14838164065377407  0.407801895703912  1.0000
  N   N2        1.0  0.5041754215038877  0.8516204185427368  0.5921973723505688  1.0000
  N   N3        1.0  0.4882924340848119  0.3464158126910206  0.5814136308143674  1.0000
  N   N4        1.0  0.9882946367897317  0.6535841733712358  0.4185881436863639  1.0000
  O   O1        1.0  0.46631058044329166  0.07398729608145518  0.4665034422499729  1.0000
  O   O2        1.0  0.9663211663227357  0.9260071033945112  0.5334935824380693  1.0000
  O   O3        1.0  0.039901771134211096  0.42502962829030355  0.520950960131259  1.0000
  O   O4        1.0  0.539886972572411  0.5749738544688084  0.4790526810264382  1.0000
  O   O5        1.0  0.4441714867977211  0.851317045503464  0.3947764204038578  1.0000
  O   O6        1.0  0.9441424782007315  0.148661115627597  0.6052142667838324  1.0000
  O   O7        1.0  0.029878808019397192  0.6286195237679095  0.612582302522533  1.0000
  O   O8        1.0  0.5298924833691601  0.3713956253119619  0.3874236169921161  1.0000
