data_image0
_chemical_formula_structural       Mg4H48C56O24
_chemical_formula_sum              "Mg4 H48 C56 O24"
_cell_length_a       6.666837653834194
_cell_length_b       7.1460552070785415
_cell_length_c       26.798290241657906
_cell_angle_alpha    89.99947022881875
_cell_angle_beta     89.9981836755154
_cell_angle_gamma    90.0000006611787

_space_group_name_H-M_alt    "P 1"
_space_group_IT_number       1

loop_
  _space_group_symop_operation_xyz
  'x, y, z'

loop_
  _atom_site_type_symbol
  _atom_site_label
  _atom_site_symmetry_multiplicity
  _atom_site_fract_x
  _atom_site_fract_y
  _atom_site_fract_z
  _atom_site_occupancy
  Mg  Mg1       1.0  2.1678086951999795e-06  0.5000000357712011  0.9999989928376183  1.0000
  Mg  Mg2       1.0  0.4999967709883252  0.9999949224314831  0.5000006957537411  1.0000
  Mg  Mg3       1.0  0.9999999395248764  0.499997384823665  0.5000015920453722  1.0000
  Mg  Mg4       1.0  0.49999935127853223  3.7015754369999576e-07  0.9999986389264495  1.0000
  H   H1        1.0  0.5639159986824821  0.8507619299656141  0.14960215696845583  1.0000
  H   H2        1.0  0.9360800311240424  0.6492603975550824  0.6495955290018642  1.0000
  H   H3        1.0  0.4360884583417786  0.8507515012915262  0.3504001718377269  1.0000
  H   H4        1.0  0.0639205807792749  0.649270960782637  0.8504028168605448  1.0000
  H   H5        1.0  0.43608802850778267  0.14924823482832747  0.8503963799618861  1.0000
  H   H6        1.0  0.0639209958570319  0.35073157530734983  0.3504074858606432  1.0000
  H   H7        1.0  0.5639050688792864  0.14924047158367423  0.6496020967380363  1.0000
  H   H8        1.0  0.9360834463395236  0.3507392039921627  0.14959683954420205  1.0000
  H   H9        1.0  0.6652147024906868  0.841204082868785  0.23885634503477612  1.0000
  H   H10       1.0  0.8347924308724545  0.6587900047782187  0.7388538489085977  1.0000
  H   H11       1.0  0.3348002540534338  0.8412079006787606  0.26114488813686176  1.0000
  H   H12       1.0  0.165217181010199  0.6587966219448661  0.7611455925693491  1.0000
  H   H13       1.0  0.33478782476176144  0.15879908506423127  0.76114181875208  1.0000
  H   H14       1.0  0.16520559613818617  0.34122015992643645  0.2611499122592492  1.0000
  H   H15       1.0  0.6652082728545563  0.1587952672032173  0.73885626089146  1.0000
  H   H16       1.0  0.8347883460939514  0.3412135428363072  0.23885369067135545  1.0000
  H   H17       1.0  0.2586664227287372  0.6657933689641667  0.19506395246038016  1.0000
  H   H18       1.0  0.24134594923297928  0.8342246074659628  0.6950707090326066  1.0000
  H   H19       1.0  0.7413485289637408  0.6657830938950439  0.30493249512213794  1.0000
  H   H20       1.0  0.758668167576687  0.8342115337310788  0.8049305327341759  1.0000
  H   H21       1.0  0.7413451044598673  0.3342251921215436  0.8049315991648743  1.0000
  H   H22       1.0  0.758655077867452  0.16578415790987583  0.3049304400182394  1.0000
  H   H23       1.0  0.25865549841685004  0.3342102784683973  0.6950630565641166  1.0000
  H   H24       1.0  0.24133885948894826  0.165795832303175  0.1950687505041274  1.0000
  H   H25       1.0  0.15761217416017806  0.6789881773633226  0.10641352874701235  1.0000
  H   H26       1.0  0.34237401751840923  0.82101883583789  0.6064165377634938  1.0000
  H   H27       1.0  0.8423817783656632  0.6789804689256016  0.39358437855441514  1.0000
  H   H28       1.0  0.657629599194337  0.8210265212838265  0.8935843638810045  1.0000
  H   H29       1.0  0.8423903531639283  0.3210275849499665  0.8935835155497006  1.0000
  H   H30       1.0  0.6576285095432367  0.1789689389360447  0.39358461130768785  1.0000
  H   H31       1.0  0.15760424942894252  0.32101430279858084  0.6064119195172  1.0000
  H   H32       1.0  0.34237892780895146  0.1789766466236671  0.10641529251478232  1.0000
  H   H33       1.0  0.6329524571946977  0.593136010357604  0.9604953578994186  1.0000
  H   H34       1.0  0.8670383777340332  0.9068742900425164  0.46049572805888783  1.0000
  H   H35       1.0  0.3670421529174277  0.5931306120768483  0.5395076062408679  1.0000
  H   H36       1.0  0.1329585811890439  0.9068772889583911  0.03950571413714241  1.0000
  H   H37       1.0  0.36704706999167763  0.4068615600433104  0.03950504485505491  1.0000
  H   H38       1.0  0.13295814941020012  0.09312467969997583  0.5395065404963122  1.0000
  H   H39       1.0  0.6329558740692248  0.40686835763374773  0.46049652809911396  1.0000
  H   H40       1.0  0.8670394460597991  0.0931314764365894  0.9604943154511079  1.0000
  H   H41       1.0  0.6486240284836241  0.3914229149673576  0.9843646085013166  1.0000
  H   H42       1.0  0.8513802437643321  0.1085844993804628  0.4843654746585886  1.0000
  H   H43       1.0  0.3513750756936673  0.3914211314752052  0.5156366210430792  1.0000
  H   H44       1.0  0.1486121917729122  0.10858831419398032  0.015636471011802707  1.0000
  H   H45       1.0  0.35138449859098136  0.608570457345053  0.015633928432315307  1.0000
  H   H46       1.0  0.14861478334690756  0.8914144703429017  0.5156379133769209  1.0000
  H   H47       1.0  0.6486229513405916  0.6085750395012327  0.48436676698412395  1.0000
  H   H48       1.0  0.8513813356627437  0.8914162530997629  0.9843624391250005  1.0000
  C   C1        1.0  0.7934707383274926  0.7914620533827019  0.06927381497016681  1.0000
  C   C2        1.0  0.7065460467334858  0.7085322337558893  0.5692744428831065  1.0000
  C   C3        1.0  0.20652471736541142  0.7914572759392584  0.43072567687615065  1.0000
  C   C4        1.0  0.2934515668797175  0.7085456478385196  0.9307256205714797  1.0000
  C   C5        1.0  0.2065272891356145  0.2085383158289176  0.9307228562053641  1.0000
  C   C6        1.0  0.2934519803720903  0.2914541416254579  0.4307278256819418  1.0000
  C   C7        1.0  0.7934643100424736  0.20853049883470476  0.5692754722481582  1.0000
  C   C8        1.0  0.7065554602096213  0.29145332196134893  0.06927328951918812  1.0000
  C   C9        1.0  0.854481281555408  0.7695805417783674  0.12240161849780412  1.0000
  C   C10       1.0  0.6455137208224357  0.730427322356448  0.6224011793486428  1.0000
  C   C11       1.0  0.1455186733513614  0.7695677850825503  0.3775983012127143  1.0000
  C   C12       1.0  0.35448989326023644  0.7304397535412123  0.8775992024939401  1.0000
  C   C13       1.0  0.145516745860057  0.2304198274204978  0.8775957989939942  1.0000
  C   C14       1.0  0.3544858062684924  0.2695590530312728  0.37760071605236345  1.0000
  C   C15       1.0  0.854473354050988  0.2304157915901541  0.6224017284306387  1.0000
  C   C16       1.0  0.6455141337632712  0.2695704112080791  0.12240194654334864  1.0000
  C   C17       1.0  0.7152029445269504  0.8094858298155075  0.1601496741766937  1.0000
  C   C18       1.0  0.7848007379589034  0.6905277407919785  0.6601497311370681  1.0000
  C   C19       1.0  0.2848060113047239  0.8094729635819462  0.3398505188751742  1.0000
  C   C20       1.0  0.2151998750452293  0.6905456610506493  0.8398503773195574  1.0000
  C   C21       1.0  0.28479808278777335  0.19051593875043699  0.8398481164596847  1.0000
  C   C22       1.0  0.2151957892328085  0.30946003397559  0.33985179111586217  1.0000
  C   C23       1.0  0.7151935158815305  0.1905162105782097  0.6601498838897941  1.0000
  C   C24       1.0  0.7848011521029646  0.3094715005787023  0.16015002540451925  1.0000
  C   C25       1.0  0.7722808042185177  0.802654637444633  0.20990375166874037  1.0000
  C   C26       1.0  0.727724025797343  0.6973544336447259  0.7099020018615366  1.0000
  C   C27       1.0  0.2277281514114193  0.8026546672241891  0.2900964584481188  1.0000
  C   C28       1.0  0.272282587302179  0.6973614600719742  0.7900973431989657  1.0000
  C   C29       1.0  0.22772322299543643  0.1973471311149169  0.7900944121139662  1.0000
  C   C30       1.0  0.272278501264516  0.3026473348638063  0.29009914719215163  1.0000
  C   C31       1.0  0.7722728757603504  0.19734570193001844  0.7099035711388171  1.0000
  C   C32       1.0  0.7277154399229174  0.3026529028104648  0.209903059540416  1.0000
  C   C33       1.0  0.9695548728468139  0.75467268666862  0.22354718932205497  1.0000
  C   C34       1.0  0.5304512150636924  0.7453513111146536  0.7235468722634197  1.0000
  C   C35       1.0  0.0304585812969478  0.75466478738074  0.2764523944475955  1.0000
  C   C36       1.0  0.46955689936824996  0.74534480946226  0.7764530991101781  1.0000
  C   C37       1.0  0.0304491543434438  0.24533747812531465  0.776451347608287  1.0000
  C   C38       1.0  0.4695483120513444  0.25465465550788474  0.27645464995495683  1.0000
  C   C39       1.0  0.9695484458162297  0.245335581798976  0.7235461424831868  1.0000
  C   C40       1.0  0.5304426277944145  0.2546597577995726  0.22354767679368595  1.0000
  C   C41       1.0  0.10695043097585709  0.7102180441501106  0.18540865410442828  1.0000
  C   C42       1.0  0.39304967445911393  0.7898002624398754  0.6854094765905074  1.0000
  C   C43       1.0  0.8930540222038131  0.7102102371514504  0.3145891750668214  1.0000
  C   C44       1.0  0.6069539414022245  0.7898022521698351  0.814590383647442  1.0000
  C   C45       1.0  0.893047596511238  0.28979352005556086  0.8145876438989678  1.0000
  C   C46       1.0  0.6069483527419378  0.21019870732812515  0.3145912993262528  1.0000
  C   C47       1.0  0.1069455051969044  0.2897831351864895  0.6854078692696819  1.0000
  C   C48       1.0  0.39305008569274946  0.21020791259859106  0.1854096459154421  1.0000
  C   C49       1.0  0.0506120651831594  0.7171290042509497  0.1354530682095998  1.0000
  C   C50       1.0  0.4493824185406368  0.7828854124983237  0.6354560766695132  1.0000
  C   C51       1.0  0.9493878882447292  0.7171208886956889  0.36454586317358934  1.0000
  C   C52       1.0  0.550622697030235  0.7828898929405881  0.8645445471659843  1.0000
  C   C53       1.0  0.9493874622177215  0.2828755630746684  0.8645439761129128  1.0000
  C   C54       1.0  0.5506186084882073  0.21711495661762115  0.3645461918662321  1.0000
  C   C55       1.0  0.050608639161374896  0.282866886129284  0.6354523006561266  1.0000
  C   C56       1.0  0.4493813301124305  0.2171230705875118  0.13545473607712927  1.0000
  O   O1        1.0  0.9250480684518648  0.7548830213316863  0.034728601710753516  1.0000
  O   O2        1.0  0.5749536278281228  0.7451096479945107  0.5347271886040803  1.0000
  O   O3        1.0  0.0749503860352618  0.7548812616102367  0.46527172790058574  1.0000
  O   O4        1.0  0.42504398684241096  0.7451204812138742  0.9652731565515682  1.0000
  O   O5        1.0  0.07494995893977571  0.24511734786079845  0.965269188939182  1.0000
  O   O6        1.0  0.425039899392992  0.25488512362760923  0.4652750799681727  1.0000
  O   O7        1.0  0.9250401413818351  0.2451093119233931  0.5347286748980482  1.0000
  O   O8        1.0  0.5749660401223408  0.25487848857323314  0.034726499843564816  1.0000
  O   O9        1.0  0.7245038676714088  0.4850217518257338  0.9642520888660759  1.0000
  O   O10       1.0  0.7754909728806324  0.014991947576270101  0.4642511742377027  1.0000
  O   O11       1.0  0.27548923937872866  0.4850150829718842  0.5357496529843362  1.0000
  O   O12       1.0  0.22450595987000097  0.014996473896630402  0.03574951280580761  1.0000
  O   O13       1.0  0.2754986595094521  0.514973019847389  0.03574719440568691  1.0000
  O   O14       1.0  0.22450555428738284  0.9850042234256832  0.5357507211628632  1.0000
  O   O15       1.0  0.7245072877416022  0.5149782892703882  0.4642529887359999  1.0000
  O   O16       1.0  0.7754920674979006  0.9850094927833125  0.9642486509952665  1.0000
  O   O17       1.0  0.6200203153689543  0.8515303274974143  0.05944431774332062  1.0000
  O   O18       1.0  0.8799737251839302  0.6484782893588205  0.5594467159586004  1.0000
  O   O19       1.0  0.37997514205196137  0.8515322102182026  0.4405557702127326  1.0000
  O   O20       1.0  0.12002088673099819  0.6484857706718472  0.9405534976775842  1.0000
  O   O21       1.0  0.37997621215638583  0.14846584360020637  0.9405519802852285  1.0000
  O   O22       1.0  0.12002280198395711  0.3515094854023744  0.440555179452467  1.0000
  O   O23       1.0  0.6200138852606615  0.14845696390370483  0.5594468715423703  1.0000
  O   O24       1.0  0.8799816404022849  0.3515131991089007  0.05944653190520202  1.0000
