data_image0
_chemical_formula_structural       Ca4Cd4H48C64O48
_chemical_formula_sum              "Ca4 Cd4 H48 C64 O48"
_cell_length_a       14.07252042472337
_cell_length_b       15.731698971696783
_cell_length_c       15.731713919175697
_cell_angle_alpha    78.46013030317943
_cell_angle_beta     63.430191665926856
_cell_angle_gamma    63.429887809551

_space_group_name_H-M_alt    "P 1"
_space_group_IT_number       1

loop_
  _space_group_symop_operation_xyz
  'x, y, z'

loop_
  _atom_site_type_symbol
  _atom_site_label
  _atom_site_symmetry_multiplicity
  _atom_site_fract_x
  _atom_site_fract_y
  _atom_site_fract_z
  _atom_site_occupancy
  Ca  Ca1       1.0  0.04369847413757098  0.41266372125420514  0.9999656301880223  1.0000
  Ca  Ca2       1.0  0.4563934122165777  0.5872289470377864  2.591687793098263e-05  1.0000
  Ca  Ca3       1.0  0.9563946004631132  2.2665224065600005e-05  0.5872291176263645  1.0000
  Ca  Ca4       1.0  0.5437005536361499  0.9999653274164191  0.4126626541214335  1.0000
  Cd  Cd1       1.0  0.26723441932814046  0.5000271775614068  0.9655610108730885  1.0000
  Cd  Cd2       1.0  0.7328616162661136  0.4999771173991192  0.03441834815884445  1.0000
  Cd  Cd3       1.0  0.7672340170875248  0.9655632644356301  0.5000257247618337  1.0000
  Cd  Cd4       1.0  0.23286446064714278  0.034417577001264014  0.49997622103418843  1.0000
  H   H1        1.0  0.12238454010361016  0.26625577595531524  0.6457171926722439  1.0000
  H   H2        1.0  0.034322692591828546  0.7337248968425032  0.35437077840961007  1.0000
  H   H3        1.0  0.2318806792588003  0.6458482486142219  0.7338084714467856  1.0000
  H   H4        1.0  0.6114919203362347  0.3543828450912798  0.2659676176807011  1.0000
  H   H5        1.0  0.6223848726008683  0.6457189941572922  0.2662553263320221  1.0000
  H   H6        1.0  0.5343231452598047  0.3543747708697751  0.7337265434338036  1.0000
  H   H7        1.0  0.7318856049149931  0.7338031262081588  0.6458486354967975  1.0000
  H   H8        1.0  0.11149382345378463  0.2659660047803741  0.3543816942950002  1.0000
  H   H9        1.0  0.1336394251996396  0.2715046801850818  0.13495983103747022  1.0000
  H   H10       1.0  0.5401539513554285  0.7283976165277792  0.8649982554556318  1.0000
  H   H11       1.0  0.7312777087889232  0.135014036604538  0.7283930484242732  1.0000
  H   H12       1.0  0.594628022998322  0.8651242452419864  0.27150144189745623  1.0000
  H   H13       1.0  0.6336381829722129  0.1349585348317532  0.2715042077515406  1.0000
  H   H14       1.0  0.040154716166846176  0.864996354533865  0.7283975964764339  1.0000
  H   H15       1.0  0.2312781370553693  0.728392849208426  0.1350126793145138  1.0000
  H   H16       1.0  0.09462923693533298  0.27150085874076524  0.8651246375470266  1.0000
  H   H17       1.0  0.22001466662844382  0.3212987533867207  0.083253022399532  1.0000
  H   H18       1.0  0.6246054778152156  0.6786551448321845  0.91673364066844  1.0000
  H   H19       1.0  0.6967127618116465  0.08328631808202402  0.6785147839626051  1.0000
  H   H20       1.0  0.4584598290936767  0.9168316323415696  0.32133940356441576  1.0000
  H   H21       1.0  0.7200158450873249  0.08325161043985932  0.3212962441064988  1.0000
  H   H22       1.0  0.124605722944878  0.9167328483413401  0.6786557669574833  1.0000
  H   H23       1.0  0.19671271407809593  0.6785151131672793  0.08328514303977398  1.0000
  H   H24       1.0  0.9584612676332966  0.32133916320112393  0.9168312798807821  1.0000
  H   H25       1.0  0.1450541693298746  0.40992853155927383  0.7755872045575032  1.0000
  H   H26       1.0  0.33052105176152213  0.5899261056532483  0.22466452768964026  1.0000
  H   H27       1.0  0.07932176808014887  0.7755928849921221  0.5901536284215183  1.0000
  H   H28       1.0  0.44522405955028416  0.22453468414620661  0.4097515032599758  1.0000
  H   H29       1.0  0.6450584742689289  0.7755875969705244  0.40992719241450726  1.0000
  H   H30       1.0  0.8305173097369406  0.22466583854804878  0.5899291728210017  1.0000
  H   H31       1.0  0.5793218131887767  0.5901540411674662  0.775595324295317  1.0000
  H   H32       1.0  0.9452207736527569  0.40975329648961184  0.22453805422079404  1.0000
  H   H33       1.0  0.3270447770274316  0.16989387077434512  0.5881366596774527  1.0000
  H   H34       1.0  0.0850223184343903  0.8302800617971259  0.4116830308580718  1.0000
  H   H35       1.0  0.08480459574390403  0.5882082392235619  0.8302204080483621  1.0000
  H   H36       1.0  0.503065032196325  0.4119219887347114  0.16962309910691445  1.0000
  H   H37       1.0  0.8270450610705783  0.588137071141169  0.16989701512663655  1.0000
  H   H38       1.0  0.5850267101075489  0.41168799102013065  0.8302784517362555  1.0000
  H   H39       1.0  0.5848132500293417  0.8302162671597345  0.5882059921355918  1.0000
  H   H40       1.0  0.0030658611023284183  0.16962185813491001  0.41192236747410504  1.0000
  H   H41       1.0  0.504845125212846  0.22616781295038632  0.7188573428475707  1.0000
  H   H42       1.0  0.44987942929603975  0.7738563117436856  0.2810254962345625  1.0000
  H   H43       1.0  0.7761691029727728  0.7190358690880245  0.7740865767000928  1.0000
  H   H44       1.0  0.26914688437237544  0.2809535738082189  0.22610029447567842  1.0000
  H   H45       1.0  0.004845418738014444  0.7188579714521952  0.22616751263559112  1.0000
  H   H46       1.0  0.949884502660396  0.28102401081437023  0.7738536255083588  1.0000
  H   H47       1.0  0.2761712320034847  0.7740889717491939  0.7190347138596851  1.0000
  H   H48       1.0  0.769149352353715  0.22609875963890153  0.28095418009370837  1.0000
  C   C1        1.0  0.31841035223936837  0.3797806251543251  0.8244660092090971  1.0000
  C   C2        1.0  0.522642273189163  0.620224494884795  0.1755093350239464  1.0000
  C   C3        1.0  0.8570321544241607  0.8245574145545761  0.6204142801754458  1.0000
  C   C4        1.0  0.30204704065435817  0.17543823885431212  0.379683774842043  1.0000
  C   C5        1.0  0.8184143122213144  0.8244665637661015  0.3797803514009672  1.0000
  C   C6        1.0  0.022642225287952997  0.17551012775056307  0.6202233186554339  1.0000
  C   C7        1.0  0.3570326206948241  0.6204146827185468  0.8245616362523905  1.0000
  C   C8        1.0  0.8020426370689365  0.37968473469215525  0.1754417041910302  1.0000
  C   C9        1.0  0.5354904344659559  0.10798270737942064  0.5954101613565258  1.0000
  C   C10       1.0  0.23896123584772494  0.8920866065760862  0.40446440834664804  1.0000
  C   C11       1.0  0.8689887480396055  0.595477308496882  0.8921246735040356  1.0000
  C   C12       1.0  0.3564223244804978  0.404491111016725  0.10787054024354606  1.0000
  C   C13       1.0  0.035490403393133405  0.5954128888377425  0.10798144177514499  1.0000
  C   C14       1.0  0.7389685611989805  0.40446169000654214  0.892085487494292  1.0000
  C   C15       1.0  0.3689953899837874  0.8921226283079877  0.5954756933746099  1.0000
  C   C16       1.0  0.8564259674304965  0.10786924451991102  0.404490668113205  1.0000
  C   C17       1.0  0.3243771116948507  0.3231348070879889  0.7555589284742369  1.0000
  C   C18       1.0  0.40305298241574417  0.6768520179027676  0.24442188764264478  1.0000
  C   C19       1.0  0.9199688270729424  0.7556764252525099  0.6770880041974298  1.0000
  C   C20       1.0  0.3527293571805288  0.24434676243706835  0.32298063570006263  1.0000
  C   C21       1.0  0.8243788838669205  0.7555602587556295  0.3231350839961424  1.0000
  C   C22       1.0  0.903054603059907  0.2444216802649279  0.676852149653023  1.0000
  C   C23       1.0  0.4199695218151901  0.6770858844875961  0.7556778685663164  1.0000
  C   C24       1.0  0.8527304749196817  0.32298278873390984  0.24434757153539977  1.0000
  C   C25       1.0  0.22391823838059116  0.3474177378781675  0.7413763598979132  1.0000
  C   C26       1.0  0.3126956295206185  0.6525191900592162  0.25871714289876735  1.0000
  C   C27       1.0  0.034625895666735365  0.7414695405926184  0.6527346458449588  1.0000
  C   C28       1.0  0.42890159356983293  0.2586134048381155  0.34720325471693775  1.0000
  C   C29       1.0  0.7239209151332063  0.7413780526370531  0.34741530848934593  1.0000
  C   C30       1.0  0.812695370636952  0.2587195851714696  0.6525209171648927  1.0000
  C   C31       1.0  0.5346285301262198  0.6527336798064384  0.7414723469015957  1.0000
  C   C32       1.0  0.9289035223646425  0.34720294801879703  0.25861406598603764  1.0000
  C   C33       1.0  0.22327065637808388  0.2920108351447297  0.6821375903562412  1.0000
  C   C34       1.0  0.1974055816502087  0.7079625552328963  0.3179042951277894  1.0000
  C   C35       1.0  0.09455864867356209  0.6822201975095156  0.7080982021576007  1.0000
  C   C36       1.0  0.4848800021439247  0.31789309239051283  0.29174798033185595  1.0000
  C   C37       1.0  0.723272378367689  0.6821382818977074  0.292010481829962  1.0000
  C   C38       1.0  0.6974061063344337  0.3179076901092871  0.707962808606972  1.0000
  C   C39       1.0  0.594565445830952  0.7080915680382917  0.6822198976034601  1.0000
  C   C40       1.0  0.984880761038035  0.29174889750407135  0.3178943051414152  1.0000
  C   C41       1.0  0.3255816647352675  0.21308355505067317  0.6352844182952851  1.0000
  C   C42       1.0  0.17393090943362216  0.7869889319860163  0.36463536324404805  1.0000
  C   C43       1.0  0.03907624491959889  0.6353966053797678  0.7870694618405025  1.0000
  C   C44       1.0  0.4614419461026031  0.3646957673124619  0.21281631197960138  1.0000
  C   C45       1.0  0.8255836749072002  0.6352854193728706  0.2130840098441242  1.0000
  C   C46       1.0  0.6739334501897574  0.36463719650290477  0.7869884187792381  1.0000
  C   C47       1.0  0.5390835022856209  0.7870632303949707  0.6353965778192504  1.0000
  C   C48       1.0  0.9614445002262287  0.21281530695755896  0.3646942839613489  1.0000
  C   C49       1.0  0.426445939531803  0.1900969586802361  0.6486080747558489  1.0000
  C   C50       1.0  0.26513205366455855  0.8099870294970657  0.3512718273235792  1.0000
  C   C51       1.0  0.924875286606415  0.6487314299851834  0.8100918162844762  1.0000
  C   C52       1.0  0.3835613464278184  0.3512933847201012  0.18991008503034132  1.0000
  C   C53       1.0  0.9264470573504083  0.648609082119954  0.19009672590615193  1.0000
  C   C54       1.0  0.7651352148034434  0.3512731529376155  0.8099853947162857  1.0000
  C   C55       1.0  0.42488114894758405  0.810088519560111  0.6487288233246391  1.0000
  C   C56       1.0  0.8835634897546857  0.18990999867100564  0.3512931494162926  1.0000
  C   C57       1.0  0.426274068174763  0.24461406300375194  0.70895349523871  1.0000
  C   C58       1.0  0.3798434137974737  0.7554050538522361  0.29097181377409254  1.0000
  C   C59       1.0  0.8646521547351325  0.7091093968411075  0.7556219798116859  1.0000
  C   C60       1.0  0.329278278633268  0.29092130005437883  0.24447986932766955  1.0000
  C   C61       1.0  0.92627546392206  0.7089533114050186  0.24461526297076827  1.0000
  C   C62       1.0  0.8798466611711432  0.29096994835882833  0.7554051456364307  1.0000
  C   C63       1.0  0.3646565735500572  0.7556204559253956  0.7091102127647986  1.0000
  C   C64       1.0  0.8292777560351254  0.24448131208441742  0.2909211127741786  1.0000
  O   O1        1.0  0.21679077705162797  0.42483317319265984  0.8899211409035888  1.0000
  O   O2        1.0  0.5315082345009615  0.5751462500139937  0.11009034953052327  1.0000
  O   O3        1.0  0.8932687337214129  0.8899438929573195  0.5752433476894936  1.0000
  O   O4        1.0  0.3585250518233566  0.11009167231055986  0.4248556227167058  1.0000
  O   O5        1.0  0.7167934058299751  0.8899200902469462  0.42483437166623633  1.0000
  O   O6        1.0  0.03150861696428825  0.11009202565833223  0.5751453667024577  1.0000
  O   O7        1.0  0.39327352815634226  0.5752414325669193  0.8899448741678598  1.0000
  O   O8        1.0  0.8585252210282663  0.42485241097329424  0.11009278343016873  1.0000
  O   O9        1.0  0.40734899838698624  0.38414812081159516  0.8216476434520531  1.0000
  O   O10       1.0  0.6131209161998824  0.6160001610697776  0.17823795958531027  1.0000
  O   O11       1.0  0.7708364518798873  0.8217711875300254  0.6161235907026638  1.0000
  O   O12       1.0  0.20882108819053977  0.1781395822534222  0.3839631997263028  1.0000
  O   O13       1.0  0.9073530745980705  0.8216480537441484  0.3841470567845776  1.0000
  O   O14       1.0  0.11312789425280542  0.17823797533837654  0.6159928966721965  1.0000
  O   O15       1.0  0.2708376283330838  0.6161260112169772  0.821773127132218  1.0000
  O   O16       1.0  0.7088199820091532  0.3839645686591808  0.1781427012405032  1.0000
  O   O17       1.0  0.622929145160569  0.07660350852536621  0.6175424236962002  1.0000
  O   O18       1.0  0.3172663730799314  0.9233426427022027  0.3823318552705858  1.0000
  O   O19       1.0  0.7594122870613873  0.617637676721003  0.9233819391202548  1.0000
  O   O20       1.0  0.30029238288712895  0.3823096298663203  0.07661866016890434  1.0000
  O   O21       1.0  0.1229289568525686  0.6175445928751202  0.07660213791864129  1.0000
  O   O22       1.0  0.8172712726678172  0.3823319085515209  0.9233437122495334  1.0000
  O   O23       1.0  0.2594202814594978  0.9233808165736835  0.6176353750538653  1.0000
  O   O24       1.0  0.8002925891401845  0.07661908255174413  0.38231062217511885  1.0000
  O   O25       1.0  0.5402361816582656  0.07138689432296991  0.5278369255924105  1.0000
  O   O26       1.0  0.13959307841756896  0.9287256885978721  0.47208301333103725  1.0000
  O   O27       1.0  0.9317355524948352  0.5278214998503972  0.9287241689938386  1.0000
  O   O28       1.0  0.38811300282637273  0.4721541141250754  0.07123596050994509  1.0000
  O   O29       1.0  0.040236334062328155  0.5278385756015069  0.07138651013491433  1.0000
  O   O30       1.0  0.6395978997588543  0.47207785082126474  0.9287279949213955  1.0000
  O   O31       1.0  0.4317440766674139  0.9287204034490774  0.5278164294298265  1.0000
  O   O32       1.0  0.8881140295176878  0.07123459970405582  0.4721539128267694  1.0000
  O   O33       1.0  0.12216250429663224  0.3183427957833871  0.6741581814626373  1.0000
  O   O34       1.0  0.11463010483162604  0.6816161352329714  0.32596792499258953  1.0000
  O   O35       1.0  0.20365426990665722  0.6742258308890998  0.6817162899881027  1.0000
  O   O36       1.0  0.5595279612349843  0.3260483279341813  0.31810699190282327  1.0000
  O   O37       1.0  0.6221640826097004  0.6741592153561559  0.31834302501813755  1.0000
  O   O38       1.0  0.6146278858556898  0.32597463983748304  0.6816178587601558  1.0000
  O   O39       1.0  0.7036606625159152  0.6817110905900705  0.6742267629876366  1.0000
  O   O40       1.0  0.05952993661213674  0.31810536977123144  0.32604792041367864  1.0000
  O   O41       1.0  0.16825903987825794  0.29982021426905453  0.07460609236150618  1.0000
  O   O42       1.0  0.5427431326015653  0.7001021676148086  0.9253559875975628  1.0000
  O   O43       1.0  0.7571112838579663  0.07468733589142572  0.6999790676381538  1.0000
  O   O44       1.0  0.5317025273778809  0.9254607090148498  0.29987979819986804  1.0000
  O   O45       1.0  0.668261261059186  0.07460425975695274  0.2998179019140609  1.0000
  O   O46       1.0  0.04274348655322759  0.9253550790766883  0.7001028608337451  1.0000
  O   O47       1.0  0.257111182232393  0.6999792345296213  0.07468718028894739  1.0000
  O   O48       1.0  0.031703175818449676  0.29987946166589563  0.9254605966291366  1.0000
