data_image0
_chemical_formula_structural       Zn2H56C57Br6N4O19
_chemical_formula_sum              "Zn2 H56 C57 Br6 N4 O19"
_cell_length_a       10.083353917937414
_cell_length_b       10.736640130102977
_cell_length_c       23.632452572278186
_cell_angle_alpha    89.23476600714427
_cell_angle_beta     88.73748601091414
_cell_angle_gamma    89.46093334700286

_space_group_name_H-M_alt    "P 1"
_space_group_IT_number       1

loop_
  _space_group_symop_operation_xyz
  'x, y, z'

loop_
  _atom_site_type_symbol
  _atom_site_label
  _atom_site_symmetry_multiplicity
  _atom_site_fract_x
  _atom_site_fract_y
  _atom_site_fract_z
  _atom_site_occupancy
  Zn  Zn1       1.0  0.3592594424012105  0.4919936926080907  0.5002817808155626  1.0000
  Zn  Zn2       1.0  0.6363020194267934  0.49440682566214633  0.49779806256508863  1.0000
  H   H1        1.0  0.30432409359794127  0.5690430886758263  0.3255665294461139  1.0000
  H   H2        1.0  0.6953450142421431  0.4090182705558618  0.3171357874532035  1.0000
  H   H3        1.0  0.47287842247655487  0.8196463151655777  0.943118501368609  1.0000
  H   H4        1.0  0.4368406531139542  0.19877194782331742  0.057924564403073496  1.0000
  H   H5        1.0  0.29114629900379185  0.4591838400812662  0.668972034400788  1.0000
  H   H6        1.0  0.6534746491752443  0.568500448036474  0.7957247213464881  1.0000
  H   H7        1.0  0.3017805539348331  0.5841064871196907  0.21923391522103228  1.0000
  H   H8        1.0  0.8880298612429699  0.20244872431059244  0.4622666616827473  1.0000
  H   H9        1.0  0.8917615668831901  0.03874278354633281  0.4499244273726434  1.0000
  H   H10       1.0  0.9380171926156181  0.1109954263712964  0.5481105300188388  1.0000
  H   H11       1.0  0.7716394410135122  0.1596481178970492  0.5561802288808622  1.0000
  H   H12       1.0  0.6944899152092319  0.9403654208111903  0.555421836983129  1.0000
  H   H13       1.0  0.8308750283097839  0.9464575020275062  0.6008923960593648  1.0000
  H   H14       1.0  0.8518558089727221  0.886845925328501  0.5313015787821627  1.0000
  H   H15       1.0  0.2532521232618237  0.9944360493275255  0.5624314529737902  1.0000
  H   H16       1.0  0.25897170699229116  0.1402009517441343  0.5249201475591647  1.0000
  H   H17       1.0  0.3638780429403141  0.08860261399803451  0.6443688448549947  1.0000
  H   H18       1.0  0.37581561379094114  0.23367323551732974  0.6080233300191437  1.0000
  H   H19       1.0  0.12919868743899343  0.25179016296267065  0.60429951245046  1.0000
  H   H20       1.0  0.17870454447629672  0.2320722948117009  0.6756819144105037  1.0000
  H   H21       1.0  0.11109780077472212  0.10491565283489018  0.6390319745100895  1.0000
  H   H22       1.0  0.8501654065520228  0.8478575295570396  0.36922208753665586  1.0000
  H   H23       1.0  0.750341330457708  0.9836304919275419  0.3592919758394331  1.0000
  H   H24       1.0  0.6433887040619054  0.7168607861814066  0.3552743151167165  1.0000
  H   H25       1.0  0.5561073593274842  0.8546925037495399  0.3378581792554201  1.0000
  H   H26       1.0  0.7238081220390953  0.8984617185753481  0.2577229254976814  1.0000
  H   H27       1.0  0.637630986428185  0.7575889499631571  0.248582425912673  1.0000
  H   H28       1.0  0.8029130414037269  0.7538867071482828  0.2729217043884731  1.0000
  H   H29       1.0  0.21150222612911315  0.7851549068510123  0.4394335863115514  1.0000
  H   H30       1.0  0.33778034746158886  0.7870095036203039  0.38560969847264903  1.0000
  H   H31       1.0  0.13183047474363013  0.9925753992952197  0.4095379887996414  1.0000
  H   H32       1.0  0.2718582394217605  0.013936768887603503  0.3641808016405221  1.0000
  H   H33       1.0  0.19907274371877295  0.8461033721232879  0.3006410912905224  1.0000
  H   H34       1.0  0.06354803217531212  0.9508628146496818  0.31084344580075646  1.0000
  H   H35       1.0  0.0665216795527783  0.8060555050047428  0.347876093385274  1.0000
  H   H36       1.0  0.2360627884265725  0.3063860966201092  0.3722547214894334  1.0000
  H   H37       1.0  0.13733368146894523  0.44225451449276687  0.361275182796355  1.0000
  H   H38       1.0  0.03552388502713911  0.17309111440739852  0.3700683955651627  1.0000
  H   H39       1.0  0.9315042066806712  0.30535641491772486  0.36291043617425345  1.0000
  H   H40       1.0  0.0438093866739706  0.3598087260266425  0.269229930623986  1.0000
  H   H41       1.0  0.976206979374169  0.20832425463201076  0.2683079370709507  1.0000
  H   H42       1.0  0.14977393731194158  0.2274897476159268  0.2758763713040366  1.0000
  H   H43       1.0  0.2459146781666774  0.6814402259832661  0.571729227365715  1.0000
  H   H44       1.0  0.13993582934941173  0.5651638552905993  0.6036268759545251  1.0000
  H   H45       1.0  0.0632624266053128  0.8368572473427277  0.5765649805071646  1.0000
  H   H46       1.0  0.9498478873072287  0.7221525557334588  0.5999419517252845  1.0000
  H   H47       1.0  0.07722695338765112  0.6926478372425323  0.690628016141325  1.0000
  H   H48       1.0  0.023413258343445917  0.8493112226211464  0.6816488271803747  1.0000
  H   H49       1.0  0.191705816249268  0.8079915036526302  0.6674285445548803  1.0000
  H   H50       1.0  0.29403779740135866  0.08269952177887063  0.8930579447916998  1.0000
  H   H51       1.0  0.2232105880219564  0.22236831889770772  0.9204800722698464  1.0000
  H   H52       1.0  0.25770017811684204  0.9745249184178065  0.985686761487912  1.0000
  H   H53       1.0  0.2032233558891363  0.1141295711077106  0.01735989610291  1.0000
  H   H54       1.0  0.0010276732930805  0.12001581382252619  0.9568313573373217  1.0000
  H   H55       1.0  0.010487941676309698  0.9777586329126323  0.9955548584956871  1.0000
  H   H56       1.0  0.05474458391395841  0.9816279998131279  0.922470978188933  1.0000
  C   C1        1.0  0.5014521259438139  0.7236254927565823  0.47192962759388735  1.0000
  C   C2        1.0  0.48656967736698675  0.7363884618717975  0.026939307847136693  1.0000
  C   C3        1.0  0.46950907847404005  0.7336670319027903  0.9681311415810185  1.0000
  C   C4        1.0  0.45045323270884546  0.6224138607670611  0.940585839661317  1.0000
  C   C5        1.0  0.44645201398334666  0.5077487569184669  0.9709571337945987  1.0000
  C   C6        1.0  0.4285341292050547  0.3930699663783699  0.9423724101191906  1.0000
  C   C7        1.0  0.42342448340142624  0.2813081790406287  0.9744506210985405  1.0000
  C   C8        1.0  0.44042998596655997  0.2854240268117465  0.0334343143032569  1.0000
  C   C9        1.0  0.43849187857568966  0.6267445365089586  0.8783132521150917  1.0000
  C   C10       1.0  0.42908281279434146  0.3919806585597527  0.8797431302857817  1.0000
  C   C11       1.0  0.347668066108902  0.4818008362681566  0.7555401967008134  1.0000
  C   C12       1.0  0.5005442954510927  0.5154958894700101  0.6084786326159984  1.0000
  C   C13       1.0  0.3698281174609619  0.48376804267039114  0.6973773111270276  1.0000
  C   C14       1.0  0.49244519195668357  0.5178702241739969  0.6725450574432158  1.0000
  C   C15       1.0  0.5945082006380034  0.54987082007883  0.7091956817377678  1.0000
  C   C16       1.0  0.5735504646353179  0.5443813952353053  0.7677326269861879  1.0000
  C   C17       1.0  0.4511186208201395  0.5106742062001217  0.7913877544680189  1.0000
  C   C18       1.0  0.38730971387932567  0.5459002963164252  0.24118755932357763  1.0000
  C   C19       1.0  0.38818399642770623  0.5368818797555833  0.2997522934413439  1.0000
  C   C20       1.0  0.49828408318075657  0.48482965960677393  0.3267003860656388  1.0000
  C   C21       1.0  0.6101451530339406  0.44737823004137306  0.2951433996646173  1.0000
  C   C22       1.0  0.6095452208969903  0.45896928398273223  0.23647103636883318  1.0000
  C   C23       1.0  0.505823026561032  0.2553846404102487  0.5079054517796067  1.0000
  C   C24       1.0  0.4969557009950947  0.5049407824376999  0.20932211411657417  1.0000
  C   C25       1.0  0.6054316922641475  0.061057353851026584  0.4662884061054484  1.0000
  C   C26       1.0  0.5160499580772396  0.11607046577778143  0.5035584847304762  1.0000
  C   C27       1.0  0.6016306777618537  0.9316944256220269  0.450428166875902  1.0000
  C   C28       1.0  0.4914149032446319  0.8558059835463395  0.4535967614074039  1.0000
  C   C29       1.0  0.0776049515622006  0.4585124069991052  0.4653287345068478  1.0000
  C   C30       1.0  0.935005001384127  0.4945538591995771  0.4607488562390003  1.0000
  C   C31       1.0  0.49619671976346075  0.47089946037814195  0.3898699129712924  1.0000
  C   C32       1.0  0.4668889924460231  0.39172556568246353  0.12338278840228871  1.0000
  C   C33       1.0  0.499666875040731  0.6239900465007722  0.12143293470828809  1.0000
  C   C34       1.0  0.4824399296658797  0.6259271028489195  0.05922538669045709  1.0000
  C   C35       1.0  0.4618681526181589  0.5112262211221008  0.030844174777861597  1.0000
  C   C36       1.0  0.4577161776187282  0.3962915352489063  0.0611950900424745  1.0000
  C   C37       1.0  0.8370536064422112  0.11435985357416464  0.47164909194528076  1.0000
  C   C38       1.0  0.8359279749955564  0.0899332431054631  0.5354632872226048  1.0000
  C   C39       1.0  0.8011977844057868  0.9586323259037925  0.5566450557649105  1.0000
  C   C40       1.0  0.30767997201650127  0.08222684991105919  0.5570944521292702  1.0000
  C   C41       1.0  0.3149699809295612  0.14964989413298474  0.6132121167293575  1.0000
  C   C42       1.0  0.17586155635233072  0.1865731943739419  0.6343756771129563  1.0000
  C   C43       1.0  0.7486179512871871  0.8851612200204142  0.3734284962923269  1.0000
  C   C44       1.0  0.6551836969127082  0.8109807406061833  0.3370976064724758  1.0000
  C   C45       1.0  0.7076226102960063  0.8047412994087537  0.275865915047703  1.0000
  C   C46       1.0  0.27860888426079106  0.8462150841944194  0.41461820691497303  1.0000
  C   C47       1.0  0.2019464486983793  0.9436671182905768  0.3809444505695084  1.0000
  C   C48       1.0  0.1286133220047958  0.8836780695243078  0.3324350586266718  1.0000
  C   C49       1.0  0.1366307813824719  0.34694414224385645  0.3785994363438263  1.0000
  C   C50       1.0  0.030909095047754003  0.2681339923211823  0.3523236276269088  1.0000
  C   C51       1.0  0.05172038325736851  0.2657016447222276  0.2879113468970331  1.0000
  C   C52       1.0  0.1429146082526458  0.6507284154550633  0.5775554018808647  1.0000
  C   C53       1.0  0.053909698466540604  0.7512778864356376  0.6023833859172854  1.0000
  C   C54       1.0  0.0887545115367558  0.7766486170391504  0.6638410513308841  1.0000
  C   C55       1.0  0.2767067777703787  0.1360546983952631  0.9318580795725635  1.0000
  C   C56       1.0  0.2024003999333956  0.06161515732448919  0.9776137230033015  1.0000
  C   C57       1.0  0.05947945566342131  0.03378332664345861  0.9620832706732969  1.0000
  Br  Br1       1.0  0.5159816680053878  0.8964987594085727  0.0566283122335989  1.0000
  Br  Br2       1.0  0.7633282845793303  0.4124877947125611  0.19351704102332687  1.0000
  Br  Br3       1.0  0.8877459415265535  0.5766535604507866  0.39302875469918047  1.0000
  Br  Br4       1.0  0.9002622275596793  0.4010018320673794  0.5671747027005978  1.0000
  Br  Br5       1.0  0.17560822597123865  0.4436998692975678  0.7846494828334158  1.0000
  Br  Br6       1.0  0.7657471212419793  0.604793947075038  0.685371023092472  1.0000
  N   N1        1.0  0.4894487763253039  0.5067080662395042  0.1488683426347635  1.0000
  N   N2        1.0  0.43706987663917113  0.5100981677474722  0.8519504592289238  1.0000
  N   N3        1.0  0.15490266394272822  0.520358947980789  0.4975273850932922  1.0000
  N   N4        1.0  0.8441367174227568  0.47374302467741103  0.4982956756297695  1.0000
  O   O1        1.0  0.3977215469499314  0.679571330511969  0.4968900999217496  1.0000
  O   O2        1.0  0.5205176411475136  0.7163944390774262  0.14984473867799147  1.0000
  O   O3        1.0  0.4339550751111361  0.724360795350421  0.8506794408616897  1.0000
  O   O4        1.0  0.42738536658301746  0.2973701557683981  0.8512428526694507  1.0000
  O   O5        1.0  0.6110792125174385  0.6638558592971648  0.4652952114363344  1.0000
  O   O6        1.0  0.3940237412690807  0.48170229473129206  0.5849978174979711  1.0000
  O   O7        1.0  0.6076788972157275  0.5447091665335009  0.5829987037991202  1.0000
  O   O8        1.0  0.3935736788477159  0.30256541973632517  0.4957311972715742  1.0000
  O   O9        1.0  0.6078807522470839  0.3146031244577899  0.5223252753886243  1.0000
  O   O10       1.0  0.3860866742868083  0.4995298319409329  0.41421629433259005  1.0000
  O   O11       1.0  0.6010549002923681  0.43403257154829333  0.4137138042279318  1.0000
  O   O12       1.0  0.4546481599799251  0.2956999141655388  0.1518103336423167  1.0000
  O   O13       1.0  0.7093742588649549  0.13138071950161387  0.44453049106591175  1.0000
  O   O14       1.0  0.43652638966130297  0.0419341280815715  0.5355914486602273  1.0000
  O   O15       1.0  0.7227283665701095  0.8810568498004585  0.4341717442219987  1.0000
  O   O16       1.0  0.3666478225168674  0.9081932803908329  0.45267765912455354  1.0000
  O   O17       1.0  0.12218423846916694  0.3541961162206704  0.4410032308692635  1.0000
  O   O18       1.0  0.090143193039296  0.6220510369835068  0.5220801288743927  1.0000
  O   O19       1.0  0.40750043647818057  0.16677523002945088  0.9525727664410795  1.0000
