data_image0
_chemical_formula_structural       Zn8H48C56S4O26F4
_chemical_formula_sum              "Zn8 H48 C56 S4 O26 F4"
_cell_length_a       17.890075715567463
_cell_length_b       18.58600781290552
_cell_length_c       19.448135946962793
_cell_angle_alpha    118.75564673785442
_cell_angle_beta     116.26599698332235
_cell_angle_gamma    89.90994986754055

_space_group_name_H-M_alt    "P 1"
_space_group_IT_number       1

loop_
  _space_group_symop_operation_xyz
  'x, y, z'

loop_
  _atom_site_type_symbol
  _atom_site_label
  _atom_site_symmetry_multiplicity
  _atom_site_fract_x
  _atom_site_fract_y
  _atom_site_fract_z
  _atom_site_occupancy
  Zn  Zn1       1.0  0.8694946764509054  0.4576754758957051  0.9204149323941451  1.0000
  Zn  Zn2       1.0  0.036274107207418596  0.4480797575105058  0.06770868103218669  1.0000
  Zn  Zn3       1.0  0.032350940601389794  0.6196467846581868  0.0662619348957065  1.0000
  Zn  Zn4       1.0  0.04639638053892975  0.45692946553448627  0.9100449907259216  1.0000
  Zn  Zn5       1.0  0.6230942468728886  0.03180612859330981  0.0669520019033669  1.0000
  Zn  Zn6       1.0  0.4581117013639613  0.8714457496991983  0.9143849748751052  1.0000
  Zn  Zn7       1.0  0.4629391139804754  0.04223761385340922  0.9137078095354028  1.0000
  Zn  Zn8       1.0  0.4410353290922658  0.03555316991518251  0.0668187505750595  1.0000
  H   H1        1.0  0.7852357593295524  0.6840596449746814  0.8796739647128503  1.0000
  H   H2        1.0  0.8711540815621817  0.7694794530444043  0.9834036644381284  1.0000
  H   H3        1.0  0.7813099175820923  0.8607530791462993  0.9799660570397107  1.0000
  H   H4        1.0  0.6956319094634864  0.7745850506340659  0.87686759483973  1.0000
  H   H5        1.0  0.8027420344480733  0.8932230713345317  0.12942188236041116  1.0000
  H   H6        1.0  0.7320224678918308  0.8317883792677775  0.13390605715549236  1.0000
  H   H7        1.0  0.89165314984632  0.8006974212579934  0.13241881665576472  1.0000
  H   H8        1.0  0.8194529625475654  0.7389645318375527  0.13516483791269  1.0000
  H   H9        1.0  0.6816778676887907  0.5929296173365516  0.8827401459499242  1.0000
  H   H10       1.0  0.695954483000264  0.6152910505304092  0.987111937063105  1.0000
  H   H11       1.0  0.6067710260002743  0.7071356235598928  0.9850578329487334  1.0000
  H   H12       1.0  0.5926051550516221  0.6847836256409395  0.8807845227715703  1.0000
  H   H13       1.0  0.09109726467965364  0.18264256836189935  0.8698787541937847  1.0000
  H   H14       1.0  0.10918909057011203  0.20848213371769486  0.9772468780441271  1.0000
  H   H15       1.0  0.19828941627889649  0.1161908596545942  0.9783349899903866  1.0000
  H   H16       1.0  0.18001675823675353  0.09135622408985714  0.8711800867125844  1.0000
  H   H17       1.0  0.32113467094542614  0.23829048027791092  0.12148563046450529  1.0000
  H   H18       1.0  0.3923672633901846  0.3004369995012867  0.11811604517922088  1.0000
  H   H19       1.0  0.233366846056569  0.33185823565073497  0.12072755784103607  1.0000
  H   H20       1.0  0.30414315598154923  0.3923538645967355  0.1153301173872308  1.0000
  H   H21       1.0  0.19082896943269392  0.27068658164341036  0.8610308496619581  1.0000
  H   H22       1.0  0.27758392073080523  0.35658549966979786  0.9607838017781275  1.0000
  H   H23       1.0  0.36711709253342656  0.2650959690776915  0.9630821079662863  1.0000
  H   H24       1.0  0.28050577500511753  0.17931610049913627  0.8631030140345074  1.0000
  H   H25       1.0  0.8246561637469227  0.19349901651262516  0.9147462494513121  1.0000
  H   H26       1.0  0.7335121853562397  0.22266122421404333  0.8587220522321102  1.0000
  H   H27       1.0  0.6447489078645178  0.12700855397508087  0.8550110151978882  1.0000
  H   H28       1.0  0.7364947550046705  0.09903909796577177  0.9119005715709249  1.0000
  H   H29       1.0  0.5977452343588753  0.24853461136787305  0.9441719204512466  1.0000
  H   H30       1.0  0.65490508133  0.30611413186169756  0.0640082432184172  1.0000
  H   H31       1.0  0.6874543178272959  0.3447537394304164  0.9490828363966343  1.0000
  H   H32       1.0  0.744830972108467  0.4008685955399613  0.0688773535116169  1.0000
  H   H33       1.0  0.9085928666596886  0.2752576698425742  0.0874934316797962  1.0000
  H   H34       1.0  0.8761682220057239  0.36008289495725876  0.15031291682632286  1.0000
  H   H35       1.0  0.7866748199771934  0.2653163515943576  0.1467489867694241  1.0000
  H   H36       1.0  0.8193044681574834  0.18063750555060656  0.0842445761984649  1.0000
  H   H37       1.0  0.08653499560474393  0.7193828022856508  0.9016719719589688  1.0000
  H   H38       1.0  0.121987958947038  0.6347440339255926  0.8413601504653625  1.0000
  H   H39       1.0  0.20927523023718927  0.7307092145044011  0.8440452320406493  1.0000
  H   H40       1.0  0.1752998256718072  0.8152576184388992  0.9066342101154204  1.0000
  H   H41       1.0  0.33838424226128444  0.689832187076938  0.924807584685027  1.0000
  H   H42       1.0  0.398167091924897  0.7465261319407687  0.0445361078686659  1.0000
  H   H43       1.0  0.25075878230153836  0.5956829100877031  0.924191833213932  1.0000
  H   H44       1.0  0.3100279356500408  0.653972815060108  0.043933829545856895  1.0000
  H   H45       1.0  0.17017266676742793  0.8044259580488954  0.0743076079580334  1.0000
  H   H46       1.0  0.2603342286090821  0.7775185826615783  0.13323776956818986  1.0000
  H   H47       1.0  0.35099931497943965  0.8701537911799806  0.13577089036318307  1.0000
  H   H48       1.0  0.2609536693957963  0.8988120753721561  0.07904305191345881  1.0000
  C   C1        1.0  0.8582972306765129  0.3639055145491668  0.003135618608368399  1.0000
  C   C2        1.0  0.1206487154853733  0.6193426677014457  0.2354455697737947  1.0000
  C   C3        1.0  0.8554936231127996  0.6361489529334532  3.911927377939766e-05  1.0000
  C   C4        1.0  0.1353877241812143  0.631176300551708  0.9843147850554813  1.0000
  C   C5        1.0  0.8699460603882797  0.37321554936588813  0.7469688629718619  1.0000
  C   C6        1.0  0.1361388127444201  0.35472183077900626  0.9842540859119993  1.0000
  C   C7        1.0  0.638808830056803  0.857503096589369  0.9953622862177341  1.0000
  C   C8        1.0  0.3806583555149032  0.8714404378351545  0.7455629119908378  1.0000
  C   C9        1.0  0.6415649168060754  0.1359705182951673  0.9956489103135269  1.0000
  C   C10       1.0  0.3534668017843642  0.1329685557702335  0.9874537865329528  1.0000
  C   C11       1.0  0.611377550550074  0.1174361619690174  0.2355017256128349  1.0000
  C   C12       1.0  0.35101797112665883  0.8573991718901084  0.9881657466237853  1.0000
  C   C13       1.0  0.7293858102912409  0.29528402807437  0.590521661203546  1.0000
  C   C14       1.0  0.7500428773309054  0.1956122592584748  0.39239145051205065  1.0000
  C   C15       1.0  0.8186076120079309  0.3234553566252459  0.6472495430045058  1.0000
  C   C16       1.0  0.6608903041563394  0.1674937736610644  0.33534596492440016  1.0000
  C   C17       1.0  0.7756274339032531  0.24243637196273937  0.485365452206551  1.0000
  C   C18       1.0  0.7035237919410448  0.24885438509080873  0.4974045698564283  1.0000
  C   C19       1.0  0.19929369482537143  0.7565637251421862  0.3950689552159758  1.0000
  C   C20       1.0  0.29860188491127815  0.7341727198978846  0.5862678186927113  1.0000
  C   C21       1.0  0.16989377800461367  0.6688970859186015  0.3350023838880317  1.0000
  C   C22       1.0  0.329040356083361  0.8218399925307196  0.6461470536251069  1.0000
  C   C23       1.0  0.25096372986884324  0.7095197288718395  0.49446260316875607  1.0000
  C   C24       1.0  0.24607841032318586  0.781021970171743  0.4867924177399701  1.0000
  C   C25       1.0  0.8031715144534104  0.7350125224943369  0.9491061285677062  1.0000
  C   C26       1.0  0.7436548821558305  0.7955805774384076  0.9472410198341805  1.0000
  C   C27       1.0  0.6960344064831716  0.796962528032509  0.9975657093122052  1.0000
  C   C28       1.0  0.7647898366712056  0.8281826616569533  0.09643809590111369  1.0000
  C   C29       1.0  0.8235032902363598  0.7668636261190188  0.097843640721976  1.0000
  C   C30       1.0  0.795603852761907  0.6944155834130257  0.9999396238128992  1.0000
  C   C31       1.0  0.7009925969390524  0.6452367491829848  0.9518853973570599  1.0000
  C   C32       1.0  0.6420707207032095  0.7060342971781212  0.9506189309702363  1.0000
  C   C33       1.0  0.14184813596701668  0.2053444889050767  0.9399043826596056  1.0000
  C   C34       1.0  0.20108277178877643  0.1442785747880748  0.9407859351784537  1.0000
  C   C35       1.0  0.29583019365328767  0.19348210548612607  0.9859584379640722  1.0000
  C   C36       1.0  0.3242691883934087  0.2661687593523325  0.08393894603913307  1.0000
  C   C37       1.0  0.2656651254809361  0.3274919328507338  0.08279960598088108  1.0000
  C   C38       1.0  0.19598988657941158  0.29619441022995124  0.9840592436585495  1.0000
  C   C39       1.0  0.2403808470676907  0.2920601470617045  0.9308991211029536  1.0000
  C   C40       1.0  0.2996590246832583  0.2314671025858105  0.9322907986790767  1.0000
  C   C41       1.0  0.7685872692352335  0.2162341708614336  0.9173802240735113  1.0000
  C   C42       1.0  0.7096874729992353  0.15317843611168783  0.9151600633953478  1.0000
  C   C43       1.0  0.7016470844427047  0.1991651415464375  0.0013867758537670972  1.0000
  C   C44       1.0  0.6627407843549662  0.2740822190723904  0.004021077405859298  1.0000
  C   C45       1.0  0.7222240086445808  0.3372694836208936  0.006981566011177197  1.0000
  C   C46       1.0  0.8014113523861397  0.3052165614255671  0.005467296199988395  1.0000
  C   C47       1.0  0.8515026444110634  0.2967714576907525  0.0877628660133922  1.0000
  C   C48       1.0  0.7922772925731323  0.2340335031042429  0.0854634172858653  1.0000
  C   C49       1.0  0.14439450436537973  0.6985422267000914  0.9027035683358519  1.0000
  C   C50       1.0  0.2031075551377484  0.7619964338434145  0.9049563222343195  1.0000
  C   C51       1.0  0.2944169816001505  0.7978198502345322  0.9899362635197732  1.0000
  C   C52       1.0  0.3323293318530959  0.7219983761177248  0.9857163126085808  1.0000
  C   C53       1.0  0.2738258022337093  0.6599060757528505  0.9849785966866946  1.0000
  C   C54       1.0  0.19509911677517514  0.6924609711131993  0.9872840391338044  1.0000
  C   C55       1.0  0.22657232596137078  0.781935905386817  0.0730645886766013  1.0000
  C   C56       1.0  0.2862513974699965  0.8439665330749407  0.07524157148258581  1.0000
  S   S1        1.0  0.8726832035341373  0.2926600189767541  0.5861647492805986  1.0000
  S   S2        1.0  0.6065556472462107  0.19870162425849003  0.3962603438594527  1.0000
  S   S3        1.0  0.19929757652733565  0.6145228422279843  0.3910289539181305  1.0000
  S   S4        1.0  0.2988152729303124  0.8761162573251938  0.5900643956144336  1.0000
  O   O1        1.0  0.9966431088501013  0.4946886291222443  0.9899663828787199  1.0000
  O   O2        1.0  0.8201600997306145  0.38490484906351713  0.9451310534599671  1.0000
  O   O3        1.0  0.10524351649634409  0.5383275317227004  0.19766495071214507  1.0000
  O   O4        1.0  0.9366387534234236  0.6725349352097325  0.0502125441132506  1.0000
  O   O5        1.0  0.9396187399829613  0.3859001280243106  0.05726553296582888  1.0000
  O   O6        1.0  0.820785300844932  0.5560059429927193  0.9491280682756766  1.0000
  O   O7        1.0  0.09832922235599277  0.6608231516290602  0.19649975852460239  1.0000
  O   O8        1.0  0.10675011161001183  0.6646472004278153  0.0389212516574275  1.0000
  O   O9        1.0  0.9522270177522358  0.39024038412648576  0.7812735437994149  1.0000
  O   O10       1.0  0.11753330097875637  0.5514690478922049  0.9271417881646042  1.0000
  O   O11       1.0  0.8281189412204881  0.39438680427031875  0.7892368690687377  1.0000
  O   O12       1.0  0.1053590856805471  0.3699952983184502  0.036479759887811304  1.0000
  O   O13       1.0  0.12069717172496294  0.3833406785010567  0.9328366466600214  1.0000
  O   O14       1.0  0.4962797303616567  0.9963109340963359  0.9919850697945164  1.0000
  O   O15       1.0  0.6768156444380438  0.9371190021775746  0.043983144912658596  1.0000
  O   O16       1.0  0.4031796046643307  0.8299144053991725  0.7844599782031167  1.0000
  O   O17       1.0  0.5618271321478827  0.11187899414936447  0.9348336199081471  1.0000
  O   O18       1.0  0.5573396224905877  0.8242691292474548  0.9445335247520389  1.0000
  O   O19       1.0  0.6748561110932842  0.1111897787559428  0.05072904200078911  1.0000
  O   O20       1.0  0.39803458684218634  0.9524958925430839  0.7834075618551425  1.0000
  O   O21       1.0  0.3856819807190774  0.1136200391948066  0.9360974535857166  1.0000
  O   O22       1.0  0.5289038020237768  0.10252235795055499  0.19834561175065343  1.0000
  O   O23       1.0  0.3648307536155713  0.10602266874373359  0.039796126069489894  1.0000
  O   O24       1.0  0.6555307607723931  0.0937683493509809  0.1959201270991073  1.0000
  O   O25       1.0  0.3729180627120741  0.8221160350644539  0.9276988855854142  1.0000
  O   O26       1.0  0.3716455929916905  0.9371638562798595  0.0457284117289163  1.0000
  F   F1        1.0  0.6718081150309487  0.3096292503561955  0.6191021548918414  1.0000
  F   F2        1.0  0.8080368755215447  0.1811661385809488  0.36440282605018137  1.0000
  F   F3        1.0  0.1860835966914607  0.8139095757587143  0.37064676817340814  1.0000
  F   F4        1.0  0.31205415989541757  0.676976737505626  0.6108789113596059  1.0000
