data_image0
_chemical_formula_structural       Al2H54C48N24O12
_chemical_formula_sum              "Al2 H54 C48 N24 O12"
_cell_length_a       3.7444295620493113
_cell_length_b       28.927421943156954
_cell_length_c       28.927576198463115
_cell_angle_alpha    119.99986960875502
_cell_angle_beta     90.00025548492117
_cell_angle_gamma    89.99944237434238

_space_group_name_H-M_alt    "P 1"
_space_group_IT_number       1

loop_
  _space_group_symop_operation_xyz
  'x, y, z'

loop_
  _atom_site_type_symbol
  _atom_site_label
  _atom_site_symmetry_multiplicity
  _atom_site_fract_x
  _atom_site_fract_y
  _atom_site_fract_z
  _atom_site_occupancy
  Al  Al1       1.0  0.9932038994945812  0.5000009810375587  0.49999985601879615  1.0000
  Al  Al2       1.0  0.9932288509785036  0.16666702155742294  0.8333330261281873  1.0000
  H   H1        1.0  0.49676207598930217  0.38117006820272786  0.722847061677946  1.0000
  H   H2        1.0  0.4962296346874026  0.2854707569189046  0.6104659738092834  1.0000
  H   H3        1.0  0.4967975306540139  0.8416773542177226  0.6188264089861236  1.0000
  H   H4        1.0  0.49619335132718584  0.8249965675926134  0.7145288271035425  1.0000
  H   H5        1.0  0.49673578660754447  0.27715753287635186  0.158322341056234  1.0000
  H   H6        1.0  0.496229967471649  0.38953954559505627  0.1750053195519214  1.0000
  H   H7        1.0  0.6372931473488491  0.3030226524373986  0.8679259103550263  1.0000
  H   H8        1.0  0.3323106241112441  0.34686898549444595  0.8724739908468209  1.0000
  H   H9        1.0  0.3468089310984082  0.4056340245364539  0.7974725420419091  1.0000
  H   H10       1.0  0.5735574125738977  0.3969939320279538  0.8423641326527402  1.0000
  H   H11       1.0  0.3586850294091875  0.14514574305463418  0.7020356404423609  1.0000
  H   H12       1.0  0.6701337294047532  0.14457194324289466  0.6608181494267457  1.0000
  H   H13       1.0  0.6698683367332093  0.22672339023581858  0.6116850553598708  1.0000
  H   H14       1.0  0.4349824897993669  0.17976272338773217  0.6158912209524416  1.0000
  H   H15       1.0  0.6698944846579734  0.43993551326356345  0.7216387020356477  1.0000
  H   H16       1.0  0.434860956847281  0.48688346241507224  0.7174282917994929  1.0000
  H   H17       1.0  0.35865988810547117  0.521508841736555  0.6312921710774688  1.0000
  H   H18       1.0  0.6701578778436212  0.5220760934799245  0.6725047208305384  1.0000
  H   H19       1.0  0.3468020642167814  0.26100698065364025  0.5358253083583193  1.0000
  H   H20       1.0  0.5735619130846175  0.26966164776461454  0.4909457960597834  1.0000
  H   H21       1.0  0.6373008689067702  0.3636406035603628  0.4653997616873369  1.0000
  H   H22       1.0  0.3323453596299402  0.3197901077314357  0.4608431260118877  1.0000
  H   H23       1.0  0.6372829770081266  0.06490452283959082  0.6969769785404694  1.0000
  H   H24       1.0  0.332308011474275  0.025605472060661345  0.6531313197667927  1.0000
  H   H25       1.0  0.34680189948286966  0.8918407295361843  0.5943670538797575  1.0000
  H   H26       1.0  0.5735556292376884  0.9453719643163652  0.6030063813524292  1.0000
  H   H27       1.0  0.3586878298459055  0.056889626382556555  0.8548538241149756  1.0000
  H   H28       1.0  0.670138592452133  0.016246044780814515  0.8554292944212278  1.0000
  H   H29       1.0  0.6698580891515817  0.8849608106010437  0.7732755022520763  1.0000
  H   H30       1.0  0.43498276023023397  0.9361289333428077  0.820236834353075  1.0000
  H   H31       1.0  0.6698878802858201  0.7817034416328638  0.5600615103695574  1.0000
  H   H32       1.0  0.4348545165022841  0.7305452315952579  0.5131161689317166  1.0000
  H   H33       1.0  0.3586650991408575  0.609784623690615  0.47849165677173733  1.0000
  H   H34       1.0  0.6701530142355595  0.650429647282806  0.4779212310785397  1.0000
  H   H35       1.0  0.34679758540157474  0.7748188808237799  0.7389916367661441  1.0000
  H   H36       1.0  0.5735735512964625  0.7212836497724879  0.7303366359001515  1.0000
  H   H37       1.0  0.6373003568133058  0.6017600729177418  0.6363584158215971  1.0000
  H   H38       1.0  0.3323426313290838  0.6410541978466213  0.6802087272928787  1.0000
  H   H39       1.0  0.6372815553133575  0.1320758429877385  0.935097042347273  1.0000
  H   H40       1.0  0.3323039535494842  0.12753101040996034  0.9743948725335159  1.0000
  H   H41       1.0  0.3467949407626846  0.2025308346295631  0.10815934781761168  1.0000
  H   H42       1.0  0.5735592314864704  0.1576406184001016  0.054629802704084816  1.0000
  H   H43       1.0  0.3586993026710985  0.2979674794399472  0.9431077523418808  1.0000
  H   H44       1.0  0.6701450966686977  0.33918630769297675  0.9837518337449253  1.0000
  H   H45       1.0  0.6698656901882245  0.3883192474329604  0.11503847913258619  1.0000
  H   H46       1.0  0.43498548972044654  0.38411231811033997  0.06387024672282844  1.0000
  H   H47       1.0  0.669887199623538  0.27835910835852923  0.21829383856458406  1.0000
  H   H48       1.0  0.4348613777738563  0.28257186330693435  0.26945241939048253  1.0000
  H   H49       1.0  0.3586616377858149  0.3687081898146758  0.39021280250047136  1.0000
  H   H50       1.0  0.6701491801146701  0.3274918693073872  0.34956924307720527  1.0000
  H   H51       1.0  0.34680078056098296  0.464176455559027  0.2251811219777267  1.0000
  H   H52       1.0  0.5735741979985676  0.5090548199488154  0.2787166767493119  1.0000
  H   H53       1.0  0.6372964369154203  0.5345984751570968  0.39823969179231267  1.0000
  H   H54       1.0  0.33234134703972973  0.5391558059832774  0.3589463748561598  1.0000
  C   C1        1.0  0.4939183153288268  0.46154325205896646  0.4157136167239699  1.0000
  C   C2        1.0  0.49392312259160315  0.4541697039838368  0.5384539769877533  1.0000
  C   C3        1.0  0.4939186100892383  0.5842851016158831  0.5458288990190423  1.0000
  C   C4        1.0  0.49390892335534875  0.2124837834299884  0.7948685239960511  1.0000
  C   C5        1.0  0.49391877687788366  0.08238509642771451  0.7875163000899974  1.0000
  C   C6        1.0  0.49390838859982705  0.20513373580327263  0.9176144219670875  1.0000
  C   C7        1.0  0.4969385606001494  0.24392885370572517  0.7677400636186889  1.0000
  C   C8        1.0  0.464429005035356  0.217886849772505  0.7116577873494238  1.0000
  C   C9        1.0  0.4782640965642669  0.24775195625446877  0.685441394774159  1.0000
  C   C10       1.0  0.4991816088279107  0.3044112501198557  0.7150411596359662  1.0000
  C   C11       1.0  0.5230410146741206  0.3298157652058435  0.7718024066022622  1.0000
  C   C12       1.0  0.5338825750791186  0.3000199637556521  0.7979176745463477  1.0000
  C   C13       1.0  0.4970221521713255  0.3393716305065269  0.6926566390040492  1.0000
  C   C14       1.0  0.4968535381215274  0.32727189560799264  0.6406523121556801  1.0000
  C   C15       1.0  0.5230428948800068  0.3368311971123532  0.5615072208587861  1.0000
  C   C16       1.0  0.49915938109064223  0.3622333100719787  0.6182688285310788  1.0000
  C   C17       1.0  0.4782921576374476  0.41889289552543135  0.6478752442490504  1.0000
  C   C18       1.0  0.46443010636426146  0.4487618232123722  0.6216626546683129  1.0000
  C   C19       1.0  0.49693712959162173  0.4227220637028424  0.5655794721695315  1.0000
  C   C20       1.0  0.5339055749850202  0.36663102532929776  0.5353975906070545  1.0000
  C   C21       1.0  0.4969568892942461  0.023812715515198715  0.7560733254869303  1.0000
  C   C22       1.0  0.4644398900166493  0.9937716712452341  0.7821136917456142  1.0000
  C   C23       1.0  0.4782432626510128  0.937690240319796  0.7522471666676793  1.0000
  C   C24       1.0  0.4991731159528854  0.9106312906116187  0.6955874696186584  1.0000
  C   C25       1.0  0.5230203728107269  0.941989606456403  0.6701856985204842  1.0000
  C   C26       1.0  0.5338776373360972  0.9978988954309856  0.6999802901543504  1.0000
  C   C27       1.0  0.497006065969515  0.8532834725930982  0.6606301028127818  1.0000
  C   C28       1.0  0.4968314071389698  0.8133841440395739  0.6727252153992963  1.0000
  C   C29       1.0  0.5230333316084098  0.7246762466599606  0.6631678904873013  1.0000
  C   C30       1.0  0.49916170433719026  0.7560370822044717  0.637765015198056  1.0000
  C   C31       1.0  0.4782881272065182  0.7289828828185139  0.581104053438395  1.0000
  C   C32       1.0  0.46443708725991667  0.6729009786629448  0.5512366377931387  1.0000
  C   C33       1.0  0.49694016574071037  0.6428572110541424  0.5772755978308978  1.0000
  C   C34       1.0  0.5338990019799608  0.6687680088524954  0.6333687759073852  1.0000
  C   C35       1.0  0.49696619439995243  0.23226460419318345  0.9761878240030555  1.0000
  C   C36       1.0  0.46444510393799715  0.2883457793315642  0.006229202345160413  1.0000
  C   C37       1.0  0.47825487570342756  0.31456218290940535  0.062310629683324174  1.0000
  C   C38       1.0  0.49917274478031  0.28496046732630015  0.08936843334573298  1.0000
  C   C39       1.0  0.5230203723488529  0.2282002077834093  0.058011176697000594  1.0000
  C   C40       1.0  0.5338845848986649  0.20208540825356636  0.0021012240222617697  1.0000
  C   C41       1.0  0.49700159950410944  0.3073489320576854  0.14671413780112627  1.0000
  C   C42       1.0  0.4968267692672014  0.3593502591280923  0.18661763193107106  1.0000
  C   C43       1.0  0.5230295692034872  0.43849322815317743  0.2753228555175582  1.0000
  C   C44       1.0  0.4991449595809455  0.3817317248525782  0.24396272707537747  1.0000
  C   C45       1.0  0.4782780930123848  0.3521228704205371  0.27101456197218  1.0000
  C   C46       1.0  0.46443345231930516  0.37833576782831807  0.32709605751478676  1.0000
  C   C47       1.0  0.49693620112763165  0.4344182850262469  0.3571405316346201  1.0000
  C   C48       1.0  0.5338963037607697  0.46460196155140915  0.3312319455705434  1.0000
  N   N1        1.0  0.5673000711135144  0.3284603030211103  0.8546706700630295  1.0000
  N   N2        1.0  0.5521574212647733  0.3858054552794812  0.8030313959950917  1.0000
  N   N3        1.0  0.4327541341061262  0.16129491692742476  0.6792106361944477  1.0000
  N   N4        1.0  0.45775644336608673  0.21962450910369571  0.629366938545104  1.0000
  N   N5        1.0  0.4577815468828986  0.4470201849672436  0.7039471208004002  1.0000
  N   N6        1.0  0.4327682270849209  0.5053531463406105  0.6541111503472125  1.0000
  N   N7        1.0  0.552164998702267  0.2808398464414453  0.5302750124565705  1.0000
  N   N8        1.0  0.5673287004933413  0.33819733063164403  0.47864689267743193  1.0000
  N   N9        1.0  0.5672973356091332  0.02621200982639486  0.6715409958336948  1.0000
  N   N10       1.0  0.5521463296830617  0.9172277820853124  0.6141949092245509  1.0000
  N   N11       1.0  0.43276166657543763  0.017915510784277385  0.8387052398984949  1.0000
  N   N12       1.0  0.45774757156969054  0.9097417355848735  0.7803737630788633  1.0000
  N   N13       1.0  0.457776236987989  0.7569293265967829  0.5529781633267845  1.0000
  N   N14       1.0  0.43276870603495604  0.6487578271198161  0.4946438170450875  1.0000
  N   N15       1.0  0.5521672502682973  0.7494366882918088  0.7191593311757671  1.0000
  N   N16       1.0  0.5673234243193547  0.6404499639759536  0.6618012647103343  1.0000
  N   N17       1.0  0.5672897053719692  0.1453344102695057  0.9737902355553913  1.0000
  N   N18       1.0  0.5521397804158423  0.19697302829163726  0.08277292186442507  1.0000
  N   N19       1.0  0.43276911388896616  0.32079271028967343  0.9820829734322202  1.0000
  N   N20       1.0  0.4577508538843062  0.3706367933235413  0.09025710762443849  1.0000
  N   N21       1.0  0.45776652145647023  0.2960508678297273  0.24306826987757546  1.0000
  N   N22       1.0  0.43276659934408457  0.34588687601577567  0.35123840243625176  1.0000
  N   N23       1.0  0.5521620245748975  0.469725514768612  0.2505642598763131  1.0000
  N   N24       1.0  0.5673203711176454  0.5213519979694752  0.35954971493526233  1.0000
  O   O1        1.0  0.7264784945607872  0.5577509700105522  0.5558773567203729  1.0000
  O   O2        1.0  0.7264735373545719  0.49812573983885505  0.4422466210193221  1.0000
  O   O3        1.0  0.7264843795415102  0.4441207867715137  0.5018712148142511  1.0000
  O   O4        1.0  0.2592209150598989  0.5607665746079887  0.5087963979864937  1.0000
  O   O5        1.0  0.2592240471590443  0.49120207618104667  0.5519681590680392  1.0000
  O   O6        1.0  0.2592211894189944  0.44802933431374475  0.4392317997051762  1.0000
  O   O7        1.0  0.726470742272724  0.16855086792824653  0.891084935688248  1.0000
  O   O8        1.0  0.7264705831001518  0.22253849338577694  0.8314513969240451  1.0000
  O   O9        1.0  0.7264764681507356  0.1089135842755767  0.7774621050606642  1.0000
  O   O10       1.0  0.25920691314638583  0.2186409870439195  0.8940928566437378  1.0000
  O   O11       1.0  0.25922054077069123  0.10590891390721435  0.8245465981233764  1.0000
  O   O12       1.0  0.259206726607907  0.17545437061810534  0.7813613837677308  1.0000
