data_image0
_chemical_formula_structural       Ba2H16C8O14
_chemical_formula_sum              "Ba2 H16 C8 O14"
_cell_length_a       6.50449301242502
_cell_length_b       7.948230917020798
_cell_length_c       8.94395979211412
_cell_angle_alpha    104.17223026353709
_cell_angle_beta     103.78972813265477
_cell_angle_gamma    108.13840339259282

_space_group_name_H-M_alt    "P 1"
_space_group_IT_number       1

loop_
  _space_group_symop_operation_xyz
  'x, y, z'

loop_
  _atom_site_type_symbol
  _atom_site_label
  _atom_site_symmetry_multiplicity
  _atom_site_fract_x
  _atom_site_fract_y
  _atom_site_fract_z
  _atom_site_occupancy
  Ba  Ba1       1.0  0.14449836252448733  0.2619426862349243  0.4192926385304148  1.0000
  Ba  Ba2       1.0  0.8555013492354817  0.7380586430949805  0.5807067812012434  1.0000
  H   H1        1.0  0.18806469425720004  0.7271476027360535  0.9806312693869328  1.0000
  H   H2        1.0  0.8119318379455934  0.27285371064242264  0.01936982766831357  1.0000
  H   H3        1.0  0.2092809459743989  0.380251802564338  0.05597705993378099  1.0000
  H   H4        1.0  0.7907149250331501  0.619748095937652  0.9440224997920905  1.0000
  H   H5        1.0  0.26620914853992184  0.8978311846473235  0.4183624486253309  1.0000
  H   H6        1.0  0.7337921519305725  0.10217015667605979  0.5816372512000497  1.0000
  H   H7        1.0  0.37035716519231  0.04194853978491149  0.598699068406681  1.0000
  H   H8        1.0  0.6296443994620873  0.9580499918145193  0.4013000743646841  1.0000
  H   H9        1.0  0.3813843506943755  0.018789754361506504  0.20705936923898344  1.0000
  H   H10       1.0  0.6186185384866434  0.9812115989553545  0.7929406106801122  1.0000
  H   H11       1.0  0.5476262713248587  0.2285487941220339  0.2419945419226721  1.0000
  H   H12       1.0  0.45237595559284943  0.7714511483361121  0.7580050194225619  1.0000
  H   H13       1.0  0.7657500186399562  0.9250475512061626  0.01903926512131451  1.0000
  H   H14       1.0  0.23425445818352134  0.07495381812194782  0.9809621136470096  1.0000
  H   H15       1.0  0.8154107175077386  0.8387031008353388  0.15901564684482852  1.0000
  H   H16       1.0  0.18459058189468894  0.16129824450580804  0.8409851717360581  1.0000
  C   C1        1.0  0.1690090389074754  0.49422243191980897  0.790485770953154  1.0000
  C   C2        1.0  0.8309890830739094  0.5057788894343744  0.20951448744029486  1.0000
  C   C3        1.0  0.10996267234461511  0.572840408379385  0.9394547637521811  1.0000
  C   C4        1.0  0.8900325353315495  0.4271580832816682  0.06054549615534196  1.0000
  C   C5        1.0  0.31686489835686876  0.6424275984445913  0.24789422600083813  1.0000
  C   C6        1.0  0.6831341500717231  0.35757232404436223  0.7521058939124714  1.0000
  C   C7        1.0  0.1551248042778965  0.49844202942806237  0.08225955788418556  1.0000
  C   C8        1.0  0.8448708025457493  0.5015606787978727  0.9177405588956943  1.0000
  O   O1        1.0  0.17167040924233853  0.5843839699797542  0.6886464129602601  1.0000
  O   O2        1.0  0.8283293014495713  0.41561736336791455  0.3113541255269112  1.0000
  O   O3        1.0  0.20649233587869287  0.34476095368998483  0.7662959907730168  1.0000
  O   O4        1.0  0.7935083023284905  0.655238976774683  0.23370329047849475  1.0000
  O   O5        1.0  0.38322414866268434  0.5835931551325261  0.36250709405767617  1.0000
  O   O6        1.0  0.6167733110553826  0.41640675536294935  0.6374927457619107  1.0000
  O   O7        1.0  0.37186476219407893  0.8180145109829269  0.26676460318925876  1.0000
  O   O8        1.0  0.6281413065441158  0.18198685828535588  0.7332336994062414  1.0000
  O   O9        1.0  0.2204457723193799  0.9607311309862042  0.5074372792372088  1.0000
  O   O10       1.0  0.7795555281511142  0.03927021033717891  0.4925624205881646  1.0000
  O   O11       1.0  0.3832105450800398  0.14233892928350397  0.20298300401130825  1.0000
  O   O12       1.0  0.6167932705481861  0.8576610251681204  0.7970168374276412  1.0000
  O   O13       1.0  0.8421225199936445  0.9594547256004804  0.13816676171700962  1.0000
  O   O14       1.0  0.1578797069240565  0.040545216857673  0.8618327996282246  1.0000
