data_image0
_chemical_formula_structural       Zn4H52C84N16
_chemical_formula_sum              "Zn4 H52 C84 N16"
_cell_length_a       18.948076467357776
_cell_length_b       18.94980588965764
_cell_length_c       20.314857023217655
_cell_angle_alpha    105.91800733744911
_cell_angle_beta     107.53867613751824
_cell_angle_gamma    111.69755363673191

_space_group_name_H-M_alt    "P 1"
_space_group_IT_number       1

loop_
  _space_group_symop_operation_xyz
  'x, y, z'

loop_
  _atom_site_type_symbol
  _atom_site_label
  _atom_site_symmetry_multiplicity
  _atom_site_fract_x
  _atom_site_fract_y
  _atom_site_fract_z
  _atom_site_occupancy
  Zn  Zn1       1.0  0.8951718771436602  0.8960385901705195  0.5028611108450391  1.0000
  Zn  Zn2       1.0  0.1086549152954746  0.1109454696623047  0.49890824847099674  1.0000
  Zn  Zn3       1.0  0.10278315333463438  0.008027447928583294  0.6031443577235365  1.0000
  Zn  Zn4       1.0  0.9022861739165222  0.9988482041477625  0.39545303018302747  1.0000
  H   H1        1.0  0.8523046752930837  0.8005319948486261  0.6162380710245757  1.0000
  H   H2        1.0  0.43862602674233386  0.0643375858544459  0.6850800055256201  1.0000
  H   H3        1.0  0.5558667949970869  0.03436999282926943  0.731622808239351  1.0000
  H   H4        1.0  0.14506630527787218  0.2788485119598292  0.4653162888804517  1.0000
  H   H5        1.0  0.6832807037618591  0.031177232816780434  0.726334774418369  1.0000
  H   H6        1.0  0.781443839247913  0.05178920262919471  0.6676376827020079  1.0000
  H   H7        1.0  0.7876471458676945  0.19393196424651638  0.5338339397091616  1.0000
  H   H8        1.0  0.6935520486468505  0.25683378344588437  0.5169004515575537  1.0000
  H   H9        1.0  0.5669279358973397  0.2610835899196005  0.5231522292566595  1.0000
  H   H10       1.0  0.15698759739103704  0.7526845411627434  0.4720979445576959  1.0000
  H   H11       1.0  0.885648912749673  0.6168437557427991  0.3285062710071713  1.0000
  H   H12       1.0  0.3108628648502289  0.18049022220306907  0.5287622243810546  1.0000
  H   H13       1.0  0.8076229203770281  0.4608638849471022  0.265362250681349  1.0000
  H   H14       1.0  0.8042219403890839  0.3270997067147263  0.2571838815525922  1.0000
  H   H15       1.0  0.8772806809009877  0.2534790745157025  0.3045602249667638  1.0000
  H   H16       1.0  0.10080308255430027  0.13460311061285068  0.7461948966565615  1.0000
  H   H17       1.0  0.14932002486153803  0.38976935588886613  0.4454007694488098  1.0000
  H   H18       1.0  0.23261139947129544  0.5409256102770144  0.4801999637676957  1.0000
  H   H19       1.0  0.23581092396285894  0.674887295205771  0.4891523072527448  1.0000
  H   H20       1.0  0.5555871765861154  0.8047179637437692  0.1934111379219629  1.0000
  H   H21       1.0  0.10093827380939757  0.24529089753421118  0.8386993787226161  1.0000
  H   H22       1.0  0.1879026279395432  0.4007576737607295  0.7289119251737902  1.0000
  H   H23       1.0  0.15240864622901998  0.8779192744617036  0.513755919090329  1.0000
  H   H24       1.0  0.3225876940790257  0.5905641827261617  0.9844766673704228  1.0000
  H   H25       1.0  0.4088894898770404  0.5225460183511146  0.18469724933368775  1.0000
  H   H26       1.0  0.17698353847067944  0.3708787848476334  0.9615401113233661  1.0000
  H   H27       1.0  0.5530455234879456  0.6266052660749679  0.28810086191510464  1.0000
  H   H28       1.0  0.8620392631348464  0.13795159672627483  0.48353669649094394  1.0000
  H   H29       1.0  0.29642488166223996  0.473288955091867  0.0643669099399418  1.0000
  H   H30       1.0  0.4129937227053587  0.7006334891788484  0.08979750020871088  1.0000
  H   H31       1.0  0.26276060948225677  0.5268160228152396  0.8518881422610676  1.0000
  H   H32       1.0  0.12166260767522628  0.868967771671926  0.8121816347738503  1.0000
  H   H33       1.0  0.9103548961090622  0.7652727940732758  0.16512989243108914  1.0000
  H   H34       1.0  0.8910810225345214  0.85267687433398  0.25618960764195003  1.0000
  H   H35       1.0  0.17940206360694325  0.9432498628137082  0.2824906505178859  1.0000
  H   H36       1.0  0.12219116819935748  0.8293416797928472  0.02534967824834674  1.0000
  H   H37       1.0  0.8550823492115284  0.733211544349082  0.8325252897982125  1.0000
  H   H38       1.0  0.9194174641499087  0.7179068420706683  0.044677844656703665  1.0000
  H   H39       1.0  0.8515201628854784  0.7747439905760275  0.7274402255744193  1.0000
  H   H40       1.0  0.10761664828675777  0.2740943061955079  0.6086996902416786  1.0000
  H   H41       1.0  0.9267409726443174  0.7426037608719085  0.9504885995145784  1.0000
  H   H42       1.0  0.1254731737262063  0.8294709632662957  0.9176787983274509  1.0000
  H   H43       1.0  0.18837866093867459  0.8951258689501244  0.16143904938079598  1.0000
  H   H44       1.0  0.8607162426244697  0.0047565283610566935  0.6264000851172966  1.0000
  H   H45       1.0  0.16481847072947178  0.9978455612214601  0.39624775982039756  1.0000
  H   H46       1.0  0.8721033983946286  0.13489421726790612  0.3254786361646112  1.0000
  H   H47       1.0  0.12562892027982994  0.9560314777942622  0.7491567074948194  1.0000
  H   H48       1.0  0.6893190902454973  0.7412122750671414  0.39661360149474223  1.0000
  H   H49       1.0  0.8778043213405696  0.7348346893667002  0.3802433509786455  1.0000
  H   H50       1.0  0.7043086705652823  0.8729744856339889  0.25355262141230367  1.0000
  H   H51       1.0  0.30557204790462567  0.045423960841823395  0.6694799619792775  1.0000
  H   H52       1.0  0.4463034088522733  0.20910909543535897  0.5536030202060901  1.0000
  C   C1        1.0  0.9197801875698629  0.8444182490413468  0.640287455174395  1.0000
  C   C2        1.0  0.9443610233896675  0.7810571492785455  0.4181942226861325  1.0000
  C   C3        1.0  0.7145157544050987  0.8505779940510791  0.29753407329486947  1.0000
  C   C4        1.0  0.0777494500923623  0.23251677845679103  0.43325779243131995  1.0000
  C   C5        1.0  0.2935224262382405  0.0758129513016712  0.6324917326436578  1.0000
  C   C6        1.0  0.6567881247202151  0.7818024185404298  0.3021844041147829  1.0000
  C   C7        1.0  0.3467972035182355  0.12084018046154903  0.6060302680735816  1.0000
  C   C8        1.0  0.017567987650046697  0.7728184001239455  0.4312195673064423  1.0000
  C   C9        1.0  0.03296411286982699  0.9036093449782924  0.29865174208622147  1.0000
  C   C10       1.0  0.47433440662015863  0.17973571533042326  0.5843491363889087  1.0000
  C   C11       1.0  0.4316199565395635  0.1344800875286367  0.6174478144345416  1.0000
  C   C12       1.0  0.009542654943878398  0.23851894373290614  0.3881106266493505  1.0000
  C   C13       1.0  0.47014979118907246  0.09894271372016313  0.6580976734224819  1.0000
  C   C14       1.0  0.5471641991840883  0.10364342106613125  0.6626443063929203  1.0000
  C   C15       1.0  0.5874937144324335  0.14558238016642383  0.6248841137740726  1.0000
  C   C16       1.0  0.0999978232935987  0.1577146041919448  0.7027570738132383  1.0000
  C   C17       1.0  0.5512271384156902  0.18591168550086926  0.5870227449170073  1.0000
  C   C18       1.0  0.5854694339132818  0.06449246491320779  0.7010547324551553  1.0000
  C   C19       1.0  0.65592247510331  0.06272314992978086  0.6981431210974379  1.0000
  C   C20       1.0  0.6940805326965457  0.0994230421013567  0.6561367051041813  1.0000
  C   C21       1.0  0.6603990894268462  0.14341736840250977  0.6215796839540603  1.0000
  C   C22       1.0  0.6977152977713884  0.18085889262086136  0.5798550671383822  1.0000
  C   C23       1.0  0.1125616017054014  0.2369773366291739  0.7062673292666802  1.0000
  C   C24       1.0  0.6634409037391649  0.22585503519066213  0.5467125513374499  1.0000
  C   C25       1.0  0.5933672505194636  0.22820293313497336  0.5501267472356376  1.0000
  C   C26       1.0  0.7589209612958001  0.08865635322003132  0.6436314365570937  1.0000
  C   C27       1.0  0.7907736774354742  0.11864032596000838  0.5968983057549622  1.0000
  C   C28       1.0  0.8675097387350446  0.09904523462157733  0.5131600296591685  1.0000
  C   C29       1.0  0.7623319525375647  0.16802596029168618  0.568660482736604  1.0000
  C   C30       1.0  0.09735050229545547  0.6934888191524848  0.4344056065339644  1.0000
  C   C31       1.0  0.020792154266651198  0.6946453517714913  0.40422592505663607  1.0000
  C   C32       1.0  0.9454921482640656  0.6174138547299676  0.35432743113732096  1.0000
  C   C33       1.0  0.9436709110263592  0.5400081273465177  0.34045535824093065  1.0000
  C   C34       1.0  0.8432886890925032  0.0895362467119654  0.5706450658876605  1.0000
  C   C35       1.0  0.020716653983122096  0.5395490923563458  0.3767512719867767  1.0000
  C   C36       1.0  0.09891562920417837  0.6176699572537387  0.42180240462582935  1.0000
  C   C37       1.0  0.866093441770225  0.4606566850727418  0.2950007272194881  1.0000
  C   C38       1.0  0.8642301263737977  0.3866564860209892  0.2905340105697007  1.0000
  C   C39       1.0  0.9398755977359982  0.38516299932435055  0.33085877560922944  1.0000
  C   C40       1.0  0.10469174079820218  0.22936355416015894  0.6330714869860756  1.0000
  C   C41       1.0  0.018806301609337998  0.4627156928466151  0.37190010501553433  1.0000
  C   C42       1.0  0.09530517351393537  0.46297621930915495  0.4115997414219308  1.0000
  C   C43       1.0  0.17393539486513984  0.5414088657841843  0.4518498808631009  1.0000
  C   C44       1.0  0.17568901572479934  0.6154436304355713  0.4567671847949626  1.0000
  C   C45       1.0  0.7070971645535308  0.7827333267854185  0.3697752055788398  1.0000
  C   C46       1.0  0.938433178703704  0.31170121711169674  0.3342180609256431  1.0000
  C   C47       1.0  0.012668525356765799  0.31247661424940526  0.37693010584380465  1.0000
  C   C48       1.0  0.09059257701597549  0.38797008070313405  0.41300337402396553  1.0000
  C   C49       1.0  0.5676945860568805  0.7227684844501139  0.2470266809609356  1.0000
  C   C50       1.0  0.52440065081489  0.7421854196204976  0.1910717229174566  1.0000
  C   C51       1.0  0.4434103952622052  0.6833396410999343  0.13257975007512363  1.0000
  C   C52       1.0  0.8667670280222308  0.03132303330062305  0.586044355009804  1.0000
  C   C53       1.0  0.4008419891824743  0.6013688309208262  0.12670517246198196  1.0000
  C   C54       1.0  0.44118042806514507  0.5846874232488374  0.18649014649971457  1.0000
  C   C55       1.0  0.5226979262045717  0.6435716386383136  0.2449163239050876  1.0000
  C   C56       1.0  0.29629889371415885  0.14480819173815013  0.5610966811724012  1.0000
  C   C57       1.0  0.18018630635443603  0.3780343266858566  0.9108446145009809  1.0000
  C   C58       1.0  0.13718617875431252  0.30693855477776566  0.8412845123198381  1.0000
  C   C59       1.0  0.18413362925259946  0.39355719900997604  0.779422468879524  1.0000
  C   C60       1.0  0.2266661742807798  0.4648279105710387  0.8489468632819596  1.0000
  C   C61       1.0  0.23009372585434554  0.458688920607102  0.9173645315376575  1.0000
  C   C62       1.0  0.3238333475229282  0.5323485265727257  0.05932200905476041  1.0000
  C   C63       1.0  0.2921278723447428  0.5322766824190808  0.9898736707167615  1.0000
  C   C64       1.0  0.9388455656005801  0.1592804321968372  0.36217849905942495  1.0000
  C   C65       1.0  0.14170745470259047  0.31227031946016826  0.7745534291726487  1.0000
  C   C66       1.0  0.9869731710173468  0.8282264578314341  0.7630690346835253  1.0000
  C   C67       1.0  0.0842349578663288  0.8539447603959472  0.4866145201992469  1.0000
  C   C68       1.0  0.0628888920837412  0.8401531171539247  0.8169013754371904  1.0000
  C   C69       1.0  0.0649223408957553  0.8171970152929119  0.8763605560733296  1.0000
  C   C70       1.0  0.9906163411279962  0.780686655576396  0.8851691040039144  1.0000
  C   C71       1.0  0.9137792526544145  0.7629482490181231  0.8278609074525535  1.0000
  C   C72       1.0  0.9118567494930827  0.7864064139536281  0.7685708028836798  1.0000
  C   C73       1.0  0.9767260649878508  0.768156239787899  0.09647006482815347  1.0000
  C   C74       1.0  0.9716417438386811  0.7949750773916834  0.16472523421486332  1.0000
  C   C75       1.0  0.1218682035437411  0.8934927045606782  0.23062598860438752  1.0000
  C   C76       1.0  0.059105427568340474  0.9227284909121353  0.707383882502107  1.0000
  C   C77       1.0  0.12706783259154258  0.8663098580606885  0.16218160285875882  1.0000
  C   C78       1.0  0.9564314539422512  0.8956216415631816  0.2998221023285766  1.0000
  C   C79       1.0  0.053712492721196284  0.807269441707085  0.09233004587472494  1.0000
  C   C80       1.0  0.9899851333941  0.7694476270712727  0.9529204694306018  1.0000
  C   C81       1.0  0.05802568215879229  0.7989807863065366  0.02048448433930627  1.0000
  C   C82       1.0  0.0429982066379324  0.8622213397378146  0.2326683687064417  1.0000
  C   C83       1.0  0.987925103390445  0.8615820718932738  0.7063914594219866  1.0000
  C   C84       1.0  0.0960727539215398  0.9701804834970885  0.3708727698815721  1.0000
  N   N1        1.0  0.9483567476905816  0.8911230603700699  0.6050200784522133  1.0000
  N   N2        1.0  0.08758206181462208  0.10859494715193559  0.6337721636687306  1.0000
  N   N3        1.0  0.9008325758526607  0.04913224834785972  0.49540917227984244  1.0000
  N   N4        1.0  0.0902503873349474  0.15240987321328703  0.59085609058333  1.0000
  N   N5        1.0  0.9003377274914754  0.007540879001077044  0.5402858306198726  1.0000
  N   N6        1.0  0.9632554725813519  0.11068637458630097  0.38970599389011085  1.0000
  N   N7        1.0  0.0353072374275172  0.93998356038837  0.6470721804884931  1.0000
  N   N8        1.0  0.7875210481166234  0.8468033549498841  0.40243822254887357  1.0000
  N   N9        1.0  0.21987702343314905  0.11649639033011987  0.5610630151808921  1.0000
  N   N10       1.0  0.05232818796505259  0.9049771546751803  0.5052738534695821  1.0000
  N   N11       1.0  0.9736120265981822  0.953784620224624  0.36658229569256645  1.0000
  N   N12       1.0  0.0593162264523031  0.9995324197017582  0.41029980237923536  1.0000
  N   N13       1.0  0.9663613282615626  0.860104788825474  0.4631735112342242  1.0000
  N   N14       1.0  0.7920484428040664  0.8890097248183506  0.35720216562138757  1.0000
  N   N15       1.0  0.21806737263293025  0.07341011571741518  0.605514916937544  1.0000
  N   N16       1.0  0.04992815615378279  0.1565347843861389  0.43399436397335484  1.0000
