data_image0
_chemical_formula_structural       Zn6H12C70I16O44
_chemical_formula_sum              "Zn6 H12 C70 I16 O44"
_cell_length_a       21.997814255370542
_cell_length_b       21.903450986614278
_cell_length_c       22.24583850213593
_cell_angle_alpha    119.10770287584285
_cell_angle_beta     119.63114612655693
_cell_angle_gamma    89.99900489969312

_space_group_name_H-M_alt    "P 1"
_space_group_IT_number       1

loop_
  _space_group_symop_operation_xyz
  'x, y, z'

loop_
  _atom_site_type_symbol
  _atom_site_label
  _atom_site_symmetry_multiplicity
  _atom_site_fract_x
  _atom_site_fract_y
  _atom_site_fract_z
  _atom_site_occupancy
  Zn  Zn1       1.0  0.4401146149464953  0.49998137600802295  0.9999831865122034  1.0000
  Zn  Zn2       1.0  0.5582432872798151  0.5000209526158201  9.662883101811833e-06  1.0000
  Zn  Zn3       1.0  0.0008052409646101633  0.9408876814787206  0.9999288328837113  1.0000
  Zn  Zn4       1.0  0.0008734596645823113  0.05911575740152841  8.285508325661679e-05  1.0000
  Zn  Zn5       1.0  0.5417944646532504  0.04099178072318211  0.08088721988009695  1.0000
  Zn  Zn6       1.0  0.46095709016408676  0.9590293084683309  0.9191639350234412  1.0000
  H   H1        1.0  0.6075292940423225  0.24073881480189388  0.10318699338264992  1.0000
  H   H2        1.0  0.5043132112271568  0.7592502063989456  0.8968079174262372  1.0000
  H   H3        1.0  0.3771960487424267  0.15377107408699695  0.6467963845814282  1.0000
  H   H4        1.0  0.729497959583256  0.8462868790211715  0.3530148694470229  1.0000
  H   H5        1.0  0.2753330342366382  0.27238769095377074  0.8431151988148357  1.0000
  H   H6        1.0  0.43208296526822215  0.7275360955595005  0.1567528123844327  1.0000
  H   H7        1.0  0.35692848485248163  0.1596433964412967  0.3574229758872178  1.0000
  H   H8        1.0  0.9994625727738938  0.8410836348342201  0.6425505499429107  1.0000
  H   H9        1.0  0.1151174421551815  0.344712058026758  0.35507716495398256  1.0000
  H   H10       1.0  0.760725749062992  0.655104772303261  0.6449563255508367  1.0000
  H   H11       1.0  0.6692225846031549  0.4764119698116859  0.20946481380125456  1.0000
  H   H12       1.0  0.4597510372132021  0.5235889353700574  0.7905817947739919  1.0000
  C   C1        1.0  0.4993739092053815  0.3834492773956767  0.0030004518192399523  1.0000
  C   C2        1.0  0.4963572206385865  0.6165752055701786  0.9970315601214635  1.0000
  C   C3        1.0  0.20768930650103826  0.2067365250759963  0.4126300921185689  1.0000
  C   C4        1.0  0.7951268138445473  0.7932839011891133  0.587377718214775  1.0000
  C   C5        1.0  0.30178722514511963  0.3080816478779909  0.527889669437691  1.0000
  C   C6        1.0  0.7741218657500184  0.6920560730945768  0.4721121117550099  1.0000
  C   C7        1.0  0.2939157123803043  0.2249139067571022  0.47094735682255623  1.0000
  C   C8        1.0  0.8229743933142616  0.775309829660408  0.5290352952151595  1.0000
  C   C9        1.0  0.3377255399068986  0.3365637899658438  0.6742272557562003  1.0000
  C   C10       1.0  0.6635207012013566  0.6634335265402028  0.3257643266076685  1.0000
  C   C11       1.0  0.16367390823944566  0.1618427085559944  0.3246565512196113  1.0000
  C   C12       1.0  0.8390707025875132  0.8381821011567893  0.6753442675677307  1.0000
  C   C13       1.0  0.5615688300689285  0.3103007931328534  0.06213641316890072  1.0000
  C   C14       1.0  0.4994107843056101  0.6897157415272731  0.9378883789283422  1.0000
  C   C15       1.0  0.5587059806297036  0.2446979393512548  0.05803543788216801  1.0000
  C   C16       1.0  0.5006646605225245  0.7553153254859737  0.9419883376197334  1.0000
  C   C17       1.0  0.4945320780617597  0.1839753558904107  0.9973686762784908  1.0000
  C   C18       1.0  0.4971844757677958  0.8160459334385876  0.0026728672279077987  1.0000
  C   C19       1.0  0.43118783364533914  0.1890959899038194  0.9394656897917102  1.0000
  C   C20       1.0  0.49170345735113613  0.8109189384961867  0.06055117093706762  1.0000
  C   C21       1.0  0.4333090570711419  0.2548839817168655  0.9430513972808396  1.0000
  C   C22       1.0  0.4902309388423589  0.7451281550160758  0.05695441445154614  1.0000
  C   C23       1.0  0.41984890283075765  0.4195307035340932  0.8395917354404787  1.0000
  C   C24       1.0  0.580221461263946  0.5805045874489848  0.16040006826953856  1.0000
  C   C25       1.0  0.49856299771312257  0.3152295181093834  0.0038247148833861727  1.0000
  C   C26       1.0  0.4947092875306469  0.684780661708693  0.9961866060785808  1.0000
  C   C27       1.0  0.8833858185227472  5.189321512229972e-05  1.7937018043241503e-05  1.0000
  C   C28       1.0  0.08052966064310141  0.07765457263893437  0.1594105286400733  1.0000
  C   C29       1.0  0.9211353649396301  0.9222927368742545  0.8406010410955816  1.0000
  C   C30       1.0  0.11856006771333938  1.4524498012999964e-06  7.238093267890221e-06  1.0000
  C   C31       1.0  0.3839169077392129  1.3314082067992516e-06  0.9999694371016898  1.0000
  C   C32       1.0  0.49817587305688715  0.1163072521075392  0.9986578394357791  1.0000
  C   C33       1.0  0.4995844033647289  0.8837404605059759  0.0014405943283435127  1.0000
  C   C34       1.0  0.6183492074236769  0.9999787256517076  0.9999938723052038  1.0000
  C   C35       1.0  0.7540973518912608  0.008404955270002299  0.9427381936232988  1.0000
  C   C36       1.0  0.8113853349021413  0.9916326662328673  0.05729372734028015  1.0000
  C   C37       1.0  0.6920228106156543  0.0127077321503464  0.9461433613552044  1.0000
  C   C38       1.0  0.7458997952914431  0.9872977935644015  0.053870914028699715  1.0000
  C   C39       1.0  0.6869570506768597  0.9999945276845636  7.216004256510079e-06  1.0000
  C   C40       1.0  0.20005098223604298  0.19059705253526718  0.4711926781643143  1.0000
  C   C41       1.0  0.728742167207763  0.8092626338724501  0.5288156592935637  1.0000
  C   C42       1.0  0.8146859124322746  3.0748889273000145e-05  2.010325862772969e-05  1.0000
  C   C43       1.0  0.2483884548119235  0.06454915184033888  0.05798486427982401  1.0000
  C   C44       1.0  0.19039222196634162  0.9354650943055987  0.9419938793068638  1.0000
  C   C45       1.0  0.31026552137748803  0.06580432571551853  0.054232128828360274  1.0000
  C   C46       1.0  0.25601674158232895  0.9342061641441928  0.945724135855265  1.0000
  C   C47       1.0  0.31526378448922554  6.589420230798995e-06  0.9999728968068949  1.0000
  C   C48       1.0  0.18733722645513512  5.958873231299281e-06  0.9999971231178434  1.0000
  C   C49       1.0  0.2862344451657037  0.2092374787674558  0.5288475567969897  1.0000
  C   C50       1.0  0.7572042633661413  0.7908277063565096  0.47113570603983856  1.0000
  C   C51       1.0  0.37523934517742674  0.3754566898629221  0.7500228303810488  1.0000
  C   C52       1.0  0.6251890512895103  0.6245819124339251  0.2499762025765267  1.0000
  C   C53       1.0  0.12510702948659264  0.12225918101611201  0.248919177480893  1.0000
  C   C54       1.0  0.8762188476871773  0.8777134280282938  0.751089540698942  1.0000
  C   C55       1.0  0.2076286273817587  0.2733678400619226  0.5275485114401163  1.0000
  C   C56       1.0  0.6801850402642559  0.7263936845310184  0.47246095246219283  1.0000
  C   C57       1.0  0.2940189460624013  0.2922864543135405  0.5864432617352762  1.0000
  C   C58       1.0  0.7076118613129554  0.7076894229499331  0.413555529489912  1.0000
  C   C59       1.0  0.21607651118316812  0.2901870263526263  0.4702407921098199  1.0000
  C   C60       1.0  0.7461276449380848  0.70975837357512  0.5297848444631654  1.0000
  C   C61       1.0  0.32152840142328654  0.1594927227760223  0.5528046381596354  1.0000
  C   C62       1.0  0.7682137160174918  0.8406186359195259  0.44710766396151064  1.0000
  C   C63       1.0  0.3690994495763252  0.26036709671678443  0.8774644377255642  1.0000
  C   C64       1.0  0.4915714795092257  0.7396600331370851  0.12252658085108711  1.0000
  C   C65       1.0  0.34752023848164265  0.2021968123995634  0.44854496545147526  1.0000
  C   C66       1.0  0.8989289027734771  0.7982144309311748  0.5513784751396571  1.0000
  C   C67       1.0  0.18192480137036435  0.3407365131561093  0.44739256819821094  1.0000
  C   C68       1.0  0.7350712065907176  0.6591515590305053  0.5526528189114333  1.0000
  C   C69       1.0  0.6322924735621812  0.3725540064529298  0.1310096356993498  1.0000
  C   C70       1.0  0.5012675349894166  0.627470408420713  0.86901879601983  1.0000
  I   I1        1.0  0.7553824820945964  0.0075496247607205  0.8483082540166507  1.0000
  I   I2        1.0  0.907090761993935  0.9924948455063287  0.1517335257155283  1.0000
  I   I3        1.0  0.6093315499975277  0.044384169337369904  0.8768416600093333  1.0000
  I   I4        1.0  0.7324955443911707  0.9556156030136335  0.12316805472861608  1.0000
  I   I5        1.0  0.24795210375714308  0.15586668200349152  0.1541242672630787  1.0000
  I   I6        1.0  0.09382316477996994  0.8441463464586646  0.8458954085980821  1.0000
  I   I7        1.0  0.39219853307623254  0.16644352911773547  0.12336778425950708  1.0000
  I   I8        1.0  0.2688126206338383  0.8335595626861831  0.8766010838069462  1.0000
  I   I9        1.0  0.12157146707433242  0.09848522772595202  0.4265083147310875  1.0000
  I   I10       1.0  0.694757031964578  0.9012218129304727  0.5735629575581386  1.0000
  I   I11       1.0  0.38231464029213685  0.39907079877416857  0.5727550622803861  1.0000
  I   I12       1.0  0.8100913018192841  0.6013204125047481  0.4272913107121995  1.0000
  I   I13       1.0  0.14097729384711508  0.3105223133058601  0.5711683260320015  1.0000
  I   I14       1.0  0.5699901952634651  0.6887962367537598  0.4288492088800384  1.0000
  I   I15       1.0  0.3317240305282285  0.10084015947924739  0.8486732697854151  1.0000
  I   I16       1.0  0.4829136941344672  0.8991360684835641  0.15126334177532638  1.0000
  O   O1        1.0  0.44902414363431137  0.4110398246707306  0.005743115910313274  1.0000
  O   O2        1.0  0.44324851002296156  0.5889437324898168  0.9942367440272123  1.0000
  O   O3        1.0  0.5252723573411942  0.1262745890736383  0.06962455074501857  1.0000
  O   O4        1.0  0.45572621998434937  0.8737999112043866  0.9304917901836803  1.0000
  O   O5        1.0  0.4759587279066082  0.05548028343371669  0.9302060981443033  1.0000
  O   O6        1.0  0.545815489851492  0.944558749594414  0.06991555595383415  1.0000
  O   O7        1.0  0.6261668584891565  0.04840361262512259  0.06790166975554973  1.0000
  O   O8        1.0  0.5582780397457515  0.9515442732487429  0.9320715736228139  1.0000
  O   O9        1.0  0.5485703157548373  0.4062256055685438  0.9977890078154914  1.0000
  O   O10       1.0  0.5508042933572882  0.5938464579360883  0.002317880021429741  1.0000
  O   O11       1.0  0.3856140055356366  0.43408904024823863  0.8749359281472097  1.0000
  O   O12       1.0  0.5106389007107809  0.5658878035781996  0.1250314156489197  1.0000
  O   O13       1.0  0.4896239519422851  0.4400961040901026  0.8751077591072871  1.0000
  O   O14       1.0  0.6145000223438047  0.5599789240183667  0.12490646702712387  1.0000
  O   O15       1.0  0.900146335292476  0.9407969706018946  0.9814304827655747  1.0000
  O   O16       1.0  0.9187093760229389  0.05930253910104  0.018582754158529863  1.0000
  O   O17       1.0  0.052881154886627306  0.0087651822310519  0.12381551661566449  1.0000
  O   O18       1.0  0.9290663147135734  0.991179796342138  0.8762027421214924  1.0000
  O   O19       1.0  0.0728927618226081  0.1113803800535109  0.12383829677933987  1.0000
  O   O20       1.0  0.9490928554174831  0.8885736761164651  0.8761774628132741  1.0000
  O   O21       1.0  0.10150695532312434  0.9585747238861656  0.01783385164702624  1.0000
  O   O22       1.0  0.08366766499148076  0.04142665224021871  0.9821882380899394  1.0000
  O   O23       1.0  0.44439608566605676  0.021309227723030205  0.06868626226050624  1.0000
  O   O24       1.0  0.37568035205257644  0.9786734944048876  0.9312522959676885  1.0000
  O   O25       1.0  0.315903055177735  0.0983300774615543  0.5015029017486512  1.0000
  O   O26       1.0  0.3569569668416293  0.1895864877228348  0.635322364240899  1.0000
  O   O27       1.0  0.8137265884061335  0.9018715867435317  0.4983389257758192  1.0000
  O   O28       1.0  0.7210092737781865  0.8104536051201949  0.3645876293659358  1.0000
  O   O29       1.0  0.3680773188598681  0.2569211608670728  0.8205662931568513  1.0000
  O   O30       1.0  0.3141417016084917  0.2700091587574605  0.8890009791050416  1.0000
  O   O31       1.0  0.5474385001921007  0.7431296784520427  0.1794547092610514  1.0000
  O   O32       1.0  0.42505632709923463  0.7299713193340908  0.11092115370821898  1.0000
  O   O33       1.0  0.4109914739724588  0.2124332311633452  0.5002452978799141  1.0000
  O   O34       1.0  0.31822866194976746  0.17202242600640014  0.3668053030949636  1.0000
  O   O35       1.0  0.9106264826813945  0.7879669868570431  0.4996224415704661  1.0000
  O   O36       1.0  0.9513998468804633  0.8285501078108695  0.6331426460805646  1.0000
  O   O37       1.0  0.1952251204814247  0.4048189459012051  0.49976157173502145  1.0000
  O   O38       1.0  0.1354084381194768  0.3077133583507817  0.3638961217017852  1.0000
  O   O39       1.0  0.6961318686495448  0.5950284409674039  0.5003001699848043  1.0000
  O   O40       1.0  0.7720941611344118  0.692151253773389  0.6361478799097996  1.0000
  O   O41       1.0  0.6931852319968074  0.3648404520862414  0.15505836305344195  1.0000
  O   O42       1.0  0.6208340535801681  0.438165884689397  0.1662690979959295  1.0000
  O   O43       1.0  0.5381251262258574  0.6351539234865912  0.8449711367569962  1.0000
  O   O44       1.0  0.45454644584707204  0.5618619099156987  0.8337570313995144  1.0000
