data_image0
_chemical_formula_structural       Zn8H72C76O26
_chemical_formula_sum              "Zn8 H72 C76 O26"
_cell_length_a       17.744646078014934
_cell_length_b       18.627587355795104
_cell_length_c       23.35674562894825
_cell_angle_alpha    66.64682511695403
_cell_angle_beta     69.72142592569043
_cell_angle_gamma    90.09791944694884

_space_group_name_H-M_alt    "P 1"
_space_group_IT_number       1

loop_
  _space_group_symop_operation_xyz
  'x, y, z'

loop_
  _atom_site_type_symbol
  _atom_site_label
  _atom_site_symmetry_multiplicity
  _atom_site_fract_x
  _atom_site_fract_y
  _atom_site_fract_z
  _atom_site_occupancy
  Zn  Zn1       1.0  0.11780995423283971  0.5314224002909426  0.943640120381218  1.0000
  Zn  Zn2       1.0  0.9689527050007102  0.5566598752761465  0.0533834544715431  1.0000
  Zn  Zn3       1.0  0.9788636429041374  0.3886781320182563  0.049783006081668114  1.0000
  Zn  Zn4       1.0  0.9402152505869026  0.529692482057335  0.9330781096424159  1.0000
  Zn  Zn5       1.0  0.38601086215822267  0.9804503709259078  0.04783716677614077  1.0000
  Zn  Zn6       1.0  0.5310866691801762  0.11508431003160514  0.9383955534027917  1.0000
  Zn  Zn7       1.0  0.5240667701360309  0.9473373949749088  0.9346366172590234  1.0000
  Zn  Zn8       1.0  0.5657381963962678  0.969028048300437  0.05247640558881973  1.0000
  H   H1        1.0  0.4922916985372865  0.8780974239719155  0.25940202658016176  1.0000
  H   H2        1.0  0.4348218027151489  0.8155440115210123  0.38505696417807656  1.0000
  H   H3        1.0  0.19426684053304644  0.7978274830544121  0.3819452529201611  1.0000
  H   H4        1.0  0.320581837314698  0.7050493410646366  0.6088648019523075  1.0000
  H   H5        1.0  0.021959114530979155  0.6256288704340772  0.7264222286389455  1.0000
  H   H6        1.0  0.08256492204432667  0.6884878447391996  0.6008260572736431  1.0000
  H   H7        1.0  0.6167991222254727  0.027750239932871092  0.7289906984702055  1.0000
  H   H8        1.0  0.6852854089806257  0.08859632748156797  0.6036102791561502  1.0000
  H   H9        1.0  0.7116111277474461  0.3172769620387683  0.6059504644827597  1.0000
  H   H10       1.0  0.798537636484234  0.1922297558481176  0.389290036993806  1.0000
  H   H11       1.0  0.8848997555276841  0.48156333761240677  0.25427108809898125  1.0000
  H   H12       1.0  0.8256756125909706  0.4270657971873176  0.3797887964673235  1.0000
  H   H13       1.0  0.2037966104691549  0.3055849805652499  0.9050906027175853  1.0000
  H   H14       1.0  0.13223315514351694  0.2329061856807541  0.98120870093512  1.0000
  H   H15       1.0  0.22370620606058367  0.14291006464270586  0.9769932165014196  1.0000
  H   H16       1.0  0.2959251518132575  0.21722894703670892  0.9023736424307314  1.0000
  H   H17       1.0  0.21820051156075237  0.12801581052080724  0.09010393465344173  1.0000
  H   H18       1.0  0.2894510269467219  0.18776145513992046  0.09655537826471763  1.0000
  H   H19       1.0  0.1303233425101453  0.22136642094093867  0.09319917922220354  1.0000
  H   H20       1.0  0.20406296587938041  0.2825076075584148  0.09591841508039071  1.0000
  H   H21       1.0  0.30808173603955413  0.3951829507168154  0.9089361075201192  1.0000
  H   H22       1.0  0.3068083338312632  0.3879187781903254  0.986579512542711  1.0000
  H   H23       1.0  0.394974268388431  0.294542007100233  0.9889550462256761  1.0000
  H   H24       1.0  0.39907268906443955  0.3045703020637872  0.9099188526326499  1.0000
  H   H25       1.0  0.8890238955825113  0.7970641959678771  0.9075124573218784  1.0000
  H   H26       1.0  0.8823383726595465  0.7825869227572326  0.9888178627822053  1.0000
  H   H27       1.0  0.7939775562354613  0.8757789833268388  0.9878747989246219  1.0000
  H   H28       1.0  0.7989563274224738  0.8874918455398911  0.9075918673515058  1.0000
  H   H29       1.0  0.6900729901775975  0.7706057138102762  0.0927518108060993  1.0000
  H   H30       1.0  0.6178759066107278  0.7100831471253101  0.08801457391594861  1.0000
  H   H31       1.0  0.7764454319958247  0.6756952024784082  0.09237956021842546  1.0000
  H   H32       1.0  0.7052706030323463  0.6176579962303845  0.08437705434425169  1.0000
  H   H33       1.0  0.7885803258671872  0.7117508612238337  0.8957244640812831  1.0000
  H   H34       1.0  0.7149384452085386  0.6370432049772601  0.9676648269430003  1.0000
  H   H35       1.0  0.6238714983654319  0.7270379277924731  0.9720682886836651  1.0000
  H   H36       1.0  0.6964859245590702  0.8009105204714897  0.8988218982426159  1.0000
  H   H37       1.0  0.1597206074564923  0.7953513629519051  0.9363230938039419  1.0000
  H   H38       1.0  0.24426697891671273  0.7577852456685433  0.89743659063253  1.0000
  H   H39       1.0  0.3312055198918599  0.8547912253201985  0.894509435815834  1.0000
  H   H40       1.0  0.24610043113671753  0.8898960940340853  0.9357470160134649  1.0000
  H   H41       1.0  0.3900181289623816  0.7450445421837625  0.9623229590584257  1.0000
  H   H42       1.0  0.3493255107514556  0.705249990003473  0.05118829121042263  1.0000
  H   H43       1.0  0.3003266346359723  0.6477984994291005  0.967842880066591  1.0000
  H   H44       1.0  0.2582034144492766  0.6106392252635897  0.056584694790096486  1.0000
  H   H45       1.0  0.09771806248510019  0.7404170348098018  0.06437872994131769  1.0000
  H   H46       1.0  0.13661734176402968  0.6636608630793289  0.1133991846310137  1.0000
  H   H47       1.0  0.22800511330620313  0.7564908580251738  0.1108089152474108  1.0000
  H   H48       1.0  0.18712841938746994  0.8332527864791784  0.06382402172324933  1.0000
  H   H49       1.0  0.9000309048326329  0.26887136136902956  0.9318415956089434  1.0000
  H   H50       1.0  0.8524788566830211  0.34285273413345135  0.8883849605987205  1.0000
  H   H51       1.0  0.7710289085209326  0.2440034015184337  0.8883484268134151  1.0000
  H   H52       1.0  0.8154467371254271  0.17024661969875143  0.9355964129271398  1.0000
  H   H53       1.0  0.6501970451792402  0.293863257465709  0.9472737560633104  1.0000
  H   H54       1.0  0.6042591514232497  0.25128512764699446  0.03603877972086166  1.0000
  H   H55       1.0  0.7321974452035533  0.3888573229999606  0.9516622187121226  1.0000
  H   H56       1.0  0.6890647050030694  0.3426053674044167  0.04059134516332104  1.0000
  H   H57       1.0  0.8392877699485696  0.2025837173415893  0.06026446446351485  1.0000
  H   H58       1.0  0.7555902862475109  0.23487549258432944  0.10491938304469516  1.0000
  H   H59       1.0  0.6658630241801972  0.14320805831982136  0.10460619058531508  1.0000
  H   H60       1.0  0.7496816099563829  0.10732371805083567  0.06402816515416984  1.0000
  H   H61       1.0  0.22736269267313244  0.9256628505004014  0.2242598091738229  1.0000
  H   H62       1.0  0.24894768586420923  0.840465859884098  0.21084722632338776  1.0000
  H   H63       1.0  0.1702913054937056  0.8313790945878308  0.2871136012960207  1.0000
  H   H64       1.0  0.34278288588831873  0.6669134747714691  0.703851087204448  1.0000
  H   H65       1.0  0.2649479065694037  0.6674016001792749  0.7767354587015233  1.0000
  H   H66       1.0  0.27982501111957697  0.577341260960004  0.770645864583045  1.0000
  H   H67       1.0  0.5762868205277981  0.2803964768175291  0.7600204259540316  1.0000
  H   H68       1.0  0.6625876366439485  0.2548234813299287  0.7790438474555825  1.0000
  H   H69       1.0  0.6742773679487684  0.33528161434522724  0.7009096241804896  1.0000
  H   H70       1.0  0.8279599318764497  0.16795978556171312  0.2971837658823943  1.0000
  H   H71       1.0  0.8370590817164612  0.24473776419804233  0.2179628092094601  1.0000
  H   H72       1.0  0.9249883552420995  0.22190560259330983  0.23514871842895946  1.0000
  C   C1        1.0  0.13745291569549772  0.6369785206470763  0.00477421282893437  1.0000
  C   C2        1.0  0.9143229842523724  0.4071513765055669  0.17636829453985553  1.0000
  C   C3        1.0  0.14825559804155117  0.3670103648939714  0.9964186736628305  1.0000
  C   C4        1.0  0.8580164174249774  0.36404622705029505  0.9949907161286188  1.0000
  C   C5        1.0  0.09401752893641196  0.5900894966461718  0.8133220179859462  1.0000
  C   C6        1.0  0.8583693650934806  0.639812785802725  0.9893134993735799  1.0000
  C   C7        1.0  0.36566988196628364  0.1462852736658675  0.9940170738821973  1.0000
  C   C8        1.0  0.5817716392997171  0.09577442942670439  0.8121571206895479  1.0000
  C   C9        1.0  0.35365868114673293  0.865614110437107  0.9984552987384911  1.0000
  C   C10       1.0  0.6402967185060432  0.8611816076392527  0.9926134314390108  1.0000
  C   C11       1.0  0.4164037209000495  0.9152118634285953  0.1749565400822987  1.0000
  C   C12       1.0  0.6490626024236762  0.13558246362565274  0.9934574831829861  1.0000
  C   C13       1.0  0.3764251501680746  0.8751791814599694  0.2500186603389166  1.0000
  C   C14       1.0  0.4267840902196481  0.8606474898154627  0.2872090250591413  1.0000
  C   C15       1.0  0.3949595379709905  0.8257335178648544  0.3570437847494148  1.0000
  C   C16       1.0  0.3099570751001223  0.8030371530359941  0.3921539774412962  1.0000
  C   C17       1.0  0.2598477916326588  0.8163599934286123  0.35465981476274056  1.0000
  C   C18       1.0  0.2907571551456485  0.8522196867936667  0.2842730002390397  1.0000
  C   C19       1.0  0.2747838580801839  0.7673457800849515  0.4634452866786702  1.0000
  C   C20       1.0  0.24286099757195959  0.7365777059323262  0.5249332881475296  1.0000
  C   C21       1.0  0.20636173850640194  0.7008266261346702  0.5961669801668422  1.0000
  C   C22       1.0  0.2548140801906982  0.6870793086729704  0.635025022997709  1.0000
  C   C23       1.0  0.22214745096825078  0.6514541679920782  0.7054496332628871  1.0000
  C   C24       1.0  0.13622195631308637  0.6288883194280427  0.7383677851657495  1.0000
  C   C25       1.0  0.08761488264884318  0.6431870590523019  0.6997005524026889  1.0000
  C   C26       1.0  0.1211725670625938  0.6782061268610775  0.6299074862932554  1.0000
  C   C27       1.0  0.6237899484266691  0.13777552136745896  0.7375984769759111  1.0000
  C   C28       1.0  0.637437201938603  0.09141617909477157  0.7009786097638224  1.0000
  C   C29       1.0  0.6756215289817291  0.1249799083539571  0.6315158206745008  1.0000
  C   C30       1.0  0.702469345287909  0.207533278461831  0.5963993245265582  1.0000
  C   C31       1.0  0.6898769256090844  0.25363228019531886  0.6333092091711449  1.0000
  C   C32       1.0  0.6506331027622424  0.22091154633196905  0.7033806240513982  1.0000
  C   C33       1.0  0.7408945550552275  0.24310299032004679  0.5254232206422668  1.0000
  C   C34       1.0  0.7728159999941369  0.27253362804360387  0.4640170586884976  1.0000
  C   C35       1.0  0.8083905553730234  0.3054498268103031  0.392927723602284  1.0000
  C   C36       1.0  0.8185895210688728  0.2558430074609247  0.3591947874306454  1.0000
  C   C37       1.0  0.8529877073254185  0.2850748579194188  0.28905064497879346  1.0000
  C   C38       1.0  0.877152822516045  0.36822241704536646  0.251411760388585  1.0000
  C   C39       1.0  0.8662683688134791  0.4179968554187922  0.2848881993768868  1.0000
  C   C40       1.0  0.8332061479818051  0.38789763488946244  0.35448706378354417  1.0000
  C   C41       1.0  0.19555863323818556  0.26333857409773737  0.9564880285265075  1.0000
  C   C42       1.0  0.2560880019131702  0.2037055290307633  0.9546320501617981  1.0000
  C   C43       1.0  0.3092041101971077  0.20757311672447534  0.9940195413411528  1.0000
  C   C44       1.0  0.2523178936558351  0.1881442105535242  0.06726754892705598  1.0000
  C   C45       1.0  0.19427891361699778  0.24999502975655458  0.0680511256667344  1.0000
  C   C46       1.0  0.20916552224763757  0.3097712469218905  0.995221665449854  1.0000
  C   C47       1.0  0.2975639931286906  0.35268417864799756  0.9606726196875709  1.0000
  C   C48       1.0  0.3568698568172479  0.29186131350067507  0.9612403223202929  1.0000
  C   C49       1.0  0.8460636736179269  0.7823951146233622  0.9591344821291443  1.0000
  C   C50       1.0  0.7867000798496093  0.8433714154862669  0.9592656320680888  1.0000
  C   C51       1.0  0.6977445900715722  0.8004758647983151  0.9911832678326173  1.0000
  C   C52       1.0  0.6817741077164358  0.7392656881002607  0.06370460127303083  1.0000
  C   C53       1.0  0.7399573203072622  0.6775264115735522  0.06243744999815689  1.0000
  C   C54       1.0  0.7979718447473516  0.6979763208890543  0.989231887079924  1.0000
  C   C55       1.0  0.7474558400347462  0.6973312829049048  0.9477210883578521  1.0000
  C   C56       1.0  0.6871760096738199  0.7570836790255909  0.949829414287357  1.0000
  C   C57       1.0  0.21603016399983227  0.7731320683788067  0.9401046948071111  1.0000
  C   C58       1.0  0.27401304862316067  0.8364822525190684  0.938722547191972  1.0000
  C   C59       1.0  0.29366501306471793  0.8030233854997062  0.003140413561453698  1.0000
  C   C60       1.0  0.3330331702320635  0.7282433884702043  0.006510749161456827  1.0000
  C   C61       1.0  0.2732982974999985  0.6648145338035575  0.009634852099793445  1.0000
  C   C62       1.0  0.19401077389529314  0.6970409172120637  0.006384713490454872  1.0000
  C   C63       1.0  0.15437899180995632  0.7179561558956705  0.06634382686814883  1.0000
  C   C64       1.0  0.21406066314834493  0.7798963862713248  0.06503362923631778  1.0000
  C   C65       1.0  0.8406711768385404  0.28696377848957866  0.9332162093274831  1.0000
  C   C66       1.0  0.7850704145384669  0.22205214807059545  0.9340267894068429  1.0000
  C   C67       1.0  0.7043843701791771  0.19562465725731926  0.9963121017869411  1.0000
  C   C68       1.0  0.6632454494767474  0.26950771758463776  0.9933829066339752  1.0000
  C   C69       1.0  0.7190087773166807  0.3317674610489758  0.9955611103675678  1.0000
  C   C70       1.0  0.7997963913039072  0.30214378766150657  0.9968160488360166  1.0000
  C   C71       1.0  0.7817159999496396  0.22369851924340614  0.05972143389831061  1.0000
  C   C72       1.0  0.7232054257399414  0.16143859313157796  0.06045199901018334  1.0000
  C   C73       1.0  0.23105193080672845  0.8627765060454632  0.24990102506264822  1.0000
  C   C74       1.0  0.28071597178788477  0.640338811475182  0.7409110534306645  1.0000
  C   C75       1.0  0.6406568485823242  0.27591310347938947  0.7375501117361905  1.0000
  C   C76       1.0  0.8608705820079265  0.22669559458466165  0.25830550767958016  1.0000
  O   O1        1.0  0.0001731912957367905  0.5027772690114816  0.9936535184169485  1.0000
  O   O2        1.0  0.16754743630426822  0.6128973469218406  0.9586086185262344  1.0000
  O   O3        1.0  0.9128663122224411  0.48140305606377587  0.14803844863612864  1.0000
  O   O4        1.0  0.07306798984676278  0.33606188005878573  0.02694143799973147  1.0000
  O   O5        1.0  0.0647307228219702  0.6161897309080756  0.04817286201847539  1.0000
  O   O6        1.0  0.17595017859109413  0.44095709061873106  0.9667909296775147  1.0000
  O   O7        1.0  0.9455428180961433  0.3643373295231027  0.14573265352846207  1.0000
  O   O8        1.0  0.890381742019258  0.33988814412253976  0.0388467650106107  1.0000
  O   O9        1.0  0.016055396531676498  0.5804366909586065  0.8377765758479043  1.0000
  O   O10       1.0  0.8713000466613038  0.4345187203976478  0.949264436777241  1.0000
  O   O11       1.0  0.13897294404020502  0.5688765607488191  0.8476990004802331  1.0000
  O   O12       1.0  0.8973575702697403  0.6322580833336319  0.02770886695283536  1.0000
  O   O13       1.0  0.8662465710975056  0.6040962331374756  0.9514430591531631  1.0000
  O   O14       1.0  0.5027629152284876  0.0011102011014116973  0.9943452326561721  1.0000
  O   O15       1.0  0.332163076332229  0.07367469246243269  0.02268725457383879  1.0000
  O   O16       1.0  0.5531215389606672  0.13765194933515798  0.8443352475531539  1.0000
  O   O17       1.0  0.4235036097027917  0.8847334226684821  0.9507767762498883  1.0000
  O   O18       1.0  0.4420277042868647  0.17148611451511186  0.9655371144610496  1.0000
  O   O19       1.0  0.3298053621232171  0.8946161679801531  0.041690608228982726  1.0000
  O   O20       1.0  0.5768432814482763  0.020275778726379194  0.8388578933492636  1.0000
  O   O21       1.0  0.598555298429325  0.8725449556193324  0.9559751088588582  1.0000
  O   O22       1.0  0.49300307535193616  0.9158292025969597  0.1486167661086241  1.0000
  O   O23       1.0  0.6387297437373717  0.8961812117767564  0.030263907268278073  1.0000
  O   O24       1.0  0.37127430557126206  0.9468406665162588  0.14248014146134835  1.0000
  O   O25       1.0  0.6258266677822775  0.16135903425217882  0.943800902208572  1.0000
  O   O26       1.0  0.63012594433458  0.06509627855768227  0.03963144937792851  1.0000
