data_image0
_chemical_formula_structural       Cu2H28C48Br4N4O8
_chemical_formula_sum              "Cu2 H28 C48 Br4 N4 O8"
_cell_length_a       4.647419948084916
_cell_length_b       12.618382587096578
_cell_length_c       18.954938342120457
_cell_angle_alpha    90.00025792042246
_cell_angle_beta     89.99965907145005
_cell_angle_gamma    94.7173488108163

_space_group_name_H-M_alt    "P 1"
_space_group_IT_number       1

loop_
  _space_group_symop_operation_xyz
  'x, y, z'

loop_
  _atom_site_type_symbol
  _atom_site_label
  _atom_site_symmetry_multiplicity
  _atom_site_fract_x
  _atom_site_fract_y
  _atom_site_fract_z
  _atom_site_occupancy
  Cu  Cu1       1.0  1.3282975145999997e-06  7.974190054999991e-07  0.9999995599037842  1.0000
  Cu  Cu2       1.0  0.4999990225938761  0.5000013567447751  0.5000004046466131  1.0000
  H   H1        1.0  0.8330235043522406  0.8034866349319142  0.17636145869690975  1.0000
  H   H2        1.0  0.6669692898476853  0.6965113864266499  0.676361996869943  1.0000
  H   H3        1.0  0.1669716598795787  0.19651209117149898  0.8236404057266141  1.0000
  H   H4        1.0  0.3330304733960929  0.30348895366093837  0.32363986755252216  1.0000
  H   H5        1.0  0.759131357317365  0.7292197877198062  0.2961523510550066  1.0000
  H   H6        1.0  0.7408701152033288  0.770782218924182  0.7961524694338137  1.0000
  H   H7        1.0  0.24086683320049226  0.270783720877283  0.7038510960742883  1.0000
  H   H8        1.0  0.2591422821999886  0.2292166023212799  0.20384939497699145  1.0000
  H   H9        1.0  0.1361236675430391  0.9569747625515744  0.3371693744899388  1.0000
  H   H10       1.0  0.3638765396732211  0.5430254045696611  0.8371644200273352  1.0000
  H   H11       1.0  0.8638653249862215  0.04302551806731  0.6628309072394671  1.0000
  H   H12       1.0  0.6361331221867061  0.4569702243742241  0.16283375141181008  1.0000
  H   H13       1.0  0.21767733792353988  0.031236407453882  0.2169454585382553  1.0000
  H   H14       1.0  0.2823028998648454  0.46876066222154117  0.7169429309573018  1.0000
  H   H15       1.0  0.7823113639042987  0.9687622829614068  0.7830532404880228  1.0000
  H   H16       1.0  0.7176878107498866  0.5312372449871815  0.2830557680663333  1.0000
  H   H17       1.0  0.5270624422773693  0.6370799995689395  0.37578018689431036  1.0000
  H   H18       1.0  0.9729424070852702  0.8629153823578264  0.8757791743006249  1.0000
  H   H19       1.0  0.4729312946292907  0.36292269013181755  0.624219567268085  1.0000
  H   H20       1.0  0.027072144517475694  0.13708345076561554  0.12421794200557199  1.0000
  H   H21       1.0  0.2676679075434905  0.9428599064147248  0.4448630904863363  1.0000
  H   H22       1.0  0.2323337679983339  0.5571385693577752  0.9448631218941796  1.0000
  H   H23       1.0  0.7323213757107467  0.057141964401182584  0.5551366636781835  1.0000
  H   H24       1.0  0.767661541598919  0.44286095184332896  0.05513821496339938  1.0000
  H   H25       1.0  0.3161641505302484  0.67496872000288  0.5851527507022424  1.0000
  H   H26       1.0  0.18382703894799593  0.8250321809535208  0.08515302602491907  1.0000
  H   H27       1.0  0.6838292956573185  0.3250323794992056  0.4148470034580426  1.0000
  H   H28       1.0  0.8161688521168741  0.17497052063670532  0.9148456730018847  1.0000
  C   C1        1.0  0.5859384572011735  0.9732098883868757  0.1174933282941524  1.0000
  C   C2        1.0  0.9140711661261991  0.5267902351912496  0.6174914166574011  1.0000
  C   C3        1.0  0.4140677684936947  0.026790487375698994  0.8825074809895309  1.0000
  C   C4        1.0  0.08593104201843718  0.47321170697791337  0.3825072823635764  1.0000
  C   C5        1.0  0.5329683990977898  0.923332902131001  0.1892877776762063  1.0000
  C   C6        1.0  0.967032432466837  0.576663657029421  0.689285933428536  1.0000
  C   C7        1.0  0.4670293553708831  0.07666822115988478  0.8107130316149025  1.0000
  C   C8        1.0  0.032973502508944805  0.42333512853448946  0.3107148758530299  1.0000
  C   C9        1.0  0.679110593481184  0.8364502302518344  0.2117671710377991  1.0000
  C   C10       1.0  0.8208901723880331  0.6635488540927525  0.7117663275742883  1.0000
  C   C11       1.0  0.3208847161160691  0.16354929094926968  0.7882341658197872  1.0000
  C   C12       1.0  0.1791177713628684  0.3364491482678672  0.2882355368386341  1.0000
  C   C13       1.0  0.6347629194745323  0.7943151861952485  0.2791015739135857  1.0000
  C   C14       1.0  0.8652428058552605  0.7056843528328114  0.7791013155393286  1.0000
  C   C15       1.0  0.36523640769062393  0.20568276859434323  0.720900290505696  1.0000
  C   C16       1.0  0.13475925690038792  0.2943167942452263  0.22090002131560021  1.0000
  C   C17       1.0  0.4429552674958757  0.838340678766336  0.32622459389394715  1.0000
  C   C18       1.0  0.05704733813288239  0.6616594321503866  0.8262225559637457  1.0000
  C   C19       1.0  0.5570403328322443  0.1616604326301498  0.6737756878317426  1.0000
  C   C20       1.0  0.9429610417260933  0.33834095550002274  0.17377667061734306  1.0000
  C   C21       1.0  0.2937356978985761  0.9241753602229748  0.30268373648167557  1.0000
  C   C22       1.0  0.2062645522648054  0.575820616809679  0.8026796411168318  1.0000
  C   C23       1.0  0.7062577482831003  0.07582573928075219  0.6973165452456127  1.0000
  C   C24       1.0  0.7937446735105951  0.42417262683785134  0.19731905788614057  1.0000
  C   C25       1.0  0.33700773434442516  0.9657826127334771  0.23532348285063162  1.0000
  C   C26       1.0  0.1629897110582803  0.534212921354161  0.7353209126072427  1.0000
  C   C27       1.0  0.6629875752704919  0.03421690846269599  0.7646762713059444  1.0000
  C   C28       1.0  0.8370179419970898  0.4657834908012289  0.26467884153555576  1.0000
  C   C29       1.0  0.4534831368968283  0.6915756989179439  0.4150450235190775  1.0000
  C   C30       1.0  0.04652351251372266  0.8084226150887159  0.915044487349725  1.0000
  C   C31       1.0  0.5465147629372709  0.30842621947063253  0.5849552582060865  1.0000
  C   C32       1.0  0.9534847219915932  0.19157697746071986  0.08495421166330168  1.0000
  C   C33       1.0  0.4007292730250569  0.7966288098451172  0.39856085855656426  1.0000
  C   C34       1.0  0.09927774431544378  0.7033694015888584  0.898561517904653  1.0000
  C   C35       1.0  0.5992687721803662  0.20337390363950894  0.6014383680356514  1.0000
  C   C36       1.0  0.900732498959101  0.29662940775892815  0.10143876380673328  1.0000
  C   C37       1.0  0.3076501180243341  0.8600552072172646  0.4537619392824581  1.0000
  C   C38       1.0  0.192357675968438  0.6399425645085512  0.9537617459152796  1.0000
  C   C39       1.0  0.6923411740050228  0.13994588039534508  0.5462388700134184  1.0000
  C   C40       1.0  0.8076504131420066  0.3600562329514003  0.046240118498701584  1.0000
  C   C41       1.0  0.2736753727099667  0.8157565753278533  0.520629962011199  1.0000
  C   C42       1.0  0.22632802773756572  0.6842439835784403  0.020628177839071792  1.0000
  C   C43       1.0  0.7263139105266064  0.18424529549297827  0.479371374854331  1.0000
  C   C44       1.0  0.7736761891704093  0.31575717539071485  0.9793726314472693  1.0000
  C   C45       1.0  0.3330527727579735  0.7111609967008972  0.5331183302271469  1.0000
  C   C46       1.0  0.1669481947915443  0.7888396280238933  0.0331164142152431  1.0000
  C   C47       1.0  0.6669425368510602  0.28883852449692426  0.4668819514964254  1.0000
  C   C48       1.0  0.8330540133472083  0.21116231414691095  0.9668828123727308  1.0000
  Br  Br1       1.0  0.1559792438566134  0.8977560036161165  0.5980859747989911  1.0000
  Br  Br2       1.0  0.3440164013145264  0.6022473869025403  0.09808588448459689  1.0000
  Br  Br3       1.0  0.8440139116118673  0.10224350568731204  0.40191377935916955  1.0000
  Br  Br4       1.0  0.655971018482923  0.39775606222748644  0.901916507518642  1.0000
  N   N1        1.0  0.42098222130654506  0.6513011629939384  0.48015308753590336  1.0000
  N   N2        1.0  0.07902512896571777  0.8486975680568276  0.9801531486773739  1.0000
  N   N3        1.0  0.5790176873085642  0.3486999721897063  0.5198477217536135  1.0000
  N   N4        1.0  0.9209810967527051  0.1513028076991816  0.019845550338302997  1.0000
  O   O1        1.0  0.8129500909122244  0.9428508716214378  0.08641308707941417  1.0000
  O   O2        1.0  0.6870530368923156  0.5571450473859015  0.5864137136590201  1.0000
  O   O3        1.0  0.18705427135530067  0.05715108244704939  0.9135877222079783  1.0000
  O   O4        1.0  0.3129422727167182  0.44285447381191995  0.4135865680645522  1.0000
  O   O5        1.0  0.4196225644341922  0.03806669112127279  0.09433927409610017  1.0000
  O   O6        1.0  0.080390568119185  0.4619297821026435  0.5943349175678065  1.0000
  O   O7        1.0  0.5803812163951604  0.9619320825498857  0.9056615351870575  1.0000
  O   O8        1.0  0.9196142302681878  0.5380745572523438  0.4056621987537453  1.0000
