data_image0
_chemical_formula_structural       Zn2H22C34N6O8
_chemical_formula_sum              "Zn2 H22 C34 N6 O8"
_cell_length_a       7.697646288368032
_cell_length_b       9.233500441002409
_cell_length_c       10.53546194521566
_cell_angle_alpha    90.00008238251485
_cell_angle_beta     95.95964824321794
_cell_angle_gamma    89.99998555224327

_space_group_name_H-M_alt    "P 1"
_space_group_IT_number       1

loop_
  _space_group_symop_operation_xyz
  'x, y, z'

loop_
  _atom_site_type_symbol
  _atom_site_label
  _atom_site_symmetry_multiplicity
  _atom_site_fract_x
  _atom_site_fract_y
  _atom_site_fract_z
  _atom_site_occupancy
  Zn  Zn1       1.0  0.4539110030813305  0.2572536105616976  0.2330825426746017  1.0000
  Zn  Zn2       1.0  0.9539097413522483  0.742746986410495  0.7330827034069927  1.0000
  H   H1        1.0  0.4493063274485323  0.34066459393728377  0.9404997707506267  1.0000
  H   H2        1.0  0.9493069664831211  0.6593352605828143  0.4405005481445484  1.0000
  H   H3        1.0  0.42352400153944797  0.20890507830118574  0.7327398673443781  1.0000
  H   H4        1.0  0.9235246264659978  0.7910933583951021  0.2327389116884575  1.0000
  H   H5        1.0  0.3886705474285606  0.9344457436593174  0.7354020310428169  1.0000
  H   H6        1.0  0.8886751823234037  0.0655537876482981  0.23540141564003395  1.0000
  H   H7        1.0  0.37790074768786747  0.810664036911213  0.9399033398237436  1.0000
  H   H8        1.0  0.8779027544231395  0.18933691447642076  0.4399026793397169  1.0000
  H   H9        1.0  0.3547558918963105  0.7216981911732603  0.11994683078667381  1.0000
  H   H10       1.0  0.8547533834635814  0.27830115814532513  0.619946309492434  1.0000
  H   H11       1.0  0.34769727103824977  0.6306299824558366  0.3379488657967329  1.0000
  H   H12       1.0  0.8476986694191524  0.3693708082762868  0.837948758875676  1.0000
  H   H13       1.0  0.40129420946065847  0.804607486303709  0.5244686289844367  1.0000
  H   H14       1.0  0.9012936017272678  0.19539278003468746  0.02446872498136799  1.0000
  H   H15       1.0  0.4517225510731747  0.06640419443746737  0.4751719161981853  1.0000
  H   H16       1.0  0.9517225710706825  0.9335957163492309  0.9751724161482827  1.0000
  H   H17       1.0  0.6827718749011638  0.41251557624529767  0.4511123878284806  1.0000
  H   H18       1.0  0.1827698967349747  0.5874843510158102  0.95111276867474  1.0000
  H   H19       1.0  0.09127327178220668  0.43511173024025135  0.5874571671935485  1.0000
  H   H20       1.0  0.5912726181289754  0.5648887036269485  0.08745677708915879  1.0000
  H   H21       1.0  0.1624339235740848  0.2850568863741927  0.4024104145321417  1.0000
  H   H22       1.0  0.6624326667833245  0.7149429653708027  0.9024095913571558  1.0000
  C   C1        1.0  0.43522503842672217  0.22301906858341178  0.9373590601141331  1.0000
  C   C2        1.0  0.9352269713170925  0.7769797007050202  0.43735818686266736  1.0000
  C   C3        1.0  0.4198355847745248  0.14860624252069948  0.8213351667026814  1.0000
  C   C4        1.0  0.9198375081392739  0.8513934230116362  0.32133438668913783  1.0000
  C   C5        1.0  0.40037232485889973  0.9985775051802508  0.8226500287755911  1.0000
  C   C6        1.0  0.9003743528906938  0.0014210835364067997  0.3226510309795785  1.0000
  C   C7        1.0  0.3949582112558616  0.9277550561774889  0.9391612291618401  1.0000
  C   C8        1.0  0.8949563145085763  0.07224589045192432  0.4391601216996222  1.0000
  C   C9        1.0  0.4105167553332549  0.0093637290858481  0.05163767074634511  1.0000
  C   C10       1.0  0.9105167680290762  0.9906354968081033  0.5516382421662485  1.0000
  C   C11       1.0  0.4052144788582055  0.9445097261642913  0.1801385732047152  1.0000
  C   C12       1.0  0.9052133051046027  0.055489711224524306  0.6801378728221223  1.0000
  C   C13       1.0  0.3756364160288824  0.796957902926323  0.19954544104228944  1.0000
  C   C14       1.0  0.8756326096938165  0.20304157238238218  0.6995456744310502  1.0000
  C   C15       1.0  0.37219451211951343  0.7453242821682482  0.3234585347735361  1.0000
  C   C16       1.0  0.872192008090316  0.2546753967366371  0.8234570348065021  1.0000
  C   C17       1.0  0.39991406571526505  0.8409868918819258  0.42605960314657654  1.0000
  C   C18       1.0  0.8999141848667662  0.15901403226708066  0.9260591325650864  1.0000
  C   C19       1.0  0.42888353890971587  0.9860661907844702  0.3993600904072849  1.0000
  C   C20       1.0  0.9288823690964705  0.013934683632534502  0.8993602870265249  1.0000
  C   C21       1.0  0.5538678107186216  0.4168411714981559  0.4857804493659046  1.0000
  C   C22       1.0  0.05386713788401211  0.5831599223147349  0.985781873951865  1.0000
  C   C23       1.0  0.5256712757729858  0.5050504929361281  0.5891482668265837  1.0000
  C   C24       1.0  0.0256711967799745  0.49494995732950287  0.089151151043346  1.0000
  C   C25       1.0  0.35739637762717535  0.511068845942944  0.6293343946522683  1.0000
  C   C26       1.0  0.8573957323179258  0.48893268422379066  0.12933485844637002  1.0000
  C   C27       1.0  0.2248805464687536  0.4296175713915745  0.5623185426451585  1.0000
  C   C28       1.0  0.7248798907331064  0.5703817105509258  0.0623191084942079  1.0000
  C   C29       1.0  0.2636415791494854  0.3455810980167229  0.45955429712234525  1.0000
  C   C30       1.0  0.7636416348843226  0.6544188262675096  0.9595544472709604  1.0000
  C   C31       1.0  0.669174011972828  0.6012664739486482  0.6474535316974651  1.0000
  C   C32       1.0  0.16917264051846098  0.39873404197064133  0.1474552461992715  1.0000
  C   C33       1.0  0.3187669972209406  0.5982763907735914  0.7439800722744039  1.0000
  C   C34       1.0  0.8187663644542768  0.40172533512568986  0.2439794777296953  1.0000
  N   N1        1.0  0.4253984141902976  0.33927466551203617  0.42089993665599934  1.0000
  N   N2        1.0  0.9253971629607491  0.6607251618830787  0.9208999946176348  1.0000
  N   N3        1.0  0.4311366728715528  0.15450261424775397  0.048981661850810106  1.0000
  N   N4        1.0  0.9311367055256667  0.8454976860262705  0.5489811023459694  1.0000
  N   N5        1.0  0.4303329928922466  0.0365117982755052  0.2802180103813185  1.0000
  N   N6        1.0  0.9303317042854005  0.9634867147428706  0.7802174986261079  1.0000
  O   O1        1.0  0.6294721672724889  0.726104320746046  0.6838846962882599  1.0000
  O   O2        1.0  0.1294708145569956  0.2738951800543177  0.1838843562305783  1.0000
  O   O3        1.0  0.8268142254476627  0.5534102901286886  0.6549638849174855  1.0000
  O   O4        1.0  0.3268128464880604  0.44659020534280813  0.1549666084519785  1.0000
  O   O5        1.0  0.2086340769033654  0.7017051977653636  0.7214047539391331  1.0000
  O   O6        1.0  0.7086334559974005  0.2982965140490563  0.22140497887089336  1.0000
  O   O7        1.0  0.3925139194694863  0.5609980834743242  0.8503216244228683  1.0000
  O   O8        1.0  0.8925132805517109  0.4390027182069359  0.3503220256564603  1.0000
