data_image0
_chemical_formula_structural       Ca4H24C32O20
_chemical_formula_sum              "Ca4 H24 C32 O20"
_cell_length_a       6.659648213025344
_cell_length_b       11.13454079638419
_cell_length_c       11.955175447724972
_cell_angle_alpha    98.83610393058196
_cell_angle_beta     90.00004144269643
_cell_angle_gamma    89.99968391520925

_space_group_name_H-M_alt    "P 1"
_space_group_IT_number       1

loop_
  _space_group_symop_operation_xyz
  'x, y, z'

loop_
  _atom_site_type_symbol
  _atom_site_label
  _atom_site_symmetry_multiplicity
  _atom_site_fract_x
  _atom_site_fract_y
  _atom_site_fract_z
  _atom_site_occupancy
  Ca  Ca1       1.0  0.8819333359677656  0.5596547541801512  0.6963929683482775  1.0000
  Ca  Ca2       1.0  0.3819315679723303  0.4403452821063141  0.8036068432768317  1.0000
  Ca  Ca3       1.0  0.11806295737633828  0.440346197586571  0.3036081847627514  1.0000
  Ca  Ca4       1.0  0.6180662269602663  0.5596538527217091  0.19639321187462852  1.0000
  H   H1        1.0  0.0987917978537212  0.1473480075521252  0.7415564091653979  1.0000
  H   H2        1.0  0.5987999517930191  0.8526538756243838  0.7584427147716184  1.0000
  H   H3        1.0  0.9012059970701216  0.8526529459105985  0.2584430712736676  1.0000
  H   H4        1.0  0.40119784312617657  0.1473479875803179  0.2415560601432674  1.0000
  H   H5        1.0  0.0532842704132861  0.9399917226030539  0.793763469621439  1.0000
  H   H6        1.0  0.5532861548925823  0.060009405712520406  0.7062321810268914  1.0000
  H   H7        1.0  0.9467165276746882  0.06000832450969539  0.20623337099787886  1.0000
  H   H8        1.0  0.4467116400342944  0.9399906405559617  0.2937654959284757  1.0000
  H   H9        1.0  0.7980310561849322  0.9077069231081863  0.9374236010125474  1.0000
  H   H10       1.0  0.29802768679099495  0.09229248539163847  0.5625727397423931  1.0000
  H   H11       1.0  0.20197274508164745  0.09228948757942848  0.0625735526955111  1.0000
  H   H12       1.0  0.7019716097043729  0.9077102875525538  0.43742532964827063  1.0000
  H   H13       1.0  0.5841446141950186  0.08056225627068159  0.026036440344697105  1.0000
  H   H14       1.0  0.08414314886741182  0.9194360902240957  0.47396302413402935  1.0000
  H   H15       1.0  0.4158591870819208  0.9194323332344961  0.9739637970836272  1.0000
  H   H16       1.0  0.915854646046064  0.08056668442106478  0.5260333725847631  1.0000
  H   H17       1.0  0.8157027705770474  0.6666999407012496  0.9371604355513341  1.0000
  H   H18       1.0  0.3157046864056738  0.3332975889653794  0.5628381514745301  1.0000
  H   H19       1.0  0.18429952910728528  0.33329737463536446  0.0628410306483431  1.0000
  H   H20       1.0  0.6842961116880134  0.6667015467069105  0.43716106734088106  1.0000
  H   H21       1.0  0.05291323853673189  0.6615216856315058  0.9128812499262439  1.0000
  H   H22       1.0  0.5529154058578456  0.3384776201815143  0.5871199934735927  1.0000
  H   H23       1.0  0.9470875595714289  0.3384747199656175  0.08712092179765563  1.0000
  H   H24       1.0  0.4470853922322746  0.6615224235342722  0.41288019248955277  1.0000
  C   C1        1.0  0.8602731627730832  0.22694011362239047  0.8489845102234739  1.0000
  C   C2        1.0  0.360278642513137  0.7730618104316277  0.6510172370613604  1.0000
  C   C3        1.0  0.13972613373783097  0.7730599275481466  0.15101818474759912  1.0000
  C   C4        1.0  0.6397206539740165  0.22694278029802462  0.34898109395286536  1.0000
  C   C5        1.0  0.9835563657707594  0.130480208753319  0.801805553654063  1.0000
  C   C6        1.0  0.48355951430004035  0.8695204009069568  0.6981935460450047  1.0000
  C   C7        1.0  0.0164459339048193  0.8695189252180029  0.19819533783321222  1.0000
  C   C8        1.0  0.5164397821947873  0.1304823728864761  0.30180368700969507  1.0000
  C   C9        1.0  0.9582883142916144  0.015200332331438896  0.8313705682094437  1.0000
  C   C10       1.0  0.4582888602427175  0.9848003635150916  0.6686260240735821  1.0000
  C   C11       1.0  0.041713985386465396  0.9847978952948752  0.1686276834581761  1.0000
  C   C12       1.0  0.5417089346759454  0.015201500538857698  0.3313719145053398  1.0000
  C   C13       1.0  0.8133272314754264  0.9970530246443233  0.9116374776408593  1.0000
  C   C14       1.0  0.313324719047543  0.0029472429675579006  0.588358156626299  1.0000
  C   C15       1.0  0.18667807137249784  0.0029433851915569987  0.08836051240310641  1.0000
  C   C16       1.0  0.6866730758670131  0.9970555299791213  0.4116399127644073  1.0000
  C   C17       1.0  0.692278489832212  0.09334667438047008  0.9605750067694461  1.0000
  C   C18       1.0  0.1922750872648109  0.9066530782030071  0.5394271949990426  1.0000
  C   C19       1.0  0.30772831459975686  0.9066497303574722  0.0394280012902257  1.0000
  C   C20       1.0  0.8077227076497451  0.09334969474367227  0.4605708743916637  1.0000
  C   C21       1.0  0.7125988330125566  0.20819804868089162  0.9286781717931306  1.0000
  C   C22       1.0  0.21260103521105822  0.7917989142034259  0.571319454579978  1.0000
  C   C23       1.0  0.2874004635188995  0.7917974480259817  0.07132386911903414  1.0000
  C   C24       1.0  0.7873967597070646  0.20820295069975708  0.4286776476629939  1.0000
  C   C25       1.0  0.8822362031106293  0.3482197281484858  0.8129915972871445  1.0000
  C   C26       1.0  0.38224134578858576  0.651783036350011  0.687006097746135  1.0000
  C   C27       1.0  0.11776009023757437  0.6517803147255066  0.187009425012107  1.0000
  C   C28       1.0  0.6177594522829537  0.3482206463336652  0.3129912661202994  1.0000
  C   C29       1.0  0.5937407537684933  0.3140177491482419  0.9888167806121617  1.0000
  C   C30       1.0  0.0937438554164558  0.6859814232275382  0.5111827875438166  1.0000
  C   C31       1.0  0.40626004434020757  0.6859786555996408  0.011186227447694794  1.0000
  C   C32       1.0  0.9062569426684773  0.31401953107945957  0.48881585655919235  1.0000
  O   O1        1.0  0.05222221129746879  0.38285242177379064  0.7814887705564076  1.0000
  O   O2        1.0  0.5522279819005931  0.6171487024074551  0.7185144071823261  1.0000
  O   O3        1.0  0.9477725804718843  0.6171467156069284  0.21850877558726722  1.0000
  O   O4        1.0  0.4477698130191428  0.3828531599479987  0.28148520406851674  1.0000
  O   O5        1.0  0.9194424071320384  0.6755870253222368  0.8801492631332979  1.0000
  O   O6        1.0  0.41944297598040947  0.3244110690243716  0.6198502845053114  1.0000
  O   O7        1.0  0.08055989255230138  0.32441029001437016  0.11985220306637963  1.0000
  O   O8        1.0  0.5805578221091777  0.6755889755406485  0.3801490651218772  1.0000
  O   O9        1.0  0.7269934586678629  0.4152558518649769  0.811421117433234  1.0000
  O   O10       1.0  0.2270037264198592  0.5847483319556445  0.6885800635349569  1.0000
  O   O11       1.0  0.2730028346860606  0.5847432795685562  0.1885822830621109  1.0000
  O   O12       1.0  0.772998573229465  0.4152562579198004  0.3114191038151333  1.0000
  O   O13       1.0  0.4111979985638  0.3276400804253612  0.9616836392146342  1.0000
  O   O14       1.0  0.9112015287678901  0.6723580386566254  0.5383184179511106  1.0000
  O   O15       1.0  0.5888027995397208  0.6723572349137398  0.03831782698508588  1.0000
  O   O16       1.0  0.08879926931455628  0.3276438219953803  0.46168286597156083  1.0000
  O   O17       1.0  0.6900452359365089  0.38272493587280104  0.0653954304129698  1.0000
  O   O18       1.0  0.19005401548029247  0.617276693109879  0.4346070596492595  1.0000
  O   O19       1.0  0.30995406057440533  0.6172751052977359  0.9346072645580961  1.0000
  O   O20       1.0  0.8099467826016138  0.38272516839136733  0.5653933879374478  1.0000
