data_image0
_chemical_formula_structural       Gd4H72C80N16Cl12
_chemical_formula_sum              "Gd4 H72 C80 N16 Cl12"
_cell_length_a       12.732575059018899
_cell_length_b       14.215054613003142
_cell_length_c       14.841966798023947
_cell_angle_alpha    90.00006799302015
_cell_angle_beta     89.99980565466821
_cell_angle_gamma    89.99996554949523

_space_group_name_H-M_alt    "P 1"
_space_group_IT_number       1

loop_
  _space_group_symop_operation_xyz
  'x, y, z'

loop_
  _atom_site_type_symbol
  _atom_site_label
  _atom_site_symmetry_multiplicity
  _atom_site_fract_x
  _atom_site_fract_y
  _atom_site_fract_z
  _atom_site_occupancy
  Gd  Gd1       1.0  0.3346345948802565  0.16482398420039596  0.3655758186249401  1.0000
  Gd  Gd2       1.0  0.1653659721358167  0.8351763191763268  0.8655755431644254  1.0000
  Gd  Gd3       1.0  0.8346349858209267  0.33517510260340794  0.6344250008937566  1.0000
  Gd  Gd4       1.0  0.6653660975751593  0.6648253482901864  0.13442364230076015  1.0000
  H   H1        1.0  0.09174035756511499  0.5068299588091278  0.6694895918280821  1.0000
  H   H2        1.0  0.4082601991637134  0.4931708051025652  0.16948935243639346  1.0000
  H   H3        1.0  0.591740273113949  0.9931710448734631  0.33051048170171543  1.0000
  H   H4        1.0  0.9082584644092223  0.00682964896491  0.8305099052563778  1.0000
  H   H5        1.0  0.44116783386049013  0.44033342997700226  0.6183974341071876  1.0000
  H   H6        1.0  0.05883213944204611  0.5596658636740698  0.11839693983442603  1.0000
  H   H7        1.0  0.9411670527538476  0.05966559938988068  0.3816030753305669  1.0000
  H   H8        1.0  0.5588322681934201  0.9403351577508872  0.8816032294798862  1.0000
  H   H9        1.0  0.3367629736921742  0.0653641995689824  0.7900390451518081  1.0000
  H   H10       1.0  0.16323867730011443  0.9346346032598304  0.29003732566410895  1.0000
  H   H11       1.0  0.8367626196167564  0.4346355895674633  0.2099624419385294  1.0000
  H   H12       1.0  0.663238165189334  0.5653649549151751  0.7099618659926464  1.0000
  H   H13       1.0  0.414830560808177  0.5995407198334417  0.6432864475934822  1.0000
  H   H14       1.0  0.08516931410981242  0.4004579011754856  0.14328704323013144  1.0000
  H   H15       1.0  0.914829649559593  0.9004587026979464  0.35671470682458317  1.0000
  H   H16       1.0  0.5851697697668925  0.0995427270866216  0.8567151761644783  1.0000
  H   H17       1.0  0.18073133444517003  0.17460321220607963  0.5552665412303599  1.0000
  H   H18       1.0  0.31926810302126535  0.8253952997473134  0.055264243424183214  1.0000
  H   H19       1.0  0.6807309109897304  0.3253945506151652  0.4447340524845275  1.0000
  H   H20       1.0  0.8192689457983419  0.674604877783416  0.9447338203163443  1.0000
  H   H21       1.0  0.372189285055974  0.728740441931947  0.7502831841085683  1.0000
  H   H22       1.0  0.12781252308246852  0.27125901512096107  0.2502828350094291  1.0000
  H   H23       1.0  0.8721888833837141  0.7712583001105882  0.2497194419531611  1.0000
  H   H24       1.0  0.6278109588822431  0.22874229362978576  0.7497185865032352  1.0000
  H   H25       1.0  0.2083332993145177  0.0848402857346215  0.010610198619346504  1.0000
  H   H26       1.0  0.291666314668845  0.9151609848097378  0.5106089726876208  1.0000
  H   H27       1.0  0.708333804268328  0.415160276122954  0.9893903147556958  1.0000
  H   H28       1.0  0.7916666613863015  0.5848392076034228  0.4893905189235143  1.0000
  H   H29       1.0  0.4649378334528508  0.31246399115239143  0.5087972972688632  1.0000
  H   H30       1.0  0.0350633584694151  0.6875358701869344  0.008797017522916003  1.0000
  H   H31       1.0  0.964937318756462  0.1875364323575041  0.49120246921763333  1.0000
  H   H32       1.0  0.5350639251220882  0.8124637570933188  0.9912025472077846  1.0000
  H   H33       1.0  0.5414528004373906  0.04979498299945109  0.054240030017361114  1.0000
  H   H34       1.0  0.9585454583653361  0.9502046650702166  0.5542410532479354  1.0000
  H   H35       1.0  0.041453851685325595  0.4502049653501529  0.9457582740292383  1.0000
  H   H36       1.0  0.4585463983788999  0.5497947338914385  0.44575930016282694  1.0000
  H   H37       1.0  0.15502974980653053  0.3297175611428215  0.42386831328666846  1.0000
  H   H38       1.0  0.3449698014052984  0.6702814074963825  0.9238659801020221  1.0000
  H   H39       1.0  0.655029696349672  0.1702816224956223  0.5761343765326501  1.0000
  H   H40       1.0  0.8449724028500327  0.8297180526973092  0.07613200882649103  1.0000
  H   H41       1.0  0.17741040695175772  0.1370874544039751  0.7189355339149375  1.0000
  H   H42       1.0  0.32258916894189577  0.8629119638096084  0.21893326908494265  1.0000
  H   H43       1.0  0.6774106052983909  0.36291242064618245  0.2810650694663509  1.0000
  H   H44       1.0  0.8225891130617597  0.6370882119308092  0.7810647849903776  1.0000
  H   H45       1.0  0.1189896558132517  0.4633168409679199  0.5284408356820904  1.0000
  H   H46       1.0  0.38101145846174234  0.5366837481883663  0.02844005129676221  1.0000
  H   H47       1.0  0.6189885345321642  0.03668376905959289  0.4715599377448002  1.0000
  H   H48       1.0  0.8810120016032031  0.9633178030139219  0.9715598540261897  1.0000
  H   H49       1.0  0.06266429397497568  0.6410743264418527  0.7723702801611128  1.0000
  H   H50       1.0  0.43733507069227784  0.35892656493674474  0.2723711510830783  1.0000
  H   H51       1.0  0.5626654916034467  0.8589273963958277  0.22762920423276978  1.0000
  H   H52       1.0  0.9373336525942193  0.1410731699758472  0.7276286957467522  1.0000
  H   H53       1.0  0.4862886194743936  0.07901361102069869  0.5291037414060116  1.0000
  H   H54       1.0  0.013710136017330397  0.9209869789580621  0.02910378915848361  1.0000
  H   H55       1.0  0.9862888138903118  0.4209868009777651  0.4708959629344492  1.0000
  H   H56       1.0  0.5137117248677753  0.5790126598353069  0.9708971852531223  1.0000
  H   H57       1.0  0.5140558116963092  0.10512656763882687  0.21236941343661905  1.0000
  H   H58       1.0  0.9859433928190384  0.8948718693886942  0.7123702940294765  1.0000
  H   H59       1.0  0.0140559543346228  0.39487198852341265  0.7876296441191217  1.0000
  H   H60       1.0  0.48594413540320863  0.6051275148014597  0.2876299796353479  1.0000
  H   H61       1.0  0.19423212331682288  0.13557181622953607  0.17215352809432014  1.0000
  H   H62       1.0  0.305766852110068  0.864428247502907  0.672152203455447  1.0000
  H   H63       1.0  0.6942325154597171  0.3644273462716327  0.8278470263239017  1.0000
  H   H64       1.0  0.8057678033647662  0.6355719373078016  0.32784724711285673  1.0000
  H   H65       1.0  0.4972656647769682  0.038702221697612095  0.6927774280495242  1.0000
  H   H66       1.0  0.0027347998982065994  0.9612971641081528  0.19277755356894494  1.0000
  H   H67       1.0  0.9972649083654802  0.4612981843828478  0.3072222443418085  1.0000
  H   H68       1.0  0.5027354919848861  0.5387017771228458  0.8072227790239597  1.0000
  H   H69       1.0  0.3839086657395825  0.03770698879706909  0.9511901096243991  1.0000
  H   H70       1.0  0.1160899920796155  0.9622948276130856  0.4511905800998975  1.0000
  H   H71       1.0  0.883908930128314  0.46229488535802693  0.04880921894543631  1.0000
  H   H72       1.0  0.6160909209185021  0.5377054594612146  0.5488087487892276  1.0000
  C   C1        1.0  0.2568020531573296  0.5411709571049598  0.6466366047352922  1.0000
  C   C2        1.0  0.24319937929669067  0.45882837153232703  0.14663478545202224  1.0000
  C   C3        1.0  0.7568011160109479  0.9588292541063979  0.3533643358862265  1.0000
  C   C4        1.0  0.7431975311730171  0.041172171527058786  0.8533642789126364  1.0000
  C   C5        1.0  0.2768515675235648  0.4643277318808713  0.5823202581059024  1.0000
  C   C6        1.0  0.22314854838619883  0.5356722205513264  0.082319932055853  1.0000
  C   C7        1.0  0.7768514452855795  0.035673496514888804  0.41768005583667656  1.0000
  C   C8        1.0  0.723150089216574  0.9643280088027595  0.9176797589858625  1.0000
  C   C9        1.0  0.15700362207566343  0.5539623760111851  0.6847812975005426  1.0000
  C   C10       1.0  0.3429968742070244  0.44603840684654716  0.18478119449580532  1.0000
  C   C11       1.0  0.6570036296747046  0.946038592485209  0.3152192598347271  1.0000
  C   C12       1.0  0.8429959536774662  0.0539627858877054  0.8152196006862059  1.0000
  C   C13       1.0  0.3752205424443247  0.4206514708033495  0.5755568355389757  1.0000
  C   C14       1.0  0.1247796001995951  0.5793484732493825  0.07555684545232573  1.0000
  C   C15       1.0  0.8752203641846351  0.07934900107740357  0.42444319208407694  1.0000
  C   C16       1.0  0.6247803581949469  0.9206525126203431  0.9244438056752106  1.0000
  C   C17       1.0  0.3374000562415844  0.08514740690073098  0.7190740671792428  1.0000
  C   C18       1.0  0.1625987337165782  0.9148513080054954  0.21907232706357155  1.0000
  C   C19       1.0  0.837401791081845  0.4148523818908316  0.2809260705234139  1.0000
  C   C20       1.0  0.6625994986000235  0.5851475470346585  0.7809268664535908  1.0000
  C   C21       1.0  0.3358700424432186  0.6048956446629177  0.6712585995573266  1.0000
  C   C22       1.0  0.1641328634608854  0.39510160404049804  0.17125559044874455  1.0000
  C   C23       1.0  0.8358684599663775  0.8951038204405181  0.3287434584545396  1.0000
  C   C24       1.0  0.6641310699254674  0.1048975746888132  0.828744377816385  1.0000
  C   C25       1.0  0.2497118276614358  0.1445962942738461  0.5878759833278979  1.0000
  C   C26       1.0  0.2502882662899353  0.8554022580819943  0.08787459417219882  1.0000
  C   C27       1.0  0.7497115129847317  0.35540283831571157  0.41212440960846675  1.0000
  C   C28       1.0  0.750288472703929  0.6445972531601638  0.9121243441112556  1.0000
  C   C29       1.0  0.3122933669220131  0.677986507559396  0.7300184079875154  1.0000
  C   C30       1.0  0.18770852132192317  0.32201222090605336  0.2300172684747609  1.0000
  C   C31       1.0  0.8122928511144067  0.8220129702546685  0.26998304488147806  1.0000
  C   C32       1.0  0.6877069110502915  0.17798764859237787  0.7699833049347975  1.0000
  C   C33       1.0  0.2779224360519663  0.08947340961279339  0.053265497918381824  1.0000
  C   C34       1.0  0.22207700931975444  0.9105272103011756  0.5532651430361712  1.0000
  C   C35       1.0  0.7779223273376132  0.41052641124611705  0.9467341391412847  1.0000
  C   C36       1.0  0.7220775215442359  0.589473723110025  0.44673387736117587  1.0000
  C   C37       1.0  0.38903564609139346  0.3474431281534365  0.5146942202122562  1.0000
  C   C38       1.0  0.11096473713619297  0.6525560370120899  0.014693006017317602  1.0000
  C   C39       1.0  0.8890359635459434  0.1525566327996728  0.4853064409636759  1.0000
  C   C40       1.0  0.6109645182531054  0.8474442528253688  0.9853056640262357  1.0000
  C   C41       1.0  0.46309782088999907  0.0693573771635627  0.07708214131503872  1.0000
  C   C42       1.0  0.03690153033713979  0.9306425687793123  0.5770823482809038  1.0000
  C   C43       1.0  0.9630977928313698  0.4306423438582954  0.9229169567608582  1.0000
  C   C44       1.0  0.5369021501952959  0.569357760989412  0.4229172110998222  1.0000
  C   C45       1.0  0.2169173719509629  0.35778921853209056  0.4670228970914324  1.0000
  C   C46       1.0  0.28308200867572714  0.6422091000952861  0.9670213858985622  1.0000
  C   C47       1.0  0.7169175079046964  0.1422099317388472  0.5329782650631288  1.0000
  C   C48       1.0  0.7830831911059805  0.8577903934663311  0.03297813069700341  1.0000
  C   C49       1.0  0.24815344515441504  0.12418841025160526  0.6796448088520253  1.0000
  C   C50       1.0  0.251846286049755  0.8758095523230479  0.17964276459188974  1.0000
  C   C51       1.0  0.7481534795405195  0.375810019698946  0.3203562623845144  1.0000
  C   C52       1.0  0.7518460835073951  0.6241892545996848  0.8203561691568881  1.0000
  C   C53       1.0  0.1967265000048926  0.4316060713644063  0.5257328423855727  1.0000
  C   C54       1.0  0.30327305420284745  0.5683931074774407  0.025730972781140306  1.0000
  C   C55       1.0  0.6967269175262912  0.06839379327269769  0.4742697260681653  1.0000
  C   C56       1.0  0.8032743932886107  0.9316070786772742  0.9742678112800649  1.0000
  C   C57       1.0  0.1400956688917105  0.6291601579042163  0.74287743874924  1.0000
  C   C58       1.0  0.359904597747267  0.3708399934528117  0.24287652729298514  1.0000
  C   C59       1.0  0.6400959565599608  0.8708401162288836  0.2571238415637751  1.0000
  C   C60       1.0  0.8599046418234692  0.1291604866854499  0.7571235449093339  1.0000
  C   C61       1.0  0.4203152258586371  0.0916474456335195  0.5740938387886346  1.0000
  C   C62       1.0  0.07968413718334941  0.9083510896472262  0.0740930063872867  1.0000
  C   C63       1.0  0.9203148211985805  0.40835159497549967  0.4259060575783949  1.0000
  C   C64       1.0  0.5796843246252906  0.5916485135758973  0.9259064284677977  1.0000
  C   C65       1.0  0.44845016696806533  0.09924687435035648  0.16551452944597864  1.0000
  C   C66       1.0  0.051548834700270205  0.900753181157057  0.6655139860391872  1.0000
  C   C67       1.0  0.9484512938981525  0.40075285456886406  0.8344852850278175  1.0000
  C   C68       1.0  0.5515489986862221  0.5992464372351802  0.3344855307083918  1.0000
  C   C69       1.0  0.27015241523482564  0.1176836999723818  0.1427880270999822  1.0000
  C   C70       1.0  0.2298466762677833  0.8823163273776797  0.6427876175370246  1.0000
  C   C71       1.0  0.7701534646937205  0.38231612507541257  0.8572116325739361  1.0000
  C   C72       1.0  0.7298467380577093  0.617683194885572  0.357211380245282  1.0000
  C   C73       1.0  0.425610132933727  0.0693141358896767  0.6652353778891611  1.0000
  C   C74       1.0  0.07438965522695902  0.9306859192710917  0.16523391251957525  1.0000
  C   C75       1.0  0.9256100735653588  0.43068560534445055  0.334765176831212  1.0000
  C   C76       1.0  0.5743902179121748  0.5693143902859815  0.8347655377458242  1.0000
  C   C77       1.0  0.3763008820070226  0.06393986927706409  0.0199530436406619  1.0000
  C   C78       1.0  0.12369790965490782  0.9360607093646252  0.5199536778937671  1.0000
  C   C79       1.0  0.8763014098792397  0.4360598985410887  0.9800463070713054  1.0000
  C   C80       1.0  0.6236990927112912  0.5639395736082237  0.4800463026160387  1.0000
  N   N1        1.0  0.3113279937567698  0.31545941890176715  0.4611495248148502  1.0000
  N   N2        1.0  0.1886714100885243  0.6845388924480458  0.9611469890031973  1.0000
  N   N3        1.0  0.811328078105909  0.1845389769895576  0.5388533838370722  1.0000
  N   N4        1.0  0.6886725976848281  0.8154613554935962  0.03885145486015771  1.0000
  N   N5        1.0  0.33395334131415666  0.1282712928489147  0.5351847215859921  1.0000
  N   N6        1.0  0.1660461755304539  0.871727194224448  0.0351835961856395  1.0000
  N   N7        1.0  0.8339528074101779  0.37172779432201236  0.4648154261518017  1.0000
  N   N8        1.0  0.6660469699981562  0.6282723624365472  0.9648155872975297  1.0000
  N   N9        1.0  0.21578335719569  0.6913829161492868  0.765209983654245  1.0000
  N   N10       1.0  0.2842168211661829  0.3086158559180988  0.2652092217738869  1.0000
  N   N11       1.0  0.7157837748651021  0.8086159102182223  0.23479175012136724  1.0000
  N   N12       1.0  0.7842169117930028  0.19138536850705634  0.7347917444957448  1.0000
  N   N13       1.0  0.3534331788335194  0.1226748994100575  0.1986275431503728  1.0000
  N   N14       1.0  0.1465656919445237  0.8773251971231771  0.6986266965518554  1.0000
  N   N15       1.0  0.8534336669768123  0.3773248807376106  0.8013725478870415  1.0000
  N   N16       1.0  0.6465659711105333  0.6226750735203692  0.3013725436336402  1.0000
  Cl  Cl1       1.0  0.5316143790435248  0.21758067253780666  0.36111793169788353  1.0000
  Cl  Cl2       1.0  0.968387379038333  0.7824165418250074  0.8611194093385495  1.0000
  Cl  Cl3       1.0  0.031614399687534  0.28241787415653613  0.6388790534554689  1.0000
  Cl  Cl4       1.0  0.4683870634253963  0.7175842587889604  0.13887956789799463  1.0000
  Cl  Cl5       1.0  0.1295763279569897  0.1357647043901835  0.3615671978898193  1.0000
  Cl  Cl6       1.0  0.3704242549065455  0.864237000978285  0.8615656848389082  1.0000
  Cl  Cl7       1.0  0.6295766835663414  0.3642380103673233  0.638432870956706  1.0000
  Cl  Cl8       1.0  0.8704243839804775  0.6357624454940023  0.13843492506440924  1.0000
  Cl  Cl9       1.0  0.3887482658344936  0.9847729856514175  0.3704434853161446  1.0000
  Cl  Cl10      1.0  0.1112514965481921  0.015227323758011798  0.8704458042010332  1.0000
  Cl  Cl11      1.0  0.888747319789786  0.5152271544209127  0.6295563974889122  1.0000
  Cl  Cl12      1.0  0.6112498559185084  0.4847732904408204  0.12955364421950585  1.0000
