data_image0
_chemical_formula_structural       Yb2H18C28S4O20
_chemical_formula_sum              "Yb2 H18 C28 S4 O20"
_cell_length_a       7.338454121964511
_cell_length_b       7.835838459689224
_cell_length_c       13.643302989839226
_cell_angle_alpha    85.88612280666023
_cell_angle_beta     86.94362551896434
_cell_angle_gamma    85.70594239639547

_space_group_name_H-M_alt    "P 1"
_space_group_IT_number       1

loop_
  _space_group_symop_operation_xyz
  'x, y, z'

loop_
  _atom_site_type_symbol
  _atom_site_label
  _atom_site_symmetry_multiplicity
  _atom_site_fract_x
  _atom_site_fract_y
  _atom_site_fract_z
  _atom_site_occupancy
  Yb  Yb1       1.0  0.328527329140023  0.1712051531009564  0.5150420180699555  1.0000
  Yb  Yb2       1.0  0.6714705612936598  0.8287980923769638  0.48495761513659374  1.0000
  H   H1        1.0  0.9662718313295076  0.5715589370765529  0.7769338382383284  1.0000
  H   H2        1.0  0.033733017382878906  0.4284388926973648  0.2230680372671331  1.0000
  H   H3        1.0  0.9545832503952243  0.12587756243338072  0.7582019252659435  1.0000
  H   H4        1.0  0.04541244368283507  0.8741207492467566  0.2417962312631587  1.0000
  H   H5        1.0  0.7980427968454579  0.12934896347168487  0.9235504821661636  1.0000
  H   H6        1.0  0.20195537507817113  0.8706504421881645  0.07644915574920222  1.0000
  H   H7        1.0  0.5254926994109256  0.8171556841566313  0.21792946635322616  1.0000
  H   H8        1.0  0.47450570316758006  0.18284397493200538  0.782067964508393  1.0000
  H   H9        1.0  0.5298985047179983  0.2630632278108889  0.23439038073656351  1.0000
  H   H10       1.0  0.4701007653834424  0.7369386447478518  0.7656099955175224  1.0000
  H   H11       1.0  0.6966568416311177  0.26030987860672633  0.0708677151041996  1.0000
  H   H12       1.0  0.3033453585207652  0.7396880526505781  0.929133413129982  1.0000
  H   H13       1.0  0.9742866698648032  0.35081262180645467  0.5948091734121237  1.0000
  H   H14       1.0  0.0257125233516717  0.6491891662760308  0.4051919385265492  1.0000
  H   H15       1.0  0.13267418816745644  0.47795722988431083  0.5945344147123708  1.0000
  H   H16       1.0  0.8673251757639663  0.5220433627350756  0.4054659631113254  1.0000
  H   H17       1.0  0.3352189765019206  0.8967613170419071  0.3923813216801975  1.0000
  H   H18       1.0  0.6647789478218087  0.10323919960478625  0.6076197860347323  1.0000
  C   C1        1.0  0.9289466123983631  0.6942640448771229  0.808007238453847  1.0000
  C   C2        1.0  0.07105702736121339  0.30573396235287476  0.19199315988909402  1.0000
  C   C3        1.0  0.9685701304504023  0.8486862384364641  0.7575255537894068  1.0000
  C   C4        1.0  0.03143072392377629  0.15131033690877874  0.24247630590561906  1.0000
  C   C5        1.0  0.9217855609052917  0.0060133144450418  0.7983263792630312  1.0000
  C   C6        1.0  0.07821124829560228  0.9939860997183699  0.20167325285898843  1.0000
  C   C7        1.0  0.832961386225037  0.007727816292458562  0.8909638317847243  1.0000
  C   C8        1.0  0.16703960497403617  0.992270292420919  0.1090358192869445  1.0000
  C   C9        1.0  0.5604793994315784  0.6944396460183313  0.1862360586994428  1.0000
  C   C10       1.0  0.4395201182697619  0.30556111555357995  0.8137628477550793  1.0000
  C   C11       1.0  0.5165054255377372  0.539444540617964  0.23510429308611697  1.0000
  C   C12       1.0  0.4834940152786371  0.4605561364776917  0.764895349052992  1.0000
  C   C13       1.0  0.564004549176069  0.38264498020638626  0.19437624257314212  1.0000
  C   C14       1.0  0.4359962713080635  0.6173543239700834  0.8056241426135031  1.0000
  C   C15       1.0  0.6581654054975772  0.38178066737363997  0.10300660520357503  1.0000
  C   C16       1.0  0.3418353381015962  0.6182185523265742  0.8969945156676504  1.0000
  C   C17       1.0  0.8042143612835345  0.5309831230743214  0.9555114964636149  1.0000
  C   C18       1.0  0.19579082885873336  0.46901231577341207  0.04448891081188581  1.0000
  C   C19       1.0  0.6987932366819224  0.8587088702571606  0.04239316148844101  1.0000
  C   C20       1.0  0.3012117488553727  0.1412904928848988  0.9576065053936633  1.0000
  C   C21       1.0  0.7916181353755647  0.8539558603972991  0.9430997841145088  1.0000
  C   C22       1.0  0.20838414166128424  0.1460421553362607  0.056900608435086  1.0000
  C   C23       1.0  0.8404572960872583  0.6965529120314641  0.9013484037474486  1.0000
  C   C24       1.0  0.15954734802014772  0.30344884203677935  0.09865273136461643  1.0000
  C   C25       1.0  0.7027737056828443  0.5357842208075424  0.052412527048979  1.0000
  C   C26       1.0  0.297227020971313  0.4642163633082815  0.9475878565680633  1.0000
  C   C27       1.0  0.6532140670513301  0.6931347587307001  0.09412189203319342  1.0000
  C   C28       1.0  0.34678529688009274  0.30686583388869343  0.9058784857905025  1.0000
  S   S1        1.0  0.07370899463715834  0.8459910822465488  0.6371237880824054  1.0000
  S   S2        1.0  0.926290616894157  0.154008399386008  0.36287511994172666  1.0000
  S   S3        1.0  0.4064456662074675  0.5458612651059627  0.35400254287554844  1.0000
  S   S4        1.0  0.593552488771138  0.45413950496951105  0.6459963577856273  1.0000
  O   O1        1.0  0.18922203904327256  0.9934120983489766  0.6291978460785685  1.0000
  O   O2        1.0  0.8107771372281859  0.006591054149126297  0.3708025286059141  1.0000
  O   O3        1.0  0.9224095824122855  0.8741000817665564  0.570374006927807  1.0000
  O   O4        1.0  0.07758694529866973  0.1259031722149189  0.429625620485389  1.0000
  O   O5        1.0  0.1779015481422235  0.6816619039582293  0.6292473958646667  1.0000
  O   O6        1.0  0.8220969313212408  0.31833783960667006  0.37074929931235806  1.0000
  O   O7        1.0  0.367568716548803  0.3674749498029967  0.3842704133599996  1.0000
  O   O8        1.0  0.6324294214847869  0.6325271846880868  0.615727750046986  1.0000
  O   O9        1.0  0.5402294316958987  0.6119791343987586  0.41501776465058543  1.0000
  O   O10       1.0  0.4597688171126891  0.3880203557373534  0.5849811375801935  1.0000
  O   O11       1.0  0.24149018468251177  0.6623445237709121  0.34454103764730354  1.0000
  O   O12       1.0  0.7585092561338699  0.33765615332473686  0.6554586044918055  1.0000
  O   O13       1.0  0.6596440806418329  0.9953365199072195  0.0812859795764069  1.0000
  O   O14       1.0  0.34035954217272046  0.004662851738395088  0.9187136815123509  1.0000
  O   O15       1.0  0.8598984498442236  0.39329925146140704  0.9213659682494042  1.0000
  O   O16       1.0  0.140102123040009  0.6067011637018992  0.07863588673680512  1.0000
  O   O17       1.0  0.4209802423515541  0.9568020104924388  0.4268378111949859  1.0000
  O   O18       1.0  0.5790162853594014  0.0432012434890368  0.5731618162182173  1.0000
  O   O19       1.0  0.1053394258677471  0.3621745669280614  0.5777590066432553  1.0000
  O   O20       1.0  0.8946598611787097  0.6378259412150695  0.4222421068650207  1.0000
