data_image0
_chemical_formula_structural       Al2H16C22N2O11
_chemical_formula_sum              "Al2 H16 C22 N2 O11"
_cell_length_a       6.685467548285123
_cell_length_b       11.178362258875785
_cell_length_c       15.358664229469317
_cell_angle_alpha    78.67095496333683
_cell_angle_beta     76.71368041418215
_cell_angle_gamma    72.2410896754278

_space_group_name_H-M_alt    "P 1"
_space_group_IT_number       1

loop_
  _space_group_symop_operation_xyz
  'x, y, z'

loop_
  _atom_site_type_symbol
  _atom_site_label
  _atom_site_symmetry_multiplicity
  _atom_site_fract_x
  _atom_site_fract_y
  _atom_site_fract_z
  _atom_site_occupancy
  Al  Al1       1.0  0.49872560194568644  0.5054400257126304  0.5017414364321126  1.0000
  Al  Al2       1.0  0.003259351233737113  0.4986741148915357  0.5006298785470236  1.0000
  H   H1        1.0  0.25338825140630655  0.6057806757185987  0.3974245034380459  1.0000
  H   H2        1.0  0.79357170242762  0.34866569797492286  0.5560214352000729  1.0000
  H   H3        1.0  0.13551210581904632  0.12252113049927257  0.4837663796966751  1.0000
  H   H4        1.0  0.7629815042988497  0.11599024608015175  0.5156770038713461  1.0000
  H   H5        1.0  0.25396310351258927  0.8883640328697312  0.48607452143622965  1.0000
  H   H6        1.0  0.7390672709702882  0.4494492389715176  0.9478479440309472  1.0000
  H   H7        1.0  0.297713534503103  0.4491166216472778  0.06004415833835  1.0000
  H   H8        1.0  0.5540392355036944  0.5691823664320523  0.22660840228297016  1.0000
  H   H9        1.0  0.6199516636403287  0.5744934850156865  0.0604689652105819  1.0000
  H   H10       1.0  0.36962001244835113  0.5772591877655843  0.7615550888577189  1.0000
  H   H11       1.0  0.29229385252598655  0.5822179968262092  0.9273946250879561  1.0000
  H   H12       1.0  0.9407726340675922  0.7819897893758566  0.5183818283016635  1.0000
  H   H13       1.0  0.7975350994218215  0.4497119759547275  0.7086334966815855  1.0000
  H   H14       1.0  0.64367419190814  0.42652287049202187  0.8161406389943267  1.0000
  H   H15       1.0  0.24694569345074058  0.4401020926149427  0.30015346123153114  1.0000
  H   H16       1.0  0.4205986821674939  0.4113935733827249  0.19729498456982242  1.0000
  C   C1        1.0  0.8291721767067697  0.5086313186304209  0.336819712080775  1.0000
  C   C2        1.0  0.6382443882492055  0.7311007609650415  0.5020112228363304  1.0000
  C   C3        1.0  0.16803499800106178  0.5034127996807527  0.6628371604487384  1.0000
  C   C4        1.0  0.36799817400576984  0.2732941062965891  0.5008515642854761  1.0000
  C   C5        1.0  0.5741732360163708  0.8696196889790074  0.501419874463437  1.0000
  C   C6        1.0  0.4420033880166938  0.13324911911332293  0.49994722356799315  1.0000
  C   C7        1.0  0.7197190644385004  0.9345394332737342  0.5100060096939103  1.0000
  C   C8        1.0  0.29794174946499646  0.06907527985252672  0.4911181658668156  1.0000
  C   C9        1.0  0.6511988396927748  0.06649182579837287  0.5090210615034891  1.0000
  C   C10       1.0  0.364664631107587  0.9390068776025373  0.4918563689220576  1.0000
  C   C11       1.0  0.10438952261474539  0.5089383731323736  0.7604216566811957  1.0000
  C   C12       1.0  0.8840009842287272  0.5075748239296872  0.23844457147612988  1.0000
  C   C13       1.0  0.9172698449020372  0.47625094304260773  0.812934740343522  1.0000
  C   C14       1.0  0.8777610457808507  0.47857839357940435  0.9073258183558012  1.0000
  C   C15       1.0  0.09942376280582019  0.4741006967217558  0.19084430103015387  1.0000
  C   C16       1.0  0.1332977097672696  0.47700869032166787  0.09618840263746622  1.0000
  C   C17       1.0  0.716817979961732  0.5412898128208995  0.18921517910941069  1.0000
  C   C18       1.0  0.7533813629501651  0.543159633280439  0.0966568019031087  1.0000
  C   C19       1.0  0.2344379326659691  0.5467529506109017  0.8039819597394172  1.0000
  C   C20       1.0  0.19221154452117864  0.5487218253948428  0.8961957184205219  1.0000
  C   C21       1.0  0.011745245445148138  0.512413347741358  0.9495564379801422  1.0000
  C   C22       1.0  0.9658408245218623  0.5105915890027433  0.04861623192933  1.0000
  N   N1        1.0  0.781269217967818  0.4396243941099698  0.7769362993949046  1.0000
  N   N2        1.0  0.27066186079008486  0.43659055529484914  0.2330303604450776  1.0000
  O   O1        1.0  0.6394151152390178  0.5071009310962252  0.3766405798655086  1.0000
  O   O2        1.0  0.8340749198001375  0.6714823468388575  0.5089498665306563  1.0000
  O   O3        1.0  0.034371843968870046  0.4854783659698684  0.6217013223340758  1.0000
  O   O4        1.0  0.5017936954174402  0.3293500571057493  0.5086960017461236  1.0000
  O   O5        1.0  0.35324568001394857  0.5144295736578998  0.6234209610259426  1.0000
  O   O6        1.0  0.17298070384401137  0.32728039358933364  0.4940077862944817  1.0000
  O   O7        1.0  0.9756299439263285  0.5125253780153541  0.37734582228829794  1.0000
  O   O8        1.0  0.5022411619302858  0.6773192108659457  0.49498390249052454  1.0000
  O   O9        1.0  0.2414527123291846  0.562079315572376  0.4586791422376137  1.0000
  O   O10       1.0  0.7598771298430336  0.44039213475797806  0.5425282306580641  1.0000
  O   O11       1.0  0.9230040641189132  0.8740165971331919  0.5197043716344255  1.0000
