data_image0
_chemical_formula_structural       Cd2H30C24N2O16
_chemical_formula_sum              "Cd2 H30 C24 N2 O16"
_cell_length_a       7.7431488244906905
_cell_length_b       9.74510174685147
_cell_length_c       10.414918332003099
_cell_angle_alpha    71.62548674178977
_cell_angle_beta     92.86457152031896
_cell_angle_gamma    78.36526685088543

_space_group_name_H-M_alt    "P 1"
_space_group_IT_number       1

loop_
  _space_group_symop_operation_xyz
  'x, y, z'

loop_
  _atom_site_type_symbol
  _atom_site_label
  _atom_site_symmetry_multiplicity
  _atom_site_fract_x
  _atom_site_fract_y
  _atom_site_fract_z
  _atom_site_occupancy
  Cd  Cd1       1.0  0.0571654999617905  0.2765075852962227  0.4163931151449134  1.0000
  Cd  Cd2       1.0  0.9907147859552983  0.7443496871560098  0.5797511428276964  1.0000
  H   H1        1.0  0.2317988705066938  0.6517352253063251  0.04295066062478272  1.0000
  H   H2        1.0  0.2824234616675626  0.6018469971054968  0.2126936256089494  1.0000
  H   H3        1.0  0.0215057594630252  0.2744912470709906  0.9272945693033421  1.0000
  H   H4        1.0  0.3122229708722132  0.8914267862493332  0.2533354359488271  1.0000
  H   H5        1.0  0.9387457181626645  0.5823418009736017  0.3480978514606362  1.0000
  H   H6        1.0  0.7501727094605644  0.12582107219621716  0.4329020836294148  1.0000
  H   H7        1.0  0.833842748697343  0.5186619263446559  0.46533227604755467  1.0000
  H   H8        1.0  0.3368930046233486  0.9065444050649348  0.8362095370067308  1.0000
  H   H9        1.0  0.851543099195091  0.07597702268400748  0.5767132415589488  1.0000
  H   H10       1.0  0.5328182769116626  0.7128164452570117  0.015679650795476664  1.0000
  H   H11       1.0  0.5406397698971261  0.7037405409834816  0.18919195257711865  1.0000
  H   H12       1.0  0.3738156401680257  0.434439392806965  0.0495141448398755  1.0000
  H   H13       1.0  0.6798133739471838  0.4927445457393416  0.05060603627113381  1.0000
  H   H14       1.0  0.686024021615907  0.31211996146199533  0.16284603661547692  1.0000
  H   H15       1.0  0.6907092957061424  0.4570902567149843  0.2289491095439757  1.0000
  H   H16       1.0  0.6149736008276887  0.4240927918610709  0.8905659267547533  1.0000
  H   H17       1.0  0.41350824628371907  0.46727748662205926  0.7965766359939721  1.0000
  H   H18       1.0  0.22244141548134158  0.9254491825808489  0.6063425543521318  1.0000
  H   H19       1.0  0.1258326598929145  0.4503702038410112  0.7454947013645637  1.0000
  H   H20       1.0  0.21034240137647234  0.9256708355089032  0.4584582434259232  1.0000
  H   H21       1.0  0.992681968641634  0.7402279204628501  0.12479436187553006  1.0000
  H   H22       1.0  0.12450821903719599  0.5754119502138552  0.8245391647375299  1.0000
  H   H23       1.0  0.6184380020204758  0.11171606743032207  0.1605907179253947  1.0000
  H   H24       1.0  0.6927023998094555  0.07037010368872391  0.763582717550598  1.0000
  H   H25       1.0  0.41793572401844165  0.2264140617150829  0.8054870794889624  1.0000
  H   H26       1.0  0.4039324606779005  0.2576114460670027  0.9630462724617387  1.0000
  H   H27       1.0  0.7395398195106823  0.3100800740041976  0.7212610533529114  1.0000
  H   H28       1.0  0.43693019344442513  0.3526981872765163  0.5861712360651552  1.0000
  H   H29       1.0  0.5882772874488255  0.4380240410327473  0.48944254328059594  1.0000
  H   H30       1.0  0.4157122768309946  0.5477981631200279  0.5466984864943925  1.0000
  C   C1        1.0  0.13456982359397068  0.1830554987369908  0.7157285403922344  1.0000
  C   C2        1.0  0.17201495688530596  0.0975437000238273  0.8652952098181856  1.0000
  C   C3        1.0  0.10744949023555252  0.1631651001461449  0.9604654313864813  1.0000
  C   C4        1.0  0.1574830259933364  0.088950194363683  0.0999269933759237  1.0000
  C   C5        1.0  0.09597902325257485  0.16424747896162017  0.20025295397770293  1.0000
  C   C6        1.0  0.27157360552362064  0.9475022799653485  0.14445259348406136  1.0000
  C   C7        1.0  0.3345077668852596  0.880697693622217  0.050228417973436  1.0000
  C   C8        1.0  0.2848380952216374  0.9560182911612785  0.9109214041361824  1.0000
  C   C9        1.0  0.45176259711296035  0.7274991016147823  0.09573069568443061  1.0000
  C   C10       1.0  0.4317744593195841  0.45705167068359714  0.13715552500232775  1.0000
  C   C11       1.0  0.6325518745866533  0.43034965873660974  0.1441748641781331  1.0000
  C   C12       1.0  0.37366739110681385  0.3518170946562691  0.26458683481067885  1.0000
  C   C13       1.0  0.9502864680752626  0.8164084902503035  0.8486756350504051  1.0000
  C   C14       1.0  0.8575145168587713  0.899209287671759  0.9343217636471054  1.0000
  C   C15       1.0  0.8979308145585421  0.8452899944956652  0.0756027364067649  1.0000
  C   C16       1.0  0.8165222182983598  0.9236767618550344  0.1563111582818308  1.0000
  C   C17       1.0  0.8719522769254341  0.8654319156394763  0.3067544469203013  1.0000
  C   C18       1.0  0.6880938050608522  0.056006659642250184  0.0953381709253236  1.0000
  C   C19       1.0  0.6451044715701928  0.11094847150010169  0.9532421351077289  1.0000
  C   C20       1.0  0.7294819032662404  0.03203635204216229  0.8736846738751892  1.0000
  C   C21       1.0  0.494239943509129  0.24345677834445917  0.8880643653969712  1.0000
  C   C22       1.0  0.6351247934643496  0.411878186473899  0.7016492353355234  1.0000
  C   C23       1.0  0.5108359145579016  0.44010083344551276  0.5740496824226966  1.0000
  C   C24       1.0  0.7338791436959087  0.5351343900172907  0.7005481433803453  1.0000
  N   N1        1.0  0.3393045522529405  0.6148753753247364  0.12149584467360341  1.0000
  N   N2        1.0  0.5382924434462384  0.3914115747453693  0.82523998376746  1.0000
  O   O1        1.0  0.1702835981603386  0.11157325594437849  0.6321401379923373  1.0000
  O   O2        1.0  0.07357376588647212  0.3223753142109799  0.6771096499591849  1.0000
  O   O3        1.0  0.02705778875979802  0.30160387388620785  0.1583496834245395  1.0000
  O   O4        1.0  0.11954338649490381  0.08448740225067299  0.3272148425824284  1.0000
  O   O5        1.0  0.4376580653845395  0.21678855664246294  0.2934185875182038  1.0000
  O   O6        1.0  0.26113648444061244  0.41722060003733924  0.3263757779071028  1.0000
  O   O7        1.0  0.8714097198429444  0.5035279561939062  0.3789763698617817  1.0000
  O   O8        1.0  0.8023565929878557  0.16557304324284422  0.49759712549803936  1.0000
  O   O9        1.0  0.9043388244140333  0.8731800937630466  0.7201785351327175  1.0000
  O   O10       1.0  0.06863598598935283  0.6972063374887726  0.9071204779237122  1.0000
  O   O11       1.0  0.999913891762816  0.7475978024781398  0.35309565117481156  1.0000
  O   O12       1.0  0.796824553411433  0.9308710183249075  0.38313919416058434  1.0000
  O   O13       1.0  0.7536475050551632  0.5631113036120894  0.8090431546193315  1.0000
  O   O14       1.0  0.7923806048606681  0.5945596632071641  0.5882717971335438  1.0000
  O   O15       1.0  0.17822505860197427  0.5334743648730722  0.754751444137021  1.0000
  O   O16       1.0  0.23315115925387883  0.8557292581159786  0.5542886658788859  1.0000
