data_image0
_chemical_formula_structural       Cd2H28C30N4O10
_chemical_formula_sum              "Cd2 H28 C30 N4 O10"
_cell_length_a       7.65097102669848
_cell_length_b       8.332602976475327
_cell_length_c       13.576618165009613
_cell_angle_alpha    77.24319149492109
_cell_angle_beta     73.86551023396055
_cell_angle_gamma    63.33037310449275

_space_group_name_H-M_alt    "P 1"
_space_group_IT_number       1

loop_
  _space_group_symop_operation_xyz
  'x, y, z'

loop_
  _atom_site_type_symbol
  _atom_site_label
  _atom_site_symmetry_multiplicity
  _atom_site_fract_x
  _atom_site_fract_y
  _atom_site_fract_z
  _atom_site_occupancy
  Cd  Cd1       1.0  0.2361497205234858  0.8375540658998445  0.5681014092900369  1.0000
  Cd  Cd2       1.0  0.7638498438475522  0.16244450235777214  0.43189764877550374  1.0000
  H   H1        1.0  0.5834643961657736  0.8450349962166185  0.4148183065612443  1.0000
  H   H2        1.0  0.4165352505092628  0.15496627366110974  0.5851811329212993  1.0000
  H   H3        1.0  0.5294060441862314  0.6832571871207946  0.4057915548826331  1.0000
  H   H4        1.0  0.4705955973008641  0.316742759167603  0.5942070157855213  1.0000
  H   H5        1.0  0.8319749257998483  0.5034422842050715  0.594935096647781  1.0000
  H   H6        1.0  0.16802677140950814  0.4965603205046206  0.40506607486816654  1.0000
  H   H7        1.0  0.0791340275562078  0.46429019010158606  0.5975941020079746  1.0000
  H   H8        1.0  0.9208660329429748  0.5357042388020757  0.40240908996517544  1.0000
  H   H9        1.0  0.8000139521604339  0.8092226370452666  0.6401389367344237  1.0000
  H   H10       1.0  0.19999038031718902  0.19077730713848948  0.35986070261991193  1.0000
  H   H11       1.0  0.4818276650773968  0.33360586839577877  0.8091443409518747  1.0000
  H   H12       1.0  0.518172484027602  0.6663887045039302  0.19085145291865052  1.0000
  H   H13       1.0  0.6692838223697137  0.2592421990624132  0.7000477767232383  1.0000
  H   H14       1.0  0.3307200051191899  0.7407618700756871  0.29994846853374924  1.0000
  H   H15       1.0  0.5621610978833973  0.3613583719999624  0.9530740615359576  1.0000
  H   H16       1.0  0.4378332048116891  0.6386455317091375  0.046927321042538474  1.0000
  H   H17       1.0  0.191508500958669  0.39842103980965493  0.7489855420981969  1.0000
  H   H18       1.0  0.8084942859733604  0.6015734445877854  0.2510157593200831  1.0000
  H   H19       1.0  0.5223913247203099  0.8488245842106394  0.7942865371302831  1.0000
  H   H20       1.0  0.4776154252540864  0.1511672098093371  0.20571524609000144  1.0000
  H   H21       1.0  0.12688648686975793  0.9235131599120191  0.7908702664731424  1.0000
  H   H22       1.0  0.8731107980307655  0.07649891855079011  0.20912962999124568  1.0000
  H   H23       1.0  0.8551787956483352  0.9795112101519476  0.9513002390464607  1.0000
  H   H24       1.0  0.14481967900002954  0.0204954784179208  0.048698689116740516  1.0000
  H   H25       1.0  0.8013100921856661  0.36323207090125453  0.04315030445344802  1.0000
  H   H26       1.0  0.19868414592657763  0.6367691599869404  0.956849217087516  1.0000
  H   H27       1.0  0.12278671365606905  0.37554270485908586  0.9408006447171431  1.0000
  H   H28       1.0  0.8772120747912737  0.6244544123174123  0.05920313414018353  1.0000
  C   C1        1.0  0.04681031629864661  0.2296111817269662  0.5820360090410261  1.0000
  C   C2        1.0  0.9531867305504562  0.7703928062751116  0.41796200336208505  1.0000
  C   C3        1.0  0.9652081838009039  0.4095103693633532  0.6257208747968904  1.0000
  C   C4        1.0  0.03479205016686388  0.5904894771801351  0.37428234020001133  1.0000
  C   C5        1.0  0.8075986749123985  0.8454054888599173  0.7106528977547344  1.0000
  C   C6        1.0  0.19240761693495048  0.15459307413609477  0.2893488320262634  1.0000
  C   C7        1.0  0.7387822528532052  0.3804789391235842  0.8005138085167405  1.0000
  C   C8        1.0  0.26121648873245834  0.6195155340312152  0.19948662968253217  1.0000
  C   C9        1.0  0.476802622900074  0.539753562018234  0.6858443407408004  1.0000
  C   C10       1.0  0.5232003552217038  0.46024636881823966  0.3141555040807091  1.0000
  C   C11       1.0  0.594302767813268  0.3689161160612642  0.7497596147961475  1.0000
  C   C12       1.0  0.40569688772235685  0.6310851682160673  0.2502390848761351  1.0000
  C   C13       1.0  0.9177271718888989  0.392007877040811  0.7426154156350293  1.0000
  C   C14       1.0  0.08227166086134474  0.6079893121337036  0.2573846641709849  1.0000
  C   C15       1.0  0.699628708953817  0.3719648913427563  0.9081270624980746  1.0000
  C   C16       1.0  0.30036626077922796  0.6280377186285476  0.09187143730241594  1.0000
  C   C17       1.0  0.6661992806062643  0.9233438589718473  0.8834389203510186  1.0000
  C   C18       1.0  0.33380568346699147  0.07665473387569223  0.1165607954663628  1.0000
  C   C19       1.0  0.0540634849845105  0.3888592709109062  0.7945361536713024  1.0000
  C   C20       1.0  0.9459352300194015  0.6111351590450763  0.20546650395875335  1.0000
  C   C21       1.0  0.6515804601798508  0.8700956181999969  0.7964841145656154  1.0000
  C   C22       1.0  0.34842709485875645  0.1299002421235826  0.20351776814146658  1.0000
  C   C23       1.0  0.9890589803659328  0.9108072645625922  0.7953966983251208  1.0000
  C   C24       1.0  0.010942825729166822  0.08919808496602137  0.20460263517704655  1.0000
  C   C25       1.0  0.8398717100448464  0.9415348116409203  0.8835798320360058  1.0000
  C   C26       1.0  0.16012548369109678  0.05847455080217399  0.11642042282164061  1.0000
  C   C27       1.0  0.835174789028706  0.37112876751963597  0.9591019715221165  1.0000
  C   C28       1.0  0.16482186658031145  0.6288643132047794  0.040899693884803405  1.0000
  C   C29       1.0  0.014685996857849706  0.3776512070334093  0.9018841009929162  1.0000
  C   C30       1.0  0.9853087728248652  0.6223459420992512  0.09811659521461287  1.0000
  N   N1        1.0  0.972525799906535  0.8657673412829253  0.7097655974892448  1.0000
  N   N2        1.0  0.027474616390392677  0.1342379372999929  0.2902369007211476  1.0000
  N   N3        1.0  0.5014307463235141  0.9544926099392299  0.9678775517523875  1.0000
  N   N4        1.0  0.49857086858183663  0.04550729315035799  0.03212323834655711  1.0000
  O   O1        1.0  0.3924470084124961  0.5194922280923178  0.6221114561869215  1.0000
  O   O2        1.0  0.6075587961673036  0.4805104886572451  0.377885399876206  1.0000
  O   O3        1.0  0.21769100543652095  0.10927434835797808  0.5985296977237271  1.0000
  O   O4        1.0  0.7823099753144337  0.8907243340441438  0.4014639762028054  1.0000
  O   O5        1.0  0.46962760254506714  0.8122752548486645  0.422054666498447  1.0000
  O   O6        1.0  0.5303726668650269  0.18772464929324426  0.5779455892574035  1.0000
  O   O7        1.0  0.4584790912533806  0.6930601413063968  0.6973050393308355  1.0000
  O   O8        1.0  0.5415191099012374  0.3069383992043342  0.3026949640121401  1.0000
  O   O9        1.0  0.9450890406538193  0.20234932081478968  0.533804362220458  1.0000
  O   O10       1.0  0.05490319378579037  0.7976532192631323  0.4661967679451635  1.0000
