data_image0
_chemical_formula_structural       Ag4Mo8H24C30N16O26
_chemical_formula_sum              "Ag4 Mo8 H24 C30 N16 O26"
_cell_length_a       9.99900531101452
_cell_length_b       10.798554445723871
_cell_length_c       12.121
_cell_angle_alpha    77.29825522189336
_cell_angle_beta     84.77551497380745
_cell_angle_gamma    84.29248550449111

_space_group_name_H-M_alt    "P 1"
_space_group_IT_number       1

loop_
  _space_group_symop_operation_xyz
  'x, y, z'

loop_
  _atom_site_type_symbol
  _atom_site_label
  _atom_site_symmetry_multiplicity
  _atom_site_fract_x
  _atom_site_fract_y
  _atom_site_fract_z
  _atom_site_occupancy
  Ag  Ag1       1.0  0.37228054114625303  0.0900731564913286  0.6936579027540049  1.0000
  Ag  Ag2       1.0  0.6277215643157701  0.9099267075912393  0.30634254322489346  1.0000
  Ag  Ag3       1.0  0.36972240123855477  0.6064155639902538  0.31354947101213787  1.0000
  Ag  Ag4       1.0  0.6302786175657501  0.3935852525620334  0.6864500450025021  1.0000
  Mo  Mo1       1.0  0.0081992370200012  0.8045759367893481  0.3686375900980181  1.0000
  Mo  Mo2       1.0  0.9918018641703695  0.1954239272932199  0.631362106304138  1.0000
  Mo  Mo3       1.0  0.23017812034419893  0.2483117134417512  0.4245605117327784  1.0000
  Mo  Mo4       1.0  0.7698230632322448  0.7516871981711049  0.5754401900713333  1.0000
  Mo  Mo5       1.0  0.0410551280094396  0.8964244968389679  0.6355945336828555  1.0000
  Mo  Mo6       1.0  0.9589449689092857  0.1035753672436073  0.3644052381569907  1.0000
  Mo  Mo7       1.0  0.28379008123435767  0.9403295410571388  0.4451388302924002  1.0000
  Mo  Mo8       1.0  0.7162110199560131  0.05967032302542919  0.5548600410953242  1.0000
  H   H1        1.0  0.21028887075161148  0.1268508697939268  0.9071550637647262  1.0000
  H   H2        1.0  0.789711143781048  0.8731499467583674  0.09284452768761037  1.0000
  H   H3        1.0  0.17388217058556418  0.0194989601100843  0.1131164630538493  1.0000
  H   H4        1.0  0.8261178439470951  0.9805018564422028  0.8868831283984876  1.0000
  H   H5        1.0  0.30986775201382233  0.8183067402744513  0.18611815347615132  1.0000
  H   H6        1.0  0.6901321801327711  0.181695028747562  0.8138820826031009  1.0000
  H   H7        1.0  0.5164526506764275  0.854169130176018  0.8525744467249012  1.0000
  H   H8        1.0  0.4835473638562319  0.145831686376269  0.14742596974186742  1.0000
  H   H9        1.0  0.4971538968977711  0.357331397605499  0.24429658493574638  1.0000
  H   H10       1.0  0.502842940047813  0.6426713238862334  0.7557028720546343  1.0000
  H   H11       1.0  0.6692792184835382  0.3304974681808517  0.1847441032495851  1.0000
  H   H12       1.0  0.3307178656202439  0.6695023959017234  0.8152558949033448  1.0000
  H   H13       1.0  0.4942649220855556  0.3401907525224033  0.45761876454911743  1.0000
  H   H14       1.0  0.5057351748331768  0.6598091115601648  0.5423818323051749  1.0000
  H   H15       1.0  0.8552365273430097  0.5094103328759658  0.46145536592703  1.0000
  H   H16       1.0  0.1447635695757228  0.4905895312066022  0.5385419308695063  1.0000
  H   H17       1.0  0.8215622751117236  0.6390643210561748  0.8584537319021592  1.0000
  H   H18       1.0  0.1784368999214223  0.3609345905566741  0.14154547074846144  1.0000
  H   H19       1.0  0.0220208740697174  0.5182759210307495  0.7798107338879133  1.0000
  H   H20       1.0  0.9779783009634287  0.4817229905820994  0.2201909438060241  1.0000
  H   H21       1.0  0.07628037060803189  0.2907728135642387  0.8732599047422624  1.0000
  H   H22       1.0  0.9237197263107008  0.7092270505183365  0.12674069211202268  1.0000
  H   H23       1.0  0.9320661165381875  0.19346945942755409  0.04684345567617502  1.0000
  H   H24       1.0  0.06793406276660359  0.8065294521852947  0.9531573215656339  1.0000
  C   C1        1.0  0.2702019988596689  0.0404542464222146  0.9439090252864946  1.0000
  C   C2        1.0  0.7297970937874112  0.9595456176603534  0.056089996976609775  1.0000
  C   C3        1.0  0.24912124187841295  0.9795655787073371  0.05692217276476438  1.0000
  C   C4        1.0  0.7508769288830804  0.0204333329055117  0.9430771053235533  1.0000
  C   C5        1.0  0.3256148531633372  0.8665931452051296  0.09764640748748833  1.0000
  C   C6        1.0  0.6743832352120974  0.1334067188774384  0.9023526902133199  1.0000
  C   C7        1.0  0.4227357318476663  0.8183543637604558  0.023987276958550234  1.0000
  C   C8        1.0  0.5772642826849931  0.1816464527918313  0.9760123144937866  1.0000
  C   C9        1.0  0.4400448726581414  0.8876046272307505  0.91175366372579  1.0000
  C   C10       1.0  0.5599551418745179  0.1123961893215437  0.0882467527409787  1.0000
  C   C11       1.0  0.5056357227369616  0.698321272223076  0.05594172915079546  1.0000
  C   C12       1.0  0.49436420940963177  0.3016804967989302  0.9440568568995857  1.0000
  C   C13       1.0  0.5964235749043498  0.3948396551834179  0.2232775617766052  1.0000
  C   C14       1.0  0.4035734268133595  0.6051611613688692  0.7767222559888083  1.0000
  C   C15       1.0  0.5867591304216403  0.387436108049009  0.4327419576706504  1.0000
  C   C16       1.0  0.4132398798393736  0.6125647085032853  0.5672577092193762  1.0000
  C   C17       1.0  0.7715773031436226  0.4718201629021194  0.43221131758585335  1.0000
  C   C18       1.0  0.2284227113890367  0.5281806536501676  0.5677857988231666  1.0000
  C   C19       1.0  0.6577027302985526  0.5486720872086082  0.03805893923774312  1.0000
  C   C20       1.0  0.34229627996246137  0.45132872934367896  0.9619407276522836  1.0000
  C   C21       1.0  0.774084779846575  0.4771863773052161  0.9920839136415369  1.0000
  C   C22       1.0  0.22591439518657097  0.5228125343076329  0.007916939037961906  1.0000
  C   C23       1.0  0.8495656708638675  0.5401865344721557  0.8968187877351569  1.0000
  C   C24       1.0  0.1504345084409238  0.4598123771407002  0.1031811644922129  1.0000
  C   C25       1.0  0.9599988986772772  0.4727240566665074  0.853247344327265  1.0000
  C   C26       1.0  0.04000027635586891  0.5272748549463486  0.14675350835223366  1.0000
  C   C27       1.0  0.9914546135854534  0.346298940837471  0.9065908239943923  1.0000
  C   C28       1.0  0.008544643833758388  0.6536990183056588  0.09341185910150068  1.0000
  C   C29       1.0  0.9108759845357993  0.2918214827260783  0.0016773872638537802  1.0000
  C   C30       1.0  0.08912427715506506  0.7081764764170515  0.9983252203943423  1.0000
  N   N1        1.0  0.36472813393131515  0.995586119399583  0.8723419172264073  1.0000
  N   N2        1.0  0.6352718806013442  0.0044146971527113  0.12765849924036132  1.0000
  N   N3        1.0  0.608744789982083  0.6638209140212652  0.9849422878298243  1.0000
  N   N4        1.0  0.3912553069366425  0.3361789500613028  0.015056658995582874  1.0000
  N   N5        1.0  0.4872006460594633  0.6092072527398997  0.15176898190608773  1.0000
  N   N6        1.0  0.5127993684731962  0.3907935638123945  0.848230609546242  1.0000
  N   N7        1.0  0.5842653011964813  0.5135164298393633  0.1388885467032992  1.0000
  N   N8        1.0  0.4157347957222441  0.4864834342432118  0.8611104001221149  1.0000
  N   N9        1.0  0.6448808324444357  0.4149472434446508  0.32647266216417836  1.0000
  N   N10       1.0  0.35511817781657123  0.5850535731076363  0.6735261797114163  1.0000
  N   N11       1.0  0.7627722935049659  0.4690865748054094  0.3244312132264469  1.0000
  N   N12       1.0  0.2372256300983295  0.5309151942166038  0.6755666986848895  1.0000
  N   N13       1.0  0.6651163871769226  0.4228251204996809  0.501754481747831  1.0000
  N   N14       1.0  0.33488370974180975  0.5771747435828871  0.4982436400631443  1.0000
  N   N15       1.0  0.803643107027021  0.35517691109861  0.04391293840344448  1.0000
  N   N16       1.0  0.19635698989170436  0.644822952983958  0.9560876584508408  1.0000
  O   O1        1.0  0.13448255006176169  0.7059200756501127  0.3192821684887761  1.0000
  O   O2        1.0  0.8655186335146822  0.2940788359627362  0.6807177083008967  1.0000
  O   O3        1.0  0.1477194913582167  0.8225395157106163  0.518828695139213  1.0000
  O   O4        1.0  0.8522806055605087  0.1774603483719517  0.48117107670064035  1.0000
  O   O5        1.0  0.888296471244196  0.8289258251839584  0.2712540760648068  1.0000
  O   O6        1.0  0.11170446517404997  0.1710759438380549  0.7287469095911945  1.0000
  O   O7        1.0  0.07426476208961927  0.3111147093766178  0.5076033232579462  1.0000
  O   O8        1.0  0.9257363391007587  0.6888851547059502  0.49239637314421003  1.0000
  O   O9        1.0  0.2855870322693619  0.3794953679924546  0.3302016159039738  1.0000
  O   O10       1.0  0.7144141513070821  0.6205035436204014  0.6698007359290088  1.0000
  O   O11       1.0  0.3394574371070505  0.22470189401966678  0.5343394038594624  1.0000
  O   O12       1.0  0.660542824583814  0.7752960651234629  0.4656632037987337  1.0000
  O   O13       1.0  0.30731814369030985  0.10854630671286  0.36019087047768755  1.0000
  O   O14       1.0  0.6926830398861341  0.8914526048999961  0.6398090063119852  1.0000
  O   O15       1.0  0.10963214448128156  0.0596912773592706  0.5234661671703122  1.0000
  O   O16       1.0  0.8903689567090961  0.9403085867232974  0.47653435424628304  1.0000
  O   O17       1.0  0.1499479955914467  0.8746700884316637  0.7393917805823732  1.0000
  O   O18       1.0  0.8500521013272857  0.1253297756509113  0.2606071662430409  1.0000
  O   O19       1.0  0.0688157855401528  0.22777265639730618  0.3208401668238637  1.0000
  O   O20       1.0  0.9311864023079437  0.7722262552155499  0.6791588095136731  1.0000
  O   O21       1.0  0.0889233330402277  0.9690988889530557  0.324572552708716  1.0000
  O   O22       1.0  0.9110777681501503  0.0309009751295193  0.6754271436934403  1.0000
  O   O23       1.0  0.3816629845964954  0.9264596769929057  0.5571740916674416  1.0000
  O   O24       1.0  0.6183381989799485  0.0735392346199433  0.44282578512223136  1.0000
  O   O25       1.0  0.3741972775677239  0.8541376986752596  0.3544238705389091  1.0000
  O   O26       1.0  0.6258048278942993  0.1458621654073156  0.6455757504255573  1.0000
