data_image0
_chemical_formula_structural       UH8C14O6
_chemical_formula_sum              "U1 H8 C14 O6"
_cell_length_a       5.279557032794968
_cell_length_b       8.523221264684826
_cell_length_c       8.523175564018725
_cell_angle_alpha    117.24635328670882
_cell_angle_beta     97.9875591317905
_cell_angle_gamma    97.98732993171419

_space_group_name_H-M_alt    "P 1"
_space_group_IT_number       1

loop_
  _space_group_symop_operation_xyz
  'x, y, z'

loop_
  _atom_site_type_symbol
  _atom_site_label
  _atom_site_symmetry_multiplicity
  _atom_site_fract_x
  _atom_site_fract_y
  _atom_site_fract_z
  _atom_site_occupancy
  U   U1        1.0  0.9999938781760631  0.5000260281878254  0.5000262212214182  1.0000
  H   H1        1.0  0.7924714397989091  0.8035633800022451  0.9348409114187815  1.0000
  H   H2        1.0  0.20753659305348995  0.06516206181282058  0.1964403405052195  1.0000
  H   H3        1.0  0.2075399579041601  0.1964388444591307  0.06516068263773889  1.0000
  H   H4        1.0  0.7924767036960458  0.9348401693364607  0.8035602371814717  1.0000
  H   H5        1.0  0.7931561559087965  0.6379605703457683  0.10545911789723295  1.0000
  H   H6        1.0  0.2068412176361676  0.894544216189274  0.362039213166909  1.0000
  H   H7        1.0  0.2068420606402057  0.3620361143124597  0.8945400892042555  1.0000
  H   H8        1.0  0.793160561118725  0.1054578831010033  0.6379603711428246  1.0000
  C   C1        1.0  0.49999653869101474  0.7547365125510126  0.24526024260227783  1.0000
  C   C2        1.0  0.5000002913081047  0.2452560129510886  0.7547299412702131  1.0000
  C   C3        1.0  0.5000066177738489  0.9491955772747078  0.050811894759362985  1.0000
  C   C4        1.0  0.5000041643361044  0.05081072321191019  0.9491938292327048  1.0000
  C   C5        1.0  0.49999252699861774  0.6534331806330866  0.34655747126681286  1.0000
  C   C6        1.0  0.49999474591023557  0.34655926556370514  0.6534342486568504  1.0000
  C   C7        1.0  0.6634684987379841  0.8265190449458256  0.02836751296555895  1.0000
  C   C8        1.0  0.3365387851295694  0.9716404703192011  0.17348527304274328  1.0000
  C   C9        1.0  0.3365424986397087  0.17348183899595424  0.9716346191459377  1.0000
  C   C10       1.0  0.6634695738927049  0.028364391228350896  0.8265149137781833  1.0000
  C   C11       1.0  0.6650712690711272  0.7319248513891238  0.12433225932679179  1.0000
  C   C12       1.0  0.3349289286140475  0.8756724067692757  0.26807527958339944  1.0000
  C   C13       1.0  0.3349303864840465  0.2680705367025098  0.875667816955321  1.0000
  C   C14       1.0  0.6650719670128638  0.12432695032744329  0.7319206531056537  1.0000
  O   O1        1.0  0.6803421364915394  0.5671379444974534  0.34545353120992667  1.0000
  O   O2        1.0  0.3196398371155666  0.6545400382565845  0.43285330118151677  1.0000
  O   O3        1.0  0.3196488017197439  0.43285999277436094  0.6545444755852755  1.0000
  O   O4        1.0  0.680343976167812  0.34545368921819625  0.5671363676288691  1.0000
  O   O5        1.0  0.9892831235587778  0.2945199610441804  0.29452568856750355  1.0000
  O   O6        1.0  0.010695095681725747  0.7054738228098643  0.7054729390156638  1.0000
