data_image0
_chemical_formula_structural       H28Pb4C40N12O20
_chemical_formula_sum              "H28 Pb4 C40 N12 O20"
_cell_length_a       6.818054055
_cell_length_b       12.254218060410501
_cell_length_c       13.714960638825538
_cell_angle_alpha    112.86536510699993
_cell_angle_beta     90.00456430811306
_cell_angle_gamma    89.99893968691993

_space_group_name_H-M_alt    "P 1"
_space_group_IT_number       1

loop_
  _space_group_symop_operation_xyz
  'x, y, z'

loop_
  _atom_site_type_symbol
  _atom_site_label
  _atom_site_symmetry_multiplicity
  _atom_site_fract_x
  _atom_site_fract_y
  _atom_site_fract_z
  _atom_site_occupancy
  H   H1        1.0  0.3669119435575752  0.5985934313604345  0.5136643937193526  1.0000
  H   H2        1.0  0.8668847265986062  0.9013839885726114  0.4863217702242366  1.0000
  H   H3        1.0  0.6331117787091288  0.40140195333687256  0.4863407776739308  1.0000
  H   H4        1.0  0.13304805835076652  0.09856712119921701  0.5136599831103723  1.0000
  H   H5        1.0  0.3393727405932624  0.4956169833041386  0.3973077965071354  1.0000
  H   H6        1.0  0.8393270897475276  0.0043698268888121995  0.602672883542418  1.0000
  H   H7        1.0  0.6606729800303272  0.5043961275128979  0.6026882277992556  1.0000
  H   H8        1.0  0.16057049341377197  0.9955830605178805  0.3973021966956267  1.0000
  H   H9        1.0  0.19382978263324455  0.3967278314948786  0.17564537460003748  1.0000
  H   H10       1.0  0.6937283286518295  0.10327136174028338  0.8243578402100127  1.0000
  H   H11       1.0  0.8062174057179733  0.6032480723369459  0.8243493762218534  1.0000
  H   H12       1.0  0.30616339325958825  0.8967558983092728  0.17566716613774958  1.0000
  H   H13       1.0  0.2781745526217634  0.5996094983704197  0.9474168508504944  1.0000
  H   H14       1.0  0.7781902619594591  0.9003944799055006  0.05259094459081848  1.0000
  H   H15       1.0  0.7218139695668954  0.40038056868171173  0.05259084599590121  1.0000
  H   H16       1.0  0.22183492588063564  0.09961862582506602  0.947410910994435  1.0000
  H   H17       1.0  0.3805373953000455  0.4778178707626353  0.7623248890606078  1.0000
  H   H18       1.0  0.880546650135571  0.022189286224119104  0.23768911576691207  1.0000
  H   H19       1.0  0.6194437922373979  0.5221872604075912  0.23767856797473996  1.0000
  H   H20       1.0  0.11948440422757052  0.9778229351396776  0.7623109739976143  1.0000
  H   H21       1.0  0.36463372786252535  0.16604892831939821  0.8330155072379596  1.0000
  H   H22       1.0  0.8645306536168391  0.3339644243212163  0.1670050270557439  1.0000
  H   H23       1.0  0.6354647943468096  0.8339491215585824  0.1669811123302054  1.0000
  H   H24       1.0  0.1354519995286623  0.6660495702267824  0.8329934919812273  1.0000
  H   H25       1.0  0.2682826274090857  0.2867933877240461  0.018757299228084907  1.0000
  H   H26       1.0  0.7681816086550981  0.21321554244691043  0.9812551348718799  1.0000
  H   H27       1.0  0.7319024316192115  0.713194023048736  0.9812487447054464  1.0000
  H   H28       1.0  0.23176877871792814  0.7867975581971862  0.01875255199222886  1.0000
  Pb  Pb1       1.0  0.92973530334627  0.6153827720165168  0.4440097790153388  1.0000
  Pb  Pb2       1.0  0.42969251949574533  0.8846229997894782  0.5559731205829905  1.0000
  Pb  Pb3       1.0  0.0702913522766337  0.384626784802414  0.5559981336644597  1.0000
  Pb  Pb4       1.0  0.5702211977319039  0.11537505835401163  0.4440140231570311  1.0000
  C   C1        1.0  0.055695577466877914  0.7920567408506329  0.30668890158094086  1.0000
  C   C2        1.0  0.5556962292910583  0.7079339674730747  0.693297508918583  1.0000
  C   C3        1.0  0.9443032103650851  0.20791561788441024  0.6933075328763607  1.0000
  C   C4        1.0  0.4442922924033256  0.2920809031761848  0.3067122517672444  1.0000
  C   C5        1.0  0.11021905324158611  0.6701234904271871  0.23012914273211038  1.0000
  C   C6        1.0  0.610193598109575  0.8298698659103606  0.7698683965084285  1.0000
  C   C7        1.0  0.8898061357687085  0.3298532933207454  0.7698724762794952  1.0000
  C   C8        1.0  0.3897597231415162  0.1701494322950268  0.23014363309228966  1.0000
  C   C9        1.0  0.1675147443525802  0.48496736756526815  0.17807740793789148  1.0000
  C   C10       1.0  0.6674521144860464  0.015029170026345198  0.8219234250494267  1.0000
  C   C11       1.0  0.8325251114053672  0.5150111887310586  0.8219233692560123  1.0000
  C   C12       1.0  0.33247627335476443  0.984991897548383  0.17809140728286366  1.0000
  C   C13       1.0  0.2615969709932955  0.45080411216534344  0.9926378774066151  1.0000
  C   C14       1.0  0.7615570150687605  0.04919950671852291  0.007369793047892905  1.0000
  C   C15       1.0  0.7384692858088188  0.5491832986074385  0.0073681665269091975  1.0000
  C   C16       1.0  0.23842417253094791  0.9508135958330044  0.9926357070866486  1.0000
  C   C17       1.0  0.29408857175600644  0.5043577442194689  0.9209121131659757  1.0000
  C   C18       1.0  0.7940756390916521  0.9956480034257994  0.0790984850069165  1.0000
  C   C19       1.0  0.7059322172764553  0.4956340966526724  0.07909328404300456  1.0000
  C   C20       1.0  0.20593488217730999  0.0043659860357295  0.9209058653089102  1.0000
  C   C21       1.0  0.3506139055685153  0.4356385162668985  0.8176664808191063  1.0000
  C   C22       1.0  0.8506026180534649  0.0643695263582416  0.18234783200941962  1.0000
  C   C23       1.0  0.6493878154309272  0.5643604160704284  0.18233409129934589  1.0000
  C   C24       1.0  0.1494137697783486  0.9356453500132886  0.8176553684876992  1.0000
  C   C25       1.0  0.3751477098359075  0.3131844672523485  0.7856628915193368  1.0000
  C   C26       1.0  0.8751179993719518  0.1868253479211859  0.21435057949148728  1.0000
  C   C27       1.0  0.6248613433293002  0.6868135864404863  0.21432935458967955  1.0000
  C   C28       1.0  0.12488958821792552  0.8131913003629307  0.7856525080977831  1.0000
  C   C29       1.0  0.4344147908144222  0.2371400837208029  0.6748380359309323  1.0000
  C   C30       1.0  0.9344184730321174  0.2628741628237066  0.3251733305356339  1.0000
  C   C31       1.0  0.5655297257078615  0.7628632958827171  0.32514220889684253  1.0000
  C   C32       1.0  0.0656052472042461  0.7371504625639816  0.6748252399641074  1.0000
  C   C33       1.0  0.3454386711060097  0.261319516125667  0.8592570162964961  1.0000
  C   C34       1.0  0.8453643239706565  0.23869029841205963  0.1407571836241885  1.0000
  C   C35       1.0  0.6546393173454205  0.7386767624755423  0.14073898726965686  1.0000
  C   C36       1.0  0.154621263147277  0.7613236929568925  0.8592449799620708  1.0000
  C   C37       1.0  0.289275658145833  0.3287576964228478  0.9625325284167232  1.0000
  C   C38       1.0  0.7892005650075476  0.17124946310713804  0.0374785607713761  1.0000
  C   C39       1.0  0.71084046586968  0.6712332594467156  0.03747183188139755  1.0000
  C   C40       1.0  0.21077035584993103  0.8287636388085744  0.9625276682730187  1.0000
  N   N1        1.0  0.10969486175113734  0.5771090191591312  0.2621095422759581  1.0000
  N   N2        1.0  0.6096427027678359  0.9228834515400309  0.7378876889635748  1.0000
  N   N3        1.0  0.8903259269032517  0.4228659945836526  0.7378900029139286  1.0000
  N   N4        1.0  0.39028128514714683  0.0771393866756682  0.2621284882805881  1.0000
  N   N5        1.0  0.20105562884362632  0.5209755458092075  0.09728516430320158  1.0000
  N   N6        1.0  0.70101442737311  0.9790248918205862  0.90271921240452  1.0000
  N   N7        1.0  0.7990018279476417  0.4790083211384015  0.9027211054460195  1.0000
  N   N8        1.0  0.29894769386636716  0.0209917501054377  0.0972911642833196  1.0000
  N   N9        1.0  0.16528861407503834  0.6395383069371334  0.12972913143669018  1.0000
  N   N10       1.0  0.665263968377687  0.8604594750491189  0.8702728634483066  1.0000
  N   N11       1.0  0.8347615093623023  0.36044555937466777  0.8702778672223913  1.0000
  N   N12       1.0  0.33470988602471874  0.1395553975075643  0.1297347105079538  1.0000
  O   O1        1.0  0.0093143307048962  0.7970769257473975  0.39939824948811514  1.0000
  O   O2        1.0  0.5093237372396545  0.7029173295805221  0.6005842906464309  1.0000
  O   O3        1.0  0.9906903241970115  0.2028980886311871  0.6006005667919112  1.0000
  O   O4        1.0  0.4906574509814092  0.29709222660260076  0.399424350943228  1.0000
  O   O5        1.0  0.061179618120291906  0.8783325616321278  0.27927714384049546  1.0000
  O   O6        1.0  0.5611903938069531  0.6216546066812612  0.7207051190155767  1.0000
  O   O7        1.0  0.9387971689091402  0.1216380277335674  0.7207164878852196  1.0000
  O   O8        1.0  0.4388347951044693  0.3783593789654134  0.2793036047593915  1.0000
  O   O9        1.0  0.4297101236081248  0.2833106137360915  0.6050893024542816  1.0000
  O   O10       1.0  0.9297714984917037  0.2167054034493887  0.39492340892415  1.0000
  O   O11       1.0  0.5701610584999913  0.7166954215109769  0.394893324196218  1.0000
  O   O12       1.0  0.070283022791692  0.7833245338612045  0.6050791963111948  1.0000
  O   O13       1.0  0.48873560581725434  0.1317884606485293  0.6550330462511624  1.0000
  O   O14       1.0  0.9887122254420931  0.36822933544342373  0.3449715342109982  1.0000
  O   O15       1.0  0.5112367753635212  0.8682167042195559  0.34493177856176516  1.0000
  O   O16       1.0  0.0112850927038011  0.6317970701223601  0.6550174475527583  1.0000
  O   O17       1.0  0.26967867564484754  0.543243615963263  0.4640301544013568  1.0000
  O   O18       1.0  0.7696460824256735  0.9567284964975471  0.5359468724376342  1.0000
  O   O19       1.0  0.7303523788274263  0.4567526613663304  0.53596730698451  1.0000
  O   O20       1.0  0.23027643373829684  0.0432252809981932  0.4640234134324216  1.0000
