data_image0
_chemical_formula_structural       Cu4H32C36S8I4N16
_chemical_formula_sum              "Cu4 H32 C36 S8 I4 N16"
_cell_length_a       7.570942385371716
_cell_length_b       8.581403900503114
_cell_length_c       20.24615658616509
_cell_angle_alpha    90.00021239079877
_cell_angle_beta     90.0003021818916
_cell_angle_gamma    112.02609532756912

_space_group_name_H-M_alt    "P 1"
_space_group_IT_number       1

loop_
  _space_group_symop_operation_xyz
  'x, y, z'

loop_
  _atom_site_type_symbol
  _atom_site_label
  _atom_site_symmetry_multiplicity
  _atom_site_fract_x
  _atom_site_fract_y
  _atom_site_fract_z
  _atom_site_occupancy
  Cu  Cu1       1.0  0.5391617513523385  0.5787955171606427  0.568032735161836  1.0000
  Cu  Cu2       1.0  0.4608366522724978  0.9212064302736848  0.06802588975750723  1.0000
  Cu  Cu3       1.0  0.46082666306503467  0.42120695549079556  0.4319726449104311  1.0000
  Cu  Cu4       1.0  0.5391711551981685  0.07879205259982311  0.9319725754399076  1.0000
  H   H1        1.0  0.9440237518507713  0.6696647458916161  0.5307594868294034  1.0000
  H   H2        1.0  0.05598431264365907  0.8303301685267428  0.03074869225695661  1.0000
  H   H3        1.0  0.055967282922097204  0.3303225472100237  0.4692434236306157  1.0000
  H   H4        1.0  0.9440305141713023  0.16967834282779387  0.9692433519830818  1.0000
  H   H5        1.0  0.2508963929940364  0.9228844842134905  0.5436621157687328  1.0000
  H   H6        1.0  0.7491007572012335  0.5771183341941465  0.043658369848806416  1.0000
  H   H7        1.0  0.7491064668237754  0.07708753366450341  0.4563427703768924  1.0000
  H   H8        1.0  0.2509016959689133  0.4229041954720074  0.9563405892804797  1.0000
  H   H9        1.0  0.23090212374877692  0.17480245239648437  0.6036127085067662  1.0000
  H   H10       1.0  0.7690876071762246  0.32520886366363294  0.10361280588241334  1.0000
  H   H11       1.0  0.7691141126422636  0.8251820532853671  0.3963911898198873  1.0000
  H   H12       1.0  0.2308955569179645  0.6748088158266867  0.8963881289066509  1.0000
  H   H13       1.0  0.773507603850689  0.17334938303255848  0.6786354240135568  1.0000
  H   H14       1.0  0.2264817537167616  0.32664676800084885  0.17863535881339496  1.0000
  H   H15       1.0  0.22650787579326692  0.8266515454868185  0.3213679804027549  1.0000
  H   H16       1.0  0.7735015048906675  0.6733469193965291  0.8213660698800712  1.0000
  H   H17       1.0  0.5321420339555443  0.16426004133576552  0.6787324638281051  1.0000
  H   H18       1.0  0.4678456795057144  0.3357323403508659  0.17873440559409207  1.0000
  H   H19       1.0  0.4678714685250254  0.835733331617291  0.3212729162645048  1.0000
  H   H20       1.0  0.5321371439778346  0.664266402348261  0.8212689987860319  1.0000
  H   H21       1.0  0.12358653481015124  0.9728578803997294  0.9312768183287192  1.0000
  H   H22       1.0  0.8764046661907157  0.5271501751970719  0.4312801885157074  1.0000
  H   H23       1.0  0.8764142532273524  0.027130573919833995  0.0687191772497755  1.0000
  H   H24       1.0  0.12357991690414849  0.4728586507273461  0.5687232158732629  1.0000
  H   H25       1.0  0.8776542277175851  0.9680038789867211  0.8473313125069314  1.0000
  H   H26       1.0  0.12234528504104243  0.5320317377886424  0.3473340757482363  1.0000
  H   H27       1.0  0.12236092070577337  0.0319932648198886  0.15266171956739072  1.0000
  H   H28       1.0  0.8776428077679412  0.46798210241072274  0.6526703164897472  1.0000
  H   H29       1.0  0.98450016403509  0.010890179322409198  0.7268674060104277  1.0000
  H   H30       1.0  0.015513212219502696  0.48917470834789606  0.22686958723939915  1.0000
  H   H31       1.0  0.015516838522700024  0.9890930556246431  0.273127107818958  1.0000
  H   H32       1.0  0.9844780591767944  0.5108403614906007  0.7731348050028048  1.0000
  C   C1        1.0  0.9481437290146247  0.7845736382699328  0.5550807300535825  1.0000
  C   C2        1.0  0.05186197427495642  0.7154242300802878  0.055075200807635824  1.0000
  C   C3        1.0  0.05185399402017051  0.2154198987133853  0.44491921689242303  1.0000
  C   C4        1.0  0.9481483590379581  0.2845830653363635  0.9449203008731291  1.0000
  C   C5        1.0  0.11642284336866748  0.923395230669371  0.562416150114089  1.0000
  C   C6        1.0  0.8835784090424992  0.5766103819714911  0.06241466478009272  1.0000
  C   C7        1.0  0.883580574611855  0.0765931963408448  0.43758429075533223  1.0000
  C   C8        1.0  0.11642283318531105  0.4234033214381015  0.9375823186581731  1.0000
  C   C9        1.0  0.1043464818223683  0.0614824578412296  0.5954015545487367  1.0000
  C   C10       1.0  0.8956507570792878  0.43853116915411056  0.09540207757385842  1.0000
  C   C11       1.0  0.8956641731483188  0.9385134700680026  0.40459987417537496  1.0000
  C   C12       1.0  0.10434237791059783  0.5614851439599703  0.9045978693830394  1.0000
  C   C13       1.0  0.7827714672807032  0.9236452890477409  0.6090197771280047  1.0000
  C   C14       1.0  0.21722644084754714  0.5763573443570849  0.10901983973658964  1.0000
  C   C15       1.0  0.21723820384774228  0.076354437153995  0.3909806637558831  1.0000
  C   C16       1.0  0.7827667981887884  0.4236501288599399  0.890982082897921  1.0000
  C   C17       1.0  0.6245967456680289  0.0955642946028803  0.6899623001798008  1.0000
  C   C18       1.0  0.37539656561359175  0.4044345288295688  0.18996216499788696  1.0000
  C   C19       1.0  0.3754232275075964  0.9044378498786826  0.3100406103212238  1.0000
  C   C20       1.0  0.6245846117889329  0.5955604429026026  0.8100397576151653  1.0000
  C   C21       1.0  0.3774585836952297  0.0241993665650568  0.7961535013310769  1.0000
  C   C22       1.0  0.6225364248659986  0.47582140601601  0.29615398983374774  1.0000
  C   C23       1.0  0.622552610426041  0.9757826661291701  0.2038459517003659  1.0000
  C   C24       1.0  0.37745243417884916  0.5241911635052644  0.7038479327996401  1.0000
  C   C25       1.0  0.1561095424617491  0.9858027687210154  0.878633783842432  1.0000
  C   C26       1.0  0.8438875215131671  0.5142232919035264  0.37863657313504023  1.0000
  C   C27       1.0  0.8438967229348576  0.014183103256066002  0.12136122389828335  1.0000
  C   C28       1.0  0.156096957550055  0.4857943739300977  0.6213663373390333  1.0000
  C   C29       1.0  0.02138091434589743  0.9845983663924259  0.8320751735927491  1.0000
  C   C30       1.0  0.9786196083605246  0.5154369864798766  0.3320767689445675  1.0000
  C   C31       1.0  0.9786318122421704  0.015381124941569598  0.16791884630859508  1.0000
  C   C32       1.0  0.021365854535069725  0.4845768810531368  0.6679261415279216  1.0000
  C   C33       1.0  0.07993692794319432  0.006095982705744498  0.766480380517834  1.0000
  C   C34       1.0  0.9200661624039908  0.4939532548669519  0.2664805381593355  1.0000
  C   C35       1.0  0.9200786461202028  0.9938809536437245  0.23351413330567547  1.0000
  C   C36       1.0  0.07992039787895067  0.5060631266440366  0.7335233601578681  1.0000
  S   S1        1.0  0.5585913333931956  0.9134759181008079  0.6363906529423817  1.0000
  S   S2        1.0  0.441404482447652  0.5865120393436172  0.13638577261189516  1.0000
  S   S3        1.0  0.44141527268316594  0.0865288907241819  0.36360880009995367  1.0000
  S   S4        1.0  0.5585863347040244  0.41347778136029223  0.8636121986405745  1.0000
  S   S5        1.0  0.6138872825383572  0.05316286378847219  0.7777369436321994  1.0000
  S   S6        1.0  0.386102637215032  0.44684376622132754  0.2777363959671178  1.0000
  S   S7        1.0  0.3861255576738145  0.9468229398808176  0.2222649790081236  1.0000
  S   S8        1.0  0.6138821634368341  0.5531625320481693  0.7222655266576228  1.0000
  I   I1        1.0  0.6304588628682094  0.3233027244898139  0.5338385109822286  1.0000
  I   I2        1.0  0.3695447038582813  0.176706026101904  0.03383607245681471  1.0000
  I   I3        1.0  0.3695345937448806  0.6767022210884902  0.46616390557166926  1.0000
  I   I4        1.0  0.6304650807609632  0.8233000123257596  0.9661589353015859  1.0000
  N   N1        1.0  0.7799487419162716  0.7815232450641432  0.5783689200398074  1.0000
  N   N2        1.0  0.220053699666657  0.7184725186257166  0.07836424615467762  1.0000
  N   N3        1.0  0.2200524908375669  0.2184753061981652  0.42163250867611174  1.0000
  N   N4        1.0  0.7799497278075831  0.2815310605479836  0.921633725120707  1.0000
  N   N5        1.0  0.33672724115480424  0.0101100782560835  0.8620015017253241  1.0000
  N   N6        1.0  0.6632667754985208  0.4899004341127764  0.3620025901502971  1.0000
  N   N7        1.0  0.6632797905319734  0.9898745230874653  0.13799646954075234  1.0000
  N   N8        1.0  0.33672153485264994  0.5101108784195176  0.6379988385607264  1.0000
  N   N9        1.0  0.9382627432530695  0.062165558517499185  0.6182561608936867  1.0000
  N   N10       1.0  0.061725303251328995  0.437838442149129  0.11825836928189666  1.0000
  N   N11       1.0  0.061744515528857735  0.9378316673710642  0.3817423043022786  1.0000
  N   N12       1.0  0.93825741619564  0.5621691404551543  0.8817440472624228  1.0000
  N   N13       1.0  0.2565432168842889  0.0226025707814941  0.7480805439813454  1.0000
  N   N14       1.0  0.7434574244126962  0.47744764933736417  0.24808030368609488  1.0000
  N   N15       1.0  0.7434697273002796  0.9773743929299812  0.2519159455230097  1.0000
  N   N16       1.0  0.2565339605040223  0.5225737327513685  0.7519216189560752  1.0000
