data_image0
_chemical_formula_structural       FeH14C18N12
_chemical_formula_sum              "Fe1 H14 C18 N12"
_cell_length_a       7.162329074698894
_cell_length_b       8.04148344449827
_cell_length_c       9.586389177721061
_cell_angle_alpha    65.00491722244848
_cell_angle_beta     66.76109496227605
_cell_angle_gamma    72.71172550872573

_space_group_name_H-M_alt    "P 1"
_space_group_IT_number       1

loop_
  _space_group_symop_operation_xyz
  'x, y, z'

loop_
  _atom_site_type_symbol
  _atom_site_label
  _atom_site_symmetry_multiplicity
  _atom_site_fract_x
  _atom_site_fract_y
  _atom_site_fract_z
  _atom_site_occupancy
  Fe  Fe1       1.0  0.009156629685591597  0.0020610107102002  0.4745572269018724  1.0000
  H   H1        1.0  0.8548342861009883  0.33606871867089433  0.6537787778102812  1.0000
  H   H2        1.0  0.15044492011234922  0.6536373251838298  0.34565083823981985  1.0000
  H   H3        1.0  0.7386934290794682  0.4983591989392052  0.8544607580681287  1.0000
  H   H4        1.0  0.27217142549915946  0.5025953849624755  0.1374952074436991  1.0000
  H   H5        1.0  0.6262745201692039  0.3248782713503005  0.14784063057743424  1.0000
  H   H6        1.0  0.3824729546232035  0.6869186220865655  0.8451983046034144  1.0000
  H   H7        1.0  0.6358472622356715  0.9828491994030201  0.257129763245146  1.0000
  H   H8        1.0  0.3634263392853184  0.029655284555659002  0.7473536758179337  1.0000
  H   H9        1.0  0.5919724467662135  0.6073219692294386  0.22092424373828828  1.0000
  H   H10       1.0  0.3979071159529892  0.4015552566483435  0.8044599956688573  1.0000
  H   H11       1.0  0.7985034082943302  0.6393607509179303  0.26274952028165893  1.0000
  H   H12       1.0  0.21460247573094898  0.3593597302000404  0.7450877907741003  1.0000
  H   H13       1.0  0.8524048024300297  0.5024101836704347  0.1428633458806345  1.0000
  H   H14       1.0  0.12967352691005365  0.49708799963218553  0.8696710264060172  1.0000
  C   C1        1.0  0.5933202463892469  0.2481725396946146  0.46100329671676127  1.0000
  C   C2        1.0  0.40717825108635697  0.7467240511723574  0.5272226502387554  1.0000
  C   C3        1.0  0.28240440666360195  0.2447541259680861  0.4569321213431365  1.0000
  C   C4        1.0  0.718226942194505  0.7502855098087123  0.5313706852646476  1.0000
  C   C5        1.0  0.8163764337914399  0.0673097791249617  0.8448849266287441  1.0000
  C   C6        1.0  0.18044377492026337  0.9278931328212394  0.1617130148535679  1.0000
  C   C7        1.0  0.8096583550141074  0.26073679374614755  0.7836362523669183  1.0000
  C   C8        1.0  0.1935715572078464  0.7341770644290619  0.21684279624838607  1.0000
  C   C9        1.0  0.7419922411815846  0.3489240636830431  0.8959501467718739  1.0000
  C   C10       1.0  0.2649475626449557  0.6520964393380025  0.099818355112923  1.0000
  C   C11       1.0  0.6792887346580017  0.24907540170381987  0.06473983556684706  1.0000
  C   C12       1.0  0.3259525453082544  0.7578899407442775  0.9323094218590882  1.0000
  C   C13       1.0  0.6842607111075553  0.05816433200913449  0.1273429892157622  1.0000
  C   C14       1.0  0.3157314215639957  0.9490226005263764  0.8760693262780634  1.0000
  C   C15       1.0  0.7559896205149954  0.9688942146598689  0.013797395988973383  1.0000
  C   C16       1.0  0.2397592547834931  0.0322214289717593  0.9943007421413342  1.0000
  C   C17       1.0  0.7546442352528402  0.6242539101545506  0.17202655759604812  1.0000
  C   C18       1.0  0.23902409798220955  0.3779614137611489  0.843007345489099  1.0000
  N   N1        1.0  0.7636097208228279  0.18170798958242781  0.46039791146854014  1.0000
  N   N2        1.0  0.24623921820275993  0.8179484326108549  0.5072171363923205  1.0000
  N   N3        1.0  0.40704505966667154  0.3314915690576683  0.4605817847617076  1.0000
  N   N4        1.0  0.5812780164901382  0.6576510620182674  0.5536836059461336  1.0000
  N   N5        1.0  0.15949730390740768  0.1762148445653011  0.4555226602015381  1.0000
  N   N6        1.0  0.8502591265473639  0.823350164810236  0.5132186409325783  1.0000
  N   N7        1.0  0.8791789007303308  0.9388213212069161  0.7693742965871877  1.0000
  N   N8        1.0  0.11213988950162695  0.05389074647817439  0.2417953130014467  1.0000
  N   N9        1.0  0.8628567851965911  0.7726364149479608  0.8782515876653038  1.0000
  N   N10       1.0  0.125780438684437  0.22385930748188093  0.1349786167671638  1.0000
  N   N11       1.0  0.7889178345179957  0.7873492837340238  0.026789249705330826  1.0000
  N   N12       1.0  0.20203990448553805  0.212395443417627  0.9860070670053815  1.0000
