data_image0
_chemical_formula_structural       Ba8H32C64O32
_chemical_formula_sum              "Ba8 H32 C64 O32"
_cell_length_a       7.797169312012115
_cell_length_b       10.397260494011634
_cell_length_c       19.063299084008353
_cell_angle_alpha    90.00002319077119
_cell_angle_beta     90.00010581046573
_cell_angle_gamma    90.00017062777012

_space_group_name_H-M_alt    "P 1"
_space_group_IT_number       1

loop_
  _space_group_symop_operation_xyz
  'x, y, z'

loop_
  _atom_site_type_symbol
  _atom_site_label
  _atom_site_symmetry_multiplicity
  _atom_site_fract_x
  _atom_site_fract_y
  _atom_site_fract_z
  _atom_site_occupancy
  Ba  Ba1       1.0  0.5356831525255572  0.2016183297014962  0.5243743107432478  1.0000
  Ba  Ba2       1.0  0.9643195409259775  0.7983825493231719  0.0243755645499277  1.0000
  Ba  Ba3       1.0  0.464315658308351  0.7016174336424753  0.9756251924337888  1.0000
  Ba  Ba4       1.0  0.03568254959866119  0.29838458655911637  0.4756249608102081  1.0000
  Ba  Ba5       1.0  0.46431986318290813  0.7983821581223081  0.47562465438986123  1.0000
  Ba  Ba6       1.0  0.0356809097537365  0.20161793849854354  0.9756254988549032  1.0000
  Ba  Ba7       1.0  0.5356809448181323  0.2983820923829157  0.024375346401292595  1.0000
  Ba  Ba8       1.0  0.9643166185665278  0.7016187866359971  0.5243745288899219  1.0000
  H   H1        1.0  0.7369353277395946  0.21568854452787187  0.3559554818772881  1.0000
  H   H2        1.0  0.763067564020595  0.7843106600464579  0.8559540041575744  1.0000
  H   H3        1.0  0.26306643580888084  0.7156879097422505  0.14404555002244018  1.0000
  H   H4        1.0  0.2369367038513772  0.28431386133160436  0.6440444679134387  1.0000
  H   H5        1.0  0.26306640545493565  0.7843109815034665  0.6440455815279265  1.0000
  H   H6        1.0  0.23693288665106854  0.21568694239942227  0.14404601011058557  1.0000
  H   H7        1.0  0.7369327323479737  0.28431065449400705  0.855954464245343  1.0000
  H   H8        1.0  0.7630675943733607  0.71568758828505  0.3559534480839162  1.0000
  H   H9        1.0  0.7458511816579759  0.25821605485243987  0.22770329237089731  1.0000
  H   H10       1.0  0.7541511373265023  0.7417811297751129  0.7277017985714948  1.0000
  H   H11       1.0  0.2541469024999472  0.7582183818032817  0.2722977487991969  1.0000
  H   H12       1.0  0.24585167986606388  0.2417844474195903  0.7722961396589199  1.0000
  H   H13       1.0  0.2541492690148601  0.7417815475936393  0.7722972464654417  1.0000
  H   H14       1.0  0.2458518783785948  0.25821647267364506  0.2722982156976456  1.0000
  H   H15       1.0  0.7458535481812233  0.24178402960165357  0.727702265469496  1.0000
  H   H16       1.0  0.7541487708092518  0.7582179639843645  0.2277012517688988  1.0000
  H   H17       1.0  0.011361468298325399  0.9013173133660004  0.1951725112863016  1.0000
  H   H18       1.0  0.4886380521438696  0.09868257253515371  0.6951731546032816  1.0000
  H   H19       1.0  0.9886333341306184  0.40131847427839057  0.3048290856481657  1.0000
  H   H20       1.0  0.5113629167228099  0.5986835772501281  0.80482789983823  1.0000
  H   H21       1.0  0.9886376998580816  0.09868221266167151  0.8048264538452372  1.0000
  H   H22       1.0  0.5113636810549024  0.9013179152883949  0.3048289579383834  1.0000
  H   H23       1.0  0.0113645515248777  0.5986848989164668  0.6951735514605204  1.0000
  H   H24       1.0  0.48863368640162  0.4013178723578931  0.1951700161561902  1.0000
  H   H25       1.0  0.9918290170481402  0.8532904249987824  0.3228422826788986  1.0000
  H   H26       1.0  0.5081724443170756  0.14670971648656916  0.8228420450323455  1.0000
  H   H27       1.0  0.0081681605090651  0.3532892908993333  0.1771582546495054  1.0000
  H   H28       1.0  0.4918299969668141  0.6467125050485264  0.6771579707439983  1.0000
  H   H29       1.0  0.008172716144777301  0.1467100628237787  0.6771572070218994  1.0000
  H   H30       1.0  0.49183057139344305  0.8532888477545982  0.17715954294142477  1.0000
  H   H31       1.0  0.9918284426204877  0.6467111969180621  0.8228428087538474  1.0000
  H   H32       1.0  0.5081678886762404  0.35328990635274954  0.32283994525101883  1.0000
  C   C1        1.0  0.8585842157500423  0.029236679037772703  0.34737409722998785  1.0000
  C   C2        1.0  0.6414212027181422  0.9707596337170941  0.8473746655456935  1.0000
  C   C3        1.0  0.1414168105703837  0.5292367396448441  0.1526274185892404  1.0000
  C   C4        1.0  0.35858380238012444  0.4707640760822186  0.6526259454462746  1.0000
  C   C5        1.0  0.1414226475009741  0.9707599616231022  0.6526248679041727  1.0000
  C   C6        1.0  0.35858181298900854  0.029236045149026803  0.1526279715641152  1.0000
  C   C7        1.0  0.8585785100447936  0.4707637481715067  0.8473746939499803  1.0000
  C   C8        1.0  0.64141664829139  0.5292364117381111  0.3473714459813309  1.0000
  C   C9        1.0  0.7958141708550598  0.1458538556861626  0.3206426163743146  1.0000
  C   C10       1.0  0.7041898457187016  0.8541453223576315  0.8206426826266338  1.0000
  C   C11       1.0  0.20418475153534393  0.6458540771622695  0.1793584002997193  1.0000
  C   C12       1.0  0.2958146982802461  0.3541477204396415  0.6793568538054373  1.0000
  C   C13       1.0  0.2041888448519487  0.8541447085544147  0.6793573978949325  1.0000
  C   C14       1.0  0.29581445250853733  0.14585324188496435  0.1793589053476268  1.0000
  C   C15       1.0  0.7958131341116683  0.3541473724481747  0.8206421385360586  1.0000
  C   C16       1.0  0.7041857523919931  0.6458537291723019  0.3206400130540956  1.0000
  C   C17       1.0  0.8006465816101809  0.1701371537896534  0.2488785471887667  1.0000
  C   C18       1.0  0.6993571144654069  0.829861970333525  0.7488780798889252  1.0000
  C   C19       1.0  0.19935371931053683  0.67013549476534  0.2511229993477855  1.0000
  C   C20       1.0  0.30064733351921563  0.32986539496702255  0.7511214512491975  1.0000
  C   C21       1.0  0.19935515157893494  0.8298614104492829  0.7511209425118182  1.0000
  C   C22       1.0  0.3006471837580307  0.17013467032546004  0.2511235080851293  1.0000
  C   C23       1.0  0.8006467313661004  0.32986403126436403  0.7488775394887668  1.0000
  C   C24       1.0  0.6993505521207624  0.6701360546422492  0.248875940177534  1.0000
  C   C25       1.0  0.873819011215204  0.08087332057788642  0.202850330924889  1.0000
  C   C26       1.0  0.6261819142622045  0.919125768958196  0.7028482535082787  1.0000
  C   C27       1.0  0.1261796542393867  0.5808715320167791  0.2971511961505655  1.0000
  C   C28       1.0  0.3738216041527664  0.4191293922993964  0.797150247953617  1.0000
  C   C29       1.0  0.12618015694209112  0.9191242818669562  0.7971507324791389  1.0000
  C   C30       1.0  0.3738223839596202  0.08087183349200441  0.29715176076135913  1.0000
  C   C31       1.0  0.8738207964341812  0.4191270322209135  0.7028488181177082  1.0000
  C   C32       1.0  0.6261749989735678  0.5808730191004373  0.20284766804090987  1.0000
  C   C33       1.0  0.9466344308096666  0.9681580973225294  0.2302816989910426  1.0000
  C   C34       1.0  0.553366617177936  0.03184005103317839  0.7302814708105955  1.0000
  C   C35       1.0  0.0533619184251961  0.4681590577188075  0.2697204370841604  1.0000
  C   C36       1.0  0.44663536991245684  0.5318428077744173  0.769719044490941  1.0000
  C   C37       1.0  0.053366019861997  0.03183950512335091  0.7697183152771245  1.0000
  C   C38       1.0  0.4466376810523727  0.9681594750014356  0.2697206417319435  1.0000
  C   C39       1.0  0.9466359672245944  0.5318414301006199  0.7302822000242131  1.0000
  C   C40       1.0  0.5533599506940875  0.46815864183196954  0.23027834693481  1.0000
  C   C41       1.0  0.9371118509091687  0.9415212892542614  0.3016638804984169  1.0000
  C   C42       1.0  0.562889515871845  0.0584778745267442  0.8016636653963829  1.0000
  C   C43       1.0  0.0628843930006369  0.44152125558345984  0.1983377252013625  1.0000
  C   C44       1.0  0.4371138590591528  0.5584795944857036  0.6983368557129026  1.0000
  C   C45       1.0  0.0628898822811195  0.058477274984866816  0.6983361337703471  1.0000
  C   C46       1.0  0.4371134998417432  0.9415216515064274  0.1983384471456731  1.0000
  C   C47       1.0  0.937112210133165  0.5584801940261458  0.8016643873384481  1.0000
  C   C48       1.0  0.5628853090987107  0.44152185512519543  0.3016610602824912  1.0000
  C   C49       1.0  0.8304478811838933  0.9965837965541837  0.42341297166530006  1.0000
  C   C50       1.0  0.669554029322633  0.0034135351202309  0.9234128260035631  1.0000
  C   C51       1.0  0.1695524279896858  0.4965819870643884  0.07658864604004378  1.0000
  C   C52       1.0  0.3304465628501987  0.503416847944969  0.5765861093957056  1.0000
  C   C53       1.0  0.1695551345200386  0.0034138058943752997  0.5765865180356683  1.0000
  C   C54       1.0  0.33044770386926814  0.9965840673276815  0.0765887619696173  1.0000
  C   C55       1.0  0.8304454576536741  0.5034146535879954  0.9234145156360825  1.0000
  C   C56       1.0  0.6695526053003533  0.4965826780817153  0.4234102328949589  1.0000
  C   C57       1.0  0.8774048088016996  0.10792465203085297  0.12553737941551898  1.0000
  C   C58       1.0  0.6225944888850278  0.892075341206386  0.6255363424992808  1.0000
  C   C59       1.0  0.122595246135198  0.6079257988931842  0.3744636289900853  1.0000
  C   C60       1.0  0.3774050750210804  0.39207710709459315  0.8744632021999693  1.0000
  C   C61       1.0  0.12259435936012862  0.8920758357892213  0.8744631594206425  1.0000
  C   C62       1.0  0.37740724430833683  0.10792418482476047  0.3744641963377546  1.0000
  C   C63       1.0  0.8774064870676738  0.3920785360970099  0.6255369098474759  1.0000
  C   C64       1.0  0.6225915281064262  0.6079253043054393  0.12553523836272965  1.0000
  O   O1        1.0  0.8272899113930237  0.08890625300662691  0.46744879606082185  1.0000
  O   O2        1.0  0.6727121957782813  0.9110911117546793  0.9674493752619071  1.0000
  O   O3        1.0  0.1727100683391427  0.5889043700003214  0.0325522081982115  1.0000
  O   O4        1.0  0.3272900083493155  0.4110915465485477  0.532551222720194  1.0000
  O   O5        1.0  0.1727143868276286  0.9110913494433744  0.532550693640637  1.0000
  O   O6        1.0  0.32728697237944726  0.08890552889874212  0.03255273727835829  1.0000
  O   O7        1.0  0.8272878173007001  0.4110922706514656  0.9674493797733916  1.0000
  O   O8        1.0  0.6727104423164931  0.5889060558963521  0.4674461687070988  1.0000
  O   O9        1.0  0.8050358971964684  0.8788758449434937  0.4390791776634586  1.0000
  O   O10       1.0  0.6949660832790912  0.12112053671102528  0.9390816999077032  1.0000
  O   O11       1.0  0.1949613815246707  0.3788731188841439  0.0609224143790499  1.0000
  O   O12       1.0  0.3050336917945629  0.6211247425575693  0.560918310289068  1.0000
  O   O13       1.0  0.1949671185039463  0.1211217575044827  0.5609187383329868  1.0000
  O   O14       1.0  0.3050356499110621  0.8788732185706253  0.0609225109059324  1.0000
  O   O15       1.0  0.8050326565697005  0.6211235217641188  0.9390812718637775  1.0000
  O   O16       1.0  0.6949616288015933  0.3788738216725989  0.43907698286367486  1.0000
  O   O17       1.0  0.9572040367827486  0.0290048995402969  0.0857971655166381  1.0000
  O   O18       1.0  0.5427963659457904  0.9709960256314857  0.5857971340109955  1.0000
  O   O19       1.0  0.042793141074817194  0.5290068590687157  0.4142043502507917  1.0000
  O   O20       1.0  0.4572035100116168  0.4709960767740426  0.914203477030071  1.0000
  O   O21       1.0  0.04279384886118721  0.970995588278143  0.9142028487508611  1.0000
  O   O22       1.0  0.45720536725561794  0.029006385775488797  0.4142044539627037  1.0000
  O   O23       1.0  0.9572047445809632  0.47099843770917  0.5857967131535844  1.0000
  O   O24       1.0  0.5427918105960998  0.5290053728325503  0.08579443896385901  1.0000
  O   O25       1.0  0.8066061885629026  0.21009474620759516  0.1023330903250681  1.0000
  O   O26       1.0  0.6933942880128825  0.789908114971233  0.6023305114900097  1.0000
  O   O27       1.0  0.1933917053214032  0.7100960692962205  0.397667940353891  1.0000
  O   O28       1.0  0.3066048719183669  0.28990877770555556  0.8976674372309148  1.0000
  O   O29       1.0  0.1933929796093139  0.789908626988698  0.8976695467841082  1.0000
  O   O30       1.0  0.3066061626652186  0.2100933346417051  0.3976689782104046  1.0000
  O   O31       1.0  0.8066074628471398  0.2899101892739324  0.6023305002102077  1.0000
  O   O32       1.0  0.6933930137277572  0.7100945954877245  0.102331003332381  1.0000
