data_image0
_chemical_formula_structural       Gd4H36C64O36
_chemical_formula_sum              "Gd4 H36 C64 O36"
_cell_length_a       6.6300942940002825
_cell_length_b       13.051177157429322
_cell_length_c       16.395807879190517
_cell_angle_alpha    108.76956002466932
_cell_angle_beta     89.99997440964813
_cell_angle_gamma    90.00002861924798

_space_group_name_H-M_alt    "P 1"
_space_group_IT_number       1

loop_
  _space_group_symop_operation_xyz
  'x, y, z'

loop_
  _atom_site_type_symbol
  _atom_site_label
  _atom_site_symmetry_multiplicity
  _atom_site_fract_x
  _atom_site_fract_y
  _atom_site_fract_z
  _atom_site_occupancy
  Gd  Gd1       1.0  0.8145899858000902  0.5297786620951327  0.9067183181370597  1.0000
  Gd  Gd2       1.0  0.3145881905611034  0.47022242637695644  0.593282205166098  1.0000
  Gd  Gd3       1.0  0.18541232427298135  0.4702215733759942  0.09328126962844863  1.0000
  Gd  Gd4       1.0  0.6854111029635706  0.5297786199366213  0.4067181989862549  1.0000
  H   H1        1.0  0.6253758246067492  0.8838248073041298  0.6015076045282159  1.0000
  H   H2        1.0  0.1253793778500381  0.116175433851609  0.8984927372191439  1.0000
  H   H3        1.0  0.37462045236900116  0.11617462051218297  0.3984923874893341  1.0000
  H   H4        1.0  0.8746229322233179  0.883825610868001  0.10150705661386174  1.0000
  H   H5        1.0  0.6480145315039536  0.040720127143352186  0.7352342907357753  1.0000
  H   H6        1.0  0.1480145368572252  0.9592801185667592  0.7647660480790466  1.0000
  H   H7        1.0  0.351984762020095  0.9592801115160156  0.2647665176682281  1.0000
  H   H8        1.0  0.8519847566674914  0.040720116904068994  0.2352335396866537  1.0000
  H   H9        1.0  0.6276591655910408  0.8187889540313548  0.8813054837903069  1.0000
  H   H10       1.0  0.127657057970282  0.1812112875832028  0.6186948576616232  1.0000
  H   H11       1.0  0.3723416362072385  0.18121047378541283  0.11869450822695173  1.0000
  H   H12       1.0  0.8723437438288929  0.8187897571362581  0.381304936171482  1.0000
  H   H13       1.0  0.5655164522620382  0.15956833486366404  0.8535614088955088  1.0000
  H   H14       1.0  0.0655119462006581  0.8404318942480203  0.6464389406069488  1.0000
  H   H15       1.0  0.43448736608458927  0.8404310929534017  0.14643858312155802  1.0000
  H   H16       1.0  0.9344858390498348  0.15956915206540856  0.35356146354549634  1.0000
  H   H17       1.0  0.7778184214051366  0.9281599812138519  0.9721061308470029  1.0000
  H   H18       1.0  0.2778163061925056  0.07183948455163147  0.5278952057231125  1.0000
  H   H19       1.0  0.22218238039246782  0.0718394497914545  0.02789508180855901  1.0000
  H   H20       1.0  0.7221829873315928  0.9281599432649794  0.47210478629423863  1.0000
  H   H21       1.0  0.8559697074614976  0.0775431046512338  0.10396174587075543  1.0000
  H   H22       1.0  0.3559695319646822  0.9224563185106263  0.39603932553870913  1.0000
  H   H23       1.0  0.14403260261061493  0.9224563247599559  0.896038856465559  1.0000
  H   H24       1.0  0.6440312698335903  0.07754310930613428  0.6039606664785497  1.0000
  H   H25       1.0  0.3970423619156946  0.44209819490932717  0.8608737090190745  1.0000
  H   H26       1.0  0.8970429713448527  0.5579021009032984  0.6391265975350111  1.0000
  H   H27       1.0  0.6029569316086879  0.5579020421557741  0.13912648906578082  1.0000
  H   H28       1.0  0.10295783045303612  0.4420981393504915  0.36087482118804814  1.0000
  H   H29       1.0  0.4647428199840179  0.4868043909395609  0.785597589431646  1.0000
  H   H30       1.0  0.964743302494938  0.5131959184938495  0.7144027083520827  1.0000
  H   H31       1.0  0.5352579818145884  0.5131950352829336  0.21440179226646458  1.0000
  H   H32       1.0  0.035257499303625706  0.4868043185713943  0.2855974897326733  1.0000
  H   H33       1.0  0.9339776927842325  0.32710145961388554  0.245167837302141  1.0000
  H   H34       1.0  0.43397742728159744  0.6728979776482973  0.2548326136825097  1.0000
  H   H35       1.0  0.06602310901370603  0.6728979697971483  0.754832765034273  1.0000
  H   H36       1.0  0.5660233745166324  0.3271022610112197  0.7451681947213944  1.0000
  C   C1        1.0  0.6080953808709001  0.7472264369682903  0.745490893250008  1.0000
  C   C2        1.0  0.10809319404826573  0.25277380071018024  0.7545094507363432  1.0000
  C   C3        1.0  0.3919054209276638  0.25277380009696054  0.2545093048347412  1.0000
  C   C4        1.0  0.891906099477076  0.7472272424148584  0.24548973277770617  1.0000
  C   C5        1.0  0.6100652397233832  0.764281891688796  0.6649041027145588  1.0000
  C   C6        1.0  0.11006596388961042  0.23571915244622227  0.83509522644561  1.0000
  C   C7        1.0  0.3899340538013335  0.23571834378202539  0.3350954850511415  1.0000
  C   C8        1.0  0.8899348379102392  0.7642818890846924  0.16490334674918475  1.0000
  C   C9        1.0  0.6218569804773751  0.8716433923847616  0.6641165491133522  1.0000
  C   C10       1.0  0.12185608985702602  0.12835684965683208  0.8358844034093027  1.0000
  C   C11       1.0  0.3781423130463892  0.12835603702612267  0.3358840532231541  1.0000
  C   C12       1.0  0.8781447119421557  0.8716441950626287  0.16411539042380238  1.0000
  C   C13       1.0  0.6342685703506278  0.9592994874645908  0.7393454852873449  1.0000
  C   C14       1.0  0.134267676352934  0.04070156472833019  0.7606550613757793  1.0000
  C   C15       1.0  0.3657307231734209  0.04070075119477678  0.2606553231166586  1.0000
  C   C16       1.0  0.8657316171720242  0.959300290833731  0.2393455488440709  1.0000
  C   C17       1.0  0.6390422054820065  0.9426583558913606  0.8200328993911729  1.0000
  C   C18       1.0  0.13904141674729692  0.05734188960777689  0.6799680509051884  1.0000
  C   C19       1.0  0.3609585963159319  0.0573410735196731  0.17996770294524117  1.0000
  C   C20       1.0  0.860959385051551  0.9426591567059502  0.32003235324706486  1.0000
  C   C21       1.0  0.6256124793494211  0.8358803257341307  0.8206604123407647  1.0000
  C   C22       1.0  0.12560877982765115  0.1641207247169731  0.6793401354439015  1.0000
  C   C23       1.0  0.37438983072297555  0.1641199129255425  0.17934039606304716  1.0000
  C   C24       1.0  0.8743905136976837  0.8358803184080658  0.32065904807014095  1.0000
  C   C25       1.0  0.5894801994028784  0.6413199243509666  0.762732357156054  1.0000
  C   C26       1.0  0.08948115233467752  0.35868030798832234  0.737267378922482  1.0000
  C   C27       1.0  0.41051758584738  0.35867950187122927  0.23726702454225562  1.0000
  C   C28       1.0  0.9105226660132361  0.6413199242944215  0.2627309882046235  1.0000
  C   C29       1.0  0.6183517022298517  0.6771425764370702  0.5794632400750005  1.0000
  C   C30       1.0  0.11835392628822923  0.32285685565111777  0.9205375068340517  1.0000
  C   C31       1.0  0.38164608301973874  0.3228568529736648  0.4205373622616052  1.0000
  C   C32       1.0  0.8816483837845015  0.6771433814142824  0.07946269125060478  1.0000
  C   C33       1.0  0.7580269963578774  0.20261906184166625  0.054132814140054115  1.0000
  C   C34       1.0  0.2580266428925455  0.7973795323663919  0.44586806389006745  1.0000
  C   C35       1.0  0.24197531371395092  0.7973795583210399  0.9458675821287559  1.0000
  C   C36       1.0  0.7419711423570379  0.20261989704434308  0.5541325384465382  1.0000
  C   C37       1.0  0.6712946974942683  0.22526908543056118  0.9834004861564556  1.0000
  C   C38       1.0  0.17129177809375312  0.77473035571456  0.516599643575198  1.0000
  C   C39       1.0  0.3287091208523591  0.7747303423865046  0.01659950586061139  1.0000
  C   C40       1.0  0.8287075154310132  0.22526906891351925  0.48339912780385685  1.0000
  C   C41       1.0  0.628529091122708  0.14026896982623066  0.908239789414623  1.0000
  C   C42       1.0  0.1285261725615143  0.8597304643090595  0.591760956176316  1.0000
  C   C43       1.0  0.3714747272232942  0.8597296503366321  0.09176060685409479  1.0000
  C   C44       1.0  0.8714701044148043  0.14027058200421996  0.4082394479762287  1.0000
  C   C45       1.0  0.6677954514043949  0.032030786740286  0.901579677817715  1.0000
  C   C46       1.0  0.1677926320132102  0.9679702721977889  0.598420864502238  1.0000
  C   C47       1.0  0.33220836694250994  0.9679694503252704  0.09842052026684908  1.0000
  C   C48       1.0  0.8322051532379504  0.03203077092709349  0.40157831901190394  1.0000
  C   C49       1.0  0.7442573600002904  0.010736517971864097  0.974593951459696  1.0000
  C   C50       1.0  0.2442531337232552  0.9892629394469095  0.5254067791391253  1.0000
  C   C51       1.0  0.2557464583456621  0.9892629130337409  0.02540726119567446  1.0000
  C   C52       1.0  0.7557431432527794  0.010737297617886598  0.4745934189459221  1.0000
  C   C53       1.0  0.7884066043126838  0.09455046677223318  0.049238282170705416  1.0000
  C   C54       1.0  0.2884078600696967  0.9054497504508204  0.4507623937395808  1.0000
  C   C55       1.0  0.21159419748554603  0.9054497718872837  0.9507625262331988  1.0000
  C   C56       1.0  0.7115929417289166  0.09454967577167388  0.5492369879585297  1.0000
  C   C57       1.0  0.8403395533871035  0.29011946109054065  0.12826816753640466  1.0000
  C   C58       1.0  0.3403361789469344  0.7098848096344241  0.37173231134563195  1.0000
  C   C59       1.0  0.15966426496099476  0.7098832021261926  0.8717320384314963  1.0000
  C   C60       1.0  0.6596600980302868  0.29011785358154896  0.6282678946227593  1.0000
  C   C61       1.0  0.6262048965149632  0.3388624690499498  0.9841485952241558  1.0000
  C   C62       1.0  0.1262063909847768  0.6611369662124458  0.5158527609867393  1.0000
  C   C63       1.0  0.3737943970081332  0.661136963549481  0.015853227750653856  1.0000
  C   C64       1.0  0.8737944108134458  0.33886327244707803  0.484148047417172  1.0000
  O   O1        1.0  0.7135357136935527  0.6276576845046548  0.8169481231111321  1.0000
  O   O2        1.0  0.21353673979447765  0.3723417667336974  0.6830526114672327  1.0000
  O   O3        1.0  0.2864650881040519  0.3723417465006518  0.1830530895444298  1.0000
  O   O4        1.0  0.7864625537295783  0.6276584719256703  0.31694819693677095  1.0000
  O   O5        1.0  0.44583516928317846  0.5756997986716995  0.7300119927517488  1.0000
  O   O6        1.0  0.9458339948111674  0.4243005085517451  0.7699889178006601  1.0000
  O   O7        1.0  0.5541656325147599  0.4242996307393412  0.26998860958466514  1.0000
  O   O8        1.0  0.05416529871316561  0.5757005393561059  0.23001209667084058  1.0000
  O   O9        1.0  0.6288401942514312  0.5751528626227012  0.5729475307964338  1.0000
  O   O10       1.0  0.12884100321662123  0.4248473760412208  0.9270515898640002  1.0000
  O   O11       1.0  0.3711590992736263  0.424847371253854  0.4270514466501113  1.0000
  O   O12       1.0  0.8711613068573529  0.5751544763325994  0.07294779971734758  1.0000
  O   O13       1.0  0.6272264380885064  0.7051798192487339  0.5126177498277971  1.0000
  O   O14       1.0  0.12722554437133482  0.29482041909034246  0.9873813710418137  1.0000
  O   O15       1.0  0.37277285543655136  0.2948204146278214  0.48738122761875513  1.0000
  O   O16       1.0  0.872775257428181  0.7051806240348523  0.012617812472143334  1.0000
  O   O17       1.0  0.8793660956922197  0.2616833541729732  0.1972138730677743  1.0000
  O   O18       1.0  0.3793658417320672  0.7383152644475713  0.30278698924327335  1.0000
  O   O19       1.0  0.1206347061054345  0.7383152659895769  0.8027865232011353  1.0000
  O   O20       1.0  0.620634960065587  0.26168335571497886  0.6972134070256362  1.0000
  O   O21       1.0  0.8751490604276672  0.3822931834109084  0.12461649446448325  1.0000
  O   O22       1.0  0.37515011608361704  0.6177022005559463  0.3753847647611012  1.0000
  O   O23       1.0  0.12485174136851643  0.6177022013519888  0.8753836878535997  1.0000
  O   O24       1.0  0.624850685713419  0.3822956119523937  0.6246160357594662  1.0000
  O   O25       1.0  0.49034765067617064  0.3927618483235803  0.03295859208499511  1.0000
  O   O26       1.0  0.9903449308584841  0.6072375970910071  0.46704063095898374  1.0000
  O   O27       1.0  0.5096561676704567  0.6072375794934927  0.9670413999320718  1.0000
  O   O28       1.0  0.0096498378437104  0.3927626383793594  0.5329589568070149  1.0000
  O   O29       1.0  0.7260315761171157  0.37044165348205377  0.9305319741815199  1.0000
  O   O30       1.0  0.22602845562483515  0.6295577986756838  0.5694681484591727  1.0000
  O   O31       1.0  0.2739722422297959  0.6295585835835026  0.06946822390304422  1.0000
  O   O32       1.0  0.7739678213515335  0.37044243679483907  0.4305314393067265  1.0000
  O   O33       1.0  0.5067663124975894  0.4382724527116295  0.8194860523607377  1.0000
  O   O34       1.0  0.006766019475520602  0.561727764580411  0.6805143047523291  1.0000
  O   O35       1.0  0.4932344893006332  0.5617277859478875  0.18051475604317352  1.0000
  O   O36       1.0  0.993234782322702  0.4382724740791062  0.3194865036515751  1.0000
