data_image0
_chemical_formula_structural       Mn4H30C38N2O18
_chemical_formula_sum              "Mn4 H30 C38 N2 O18"
_cell_length_a       9.705776944138645
_cell_length_b       12.171070384516167
_cell_length_c       11.989236012784508
_cell_angle_alpha    104.08799260370675
_cell_angle_beta     109.38170562987459
_cell_angle_gamma    108.41005536735547

_space_group_name_H-M_alt    "P 1"
_space_group_IT_number       1

loop_
  _space_group_symop_operation_xyz
  'x, y, z'

loop_
  _atom_site_type_symbol
  _atom_site_label
  _atom_site_symmetry_multiplicity
  _atom_site_fract_x
  _atom_site_fract_y
  _atom_site_fract_z
  _atom_site_occupancy
  Mn  Mn1       1.0  0.21575867919598576  0.33271384002373594  0.12805214583624286  1.0000
  Mn  Mn2       1.0  0.7842461523482172  0.6672886996419649  0.8719588511371513  1.0000
  Mn  Mn3       1.0  1.673881712306279e-06  5.208767888005165e-07  0.9999961676125934  1.0000
  Mn  Mn4       1.0  7.168001658698893e-07  0.4999977601429181  0.9999967285466909  1.0000
  H   H1        1.0  0.486014091880392  0.3714541264485974  0.5188901106012196  1.0000
  H   H2        1.0  0.5139805193072744  0.628549391593438  0.48111156869992294  1.0000
  H   H3        1.0  0.5717700664348084  0.1405629826350108  0.7293436286665766  1.0000
  H   H4        1.0  0.4282321388231907  0.8594405125557006  0.27066185322576797  1.0000
  H   H5        1.0  0.34408317612255235  0.9500887216808138  0.5431334506139506  1.0000
  H   H6        1.0  0.655915757938118  0.04991478234620671  0.45687111172270545  1.0000
  H   H7        1.0  0.1977345301017477  0.9719575680396345  0.33867856523706746  1.0000
  H   H8        1.0  0.802258946157373  0.028044065558049197  0.6613256772697085  1.0000
  H   H9        1.0  0.7147684943076839  0.0095868231972673  0.8524895748632491  1.0000
  H   H10       1.0  0.28523387359372515  0.9904129117300473  0.14751087622923362  1.0000
  H   H11       1.0  0.4196709341169367  0.8718910133232358  0.7504655075708584  1.0000
  H   H12       1.0  0.5803329812835756  0.12811153933757422  0.249537726558259  1.0000
  H   H13       1.0  0.23718786669777345  0.9523754379588141  0.8143515459040955  1.0000
  H   H14       1.0  0.7628240921233668  0.04763368172601901  0.1856563702890668  1.0000
  H   H15       1.0  0.6457748767619266  0.3079183648798677  0.07030423955011143  1.0000
  H   H16       1.0  0.3542400394382382  0.6920841639097048  0.9296979173614446  1.0000
  H   H17       1.0  0.37238650301786436  0.48416029782254094  0.9106376165226139  1.0000
  H   H18       1.0  0.6275953351115929  0.5158376190778639  0.08934993867376305  1.0000
  H   H19       1.0  0.3723190564569662  0.4340437423893277  0.7570718389097663  1.0000
  H   H20       1.0  0.6276627932844931  0.5659579448241346  0.242913290760761  1.0000
  H   H21       1.0  0.4364997699582388  0.36455867668194486  0.8671577519408231  1.0000
  H   H22       1.0  0.5634934912097406  0.6354495743023776  0.13282883694627404  1.0000
  H   H23       1.0  0.0014556853987600018  0.13972896063054924  0.6278086970200292  1.0000
  H   H24       1.0  0.998537163223773  0.8602595088492467  0.37218218781215745  1.0000
  H   H25       1.0  0.20225565703026394  0.15166619492328692  0.6743394578382579  1.0000
  H   H26       1.0  0.7977436991257889  0.8483297941601011  0.32565090049550355  1.0000
  H   H27       1.0  0.13751556792040273  0.2374013216569466  0.5836833887022763  1.0000
  H   H28       1.0  0.8624744917725097  0.7625918636112419  0.41630701184872976  1.0000
  H   H29       1.0  0.9669112192925126  0.2418031406278516  0.7851378407546792  1.0000
  H   H30       1.0  0.03309180515714152  0.7581824630858235  0.2148652314739578  1.0000
  C   C1        1.0  0.2464664280750525  0.18177498060710923  0.2927831857689469  1.0000
  C   C2        1.0  0.7535249564447141  0.8182304336610217  0.7072147042523086  1.0000
  C   C3        1.0  0.3329601695327113  0.17209071287668112  0.4167551181314408  1.0000
  C   C4        1.0  0.6670305139344989  0.8279080969999129  0.5832526626652238  1.0000
  C   C5        1.0  0.45617615355786256  0.2791479883161259  0.5237329427472018  1.0000
  C   C6        1.0  0.5438222265942513  0.720852689448826  0.4762732854745622  1.0000
  C   C7        1.0  0.5432581758485284  0.26686687669123904  0.6356581121490236  1.0000
  C   C8        1.0  0.4567398614301652  0.7331366414475157  0.3643378588627256  1.0000
  C   C9        1.0  0.5025662160447126  0.1482539859482017  0.6418041771042624  1.0000
  C   C10       1.0  0.4974257320770264  0.8517448310326263  0.35819645388524896  1.0000
  C   C11       1.0  0.37514602112048573  0.04206385722041969  0.537179935846872  1.0000
  C   C12       1.0  0.6248518225410747  0.9579396497520423  0.4628243199712259  1.0000
  C   C13       1.0  0.29267276454462626  0.053626648135470106  0.4242280748760692  1.0000
  C   C14       1.0  0.7073256988603374  0.9463759192525316  0.5757736266602365  1.0000
  C   C15       1.0  0.8769565159579428  0.24690263457370068  0.03024877841897921  1.0000
  C   C16       1.0  0.12304486610263143  0.7530933396857691  0.9697488207969868  1.0000
  C   C17       1.0  0.6993435760639457  0.1669209414107655  0.9683359736734402  1.0000
  C   C18       1.0  0.3006654000669611  0.8330750099973868  0.03166542813372778  1.0000
  C   C19       1.0  0.6345244197040785  0.043935519239426  0.8785230843299913  1.0000
  C   C20       1.0  0.3654853602625466  0.956067951983329  0.12148702863419207  1.0000
  C   C21       1.0  0.4684974156683379  0.9671880109553184  0.8205834447478537  1.0000
  C   C22       1.0  0.5314977513715888  0.0328126789958318  0.17941937847632525  1.0000
  C   C23       1.0  0.3666093719562794  0.011614263053779399  0.8545714565661342  1.0000
  C   C24       1.0  0.633395112852206  0.9883835774762418  0.14543330576830024  1.0000
  C   C25       1.0  0.4303745647673053  0.13431851968137212  0.9451525197817219  1.0000
  C   C26       1.0  0.5696390461112061  0.8656896541236707  0.05485563409011719  1.0000
  C   C27       1.0  0.5961976987989102  0.21291047949743813  0.9997772124074659  1.0000
  C   C28       1.0  0.4038093774346548  0.7870939427838053  0.00023069939820881177  1.0000
  C   C29       1.0  0.3515918832607666  0.4039289632485605  0.8314830445197289  1.0000
  C   C30       1.0  0.6483970647276179  0.5960698782013978  0.1685050681852118  1.0000
  C   C31       1.0  0.127807298475588  0.20347131035562438  0.658957362235931  1.0000
  C   C32       1.0  0.8721882577422945  0.796523747575165  0.3410317011836952  1.0000
  C   C33       1.0  0.0920403073037193  0.31636020000565424  0.8365366168393109  1.0000
  C   C34       1.0  0.907954553667622  0.6836301386901268  0.1634611245927856  1.0000
  C   C35       1.0  0.6780840219462688  0.38079815274797113  0.7495304867762443  1.0000
  C   C36       1.0  0.32191029478480704  0.6191987843517454  0.2504636852069737  1.0000
  C   C37       1.0  0.31989449252885993  0.17453567352512783  0.9883438260233675  1.0000
  C   C38       1.0  0.680114282235216  0.825464035913157  0.011664263544936642  1.0000
  N   N1        1.0  0.1852169625693278  0.30917426233899903  0.7775836549359738  1.0000
  N   N2        1.0  0.8147752972835176  0.6908189181549388  0.22240653017152562  1.0000
  O   O1        1.0  0.27520688064301163  0.29073330557469035  0.2914563582230016  1.0000
  O   O2        1.0  0.7247810990911389  0.7092664553603996  0.7085492214151542  1.0000
  O   O3        1.0  0.1510467236095323  0.07836264852630852  0.1961817360377012  1.0000
  O   O4        1.0  0.8489647316384745  0.9216474174427701  0.8038237635534529  1.0000
  O   O5        1.0  0.971534621832717  0.19259827256609444  0.026522078817173216  1.0000
  O   O6        1.0  0.028474960485887345  0.8073986232974946  0.9734763844259149  1.0000
  O   O7        1.0  0.9338705506865707  0.3655908782759312  0.0854024642736632  1.0000
  O   O8        1.0  0.06614060429885157  0.6344107215942998  0.9145967407624909  1.0000
  O   O9        1.0  0.14029585023754984  0.40137648094005135  0.944399924575272  1.0000
  O   O10       1.0  0.859698623330935  0.5986148107397469  0.05559042937100142  1.0000
  O   O11       1.0  0.7940660575271606  0.3680795701452055  0.8256689699630826  1.0000
  O   O12       1.0  0.20593846406104888  0.6319239269710337  0.1743313256019405  1.0000
  O   O13       1.0  0.6637460237880148  0.4828266053312263  0.761078245888342  1.0000
  O   O14       1.0  0.33625967920186633  0.5171750092661965  0.23891942655500026  1.0000
  O   O15       1.0  0.37420251380113706  0.288768756178655  0.06407894012813387  1.0000
  O   O16       1.0  0.625803020739326  0.7112347335256288  0.9359249758779952  1.0000
  O   O17       1.0  0.1763217958658103  0.09168522203421499  0.9474591412836233  1.0000
  O   O18       1.0  0.8236887161522048  0.9083097767943688  0.052547469086029266  1.0000
