data_image0
_chemical_formula_structural       Ni2H42C42N4O8
_chemical_formula_sum              "Ni2 H42 C42 N4 O8"
_cell_length_a       7.472177601508241
_cell_length_b       11.3607621943622
_cell_length_c       12.205791103745737
_cell_angle_alpha    96.52697344632692
_cell_angle_beta     106.76663458390105
_cell_angle_gamma    104.50709101399391

_space_group_name_H-M_alt    "P 1"
_space_group_IT_number       1

loop_
  _space_group_symop_operation_xyz
  'x, y, z'

loop_
  _atom_site_type_symbol
  _atom_site_label
  _atom_site_symmetry_multiplicity
  _atom_site_fract_x
  _atom_site_fract_y
  _atom_site_fract_z
  _atom_site_occupancy
  Ni  Ni1       1.0  0.3490410209333984  0.9306703014751886  0.0097971096526662  1.0000
  Ni  Ni2       1.0  0.6509645331497609  0.06933195324924668  0.9902055032139286  1.0000
  H   H1        1.0  0.911988977742865  0.8531703989450249  0.011694655817358117  1.0000
  H   H2        1.0  0.08801412279186141  0.14683554717320393  0.9883021674869068  1.0000
  H   H3        1.0  0.37415909253821406  0.7039567308422789  0.14436981495160234  1.0000
  H   H4        1.0  0.6258422274216997  0.29604550475826846  0.855636133223818  1.0000
  H   H5        1.0  0.03483076205350239  0.5563185708005066  0.17062875092575064  1.0000
  H   H6        1.0  0.9651585377712164  0.4436817549961772  0.829369926969626  1.0000
  H   H7        1.0  0.6394527805123996  0.7154167136699385  0.05394567755688934  1.0000
  H   H8        1.0  0.36053971338190377  0.2845873289723643  0.9460424909757206  1.0000
  H   H9        1.0  0.709041378349184  0.6453854100183207  0.17503109345147996  1.0000
  H   H10       1.0  0.2909493024710912  0.3546269596183151  0.8249633544039694  1.0000
  H   H11       1.0  0.6760725447322855  0.4507099228092457  0.04282418390820201  1.0000
  H   H12       1.0  0.32392260440223436  0.5492941362703546  0.9571833061236885  1.0000
  H   H13       1.0  0.6276734787433538  0.5230137628220319  0.9210763896919048  1.0000
  H   H14       1.0  0.3723192747862996  0.47698194957913387  0.07892488366189097  1.0000
  H   H15       1.0  0.8475740925502818  0.7998606621978227  0.8007376363885682  1.0000
  H   H16       1.0  0.15244142133780506  0.2001388605420402  0.19926238053053413  1.0000
  H   H17       1.0  0.8829698742906089  0.6162586380907555  0.6891187410138284  1.0000
  H   H18       1.0  0.11703553072008786  0.3837371328025014  0.3108790717416524  1.0000
  H   H19       1.0  0.28562682896524894  0.41406031678678806  0.6395172708447701  1.0000
  H   H20       1.0  0.7143743030618948  0.5859474726346363  0.3604818498372352  1.0000
  H   H21       1.0  0.2532087013716903  0.5980634867475983  0.7562426071945862  1.0000
  H   H22       1.0  0.7468002802782718  0.4019461919532857  0.2437589374160963  1.0000
  H   H23       1.0  0.7442115435646741  0.41278294629756124  0.5676278123364182  1.0000
  H   H24       1.0  0.2557821002523895  0.5872146213624418  0.4323688985817994  1.0000
  H   H25       1.0  0.4862877364834972  0.34542637434639545  0.5132486305885209  1.0000
  H   H26       1.0  0.5137067530933593  0.654573049552809  0.4867492450562522  1.0000
  H   H27       1.0  0.6260988307482975  0.31800840282691206  0.6469951526224447  1.0000
  H   H28       1.0  0.37389833142140816  0.6819938119691217  0.35300431286957223  1.0000
  H   H29       1.0  0.6587839403361357  0.8518353156936201  0.33718404219668935  1.0000
  H   H30       1.0  0.34121317730596695  0.14816690008277786  0.6628211504574606  1.0000
  H   H31       1.0  0.8654690074777986  0.7904418664744101  0.507575250147063  1.0000
  H   H32       1.0  0.13452739971794608  0.2095557152420042  0.4924268734481173  1.0000
  H   H33       1.0  0.37235929071005797  0.9390483225014634  0.4090729468176021  1.0000
  H   H34       1.0  0.6276327068087891  0.06093349488802599  0.5909226438637842  1.0000
  H   H35       1.0  0.1687141064339244  0.0065620787593232005  0.2437898829333562  1.0000
  H   H36       1.0  0.8312821389671823  0.9934290194060155  0.7562090768827471  1.0000
  H   H37       1.0  0.40073940166961114  0.8236583209451428  0.56508959695784  1.0000
  H   H38       1.0  0.5992543710998035  0.17633646903413336  0.4349060277939784  1.0000
  H   H39       1.0  0.1864230782042994  0.7317020867149181  0.5850336004825394  1.0000
  H   H40       1.0  0.8135807324337208  0.2682871947194698  0.41496488748353483  1.0000
  H   H41       1.0  0.287676052170468  0.8895961139823283  0.6544805399054281  1.0000
  H   H42       1.0  0.7123220200636949  0.11039591884063779  0.3455188450313641  1.0000
  C   C1        1.0  0.9930049562505019  0.7927338577304681  0.05042847772097049  1.0000
  C   C2        1.0  0.0069968533807198835  0.20726930451913717  0.9495694620745352  1.0000
  C   C3        1.0  0.2272283372578555  0.7117899815028323  0.12047908146999474  1.0000
  C   C4        1.0  0.7727602595184422  0.2882149720258838  0.8795240499759629  1.0000
  C   C5        1.0  0.061483316304681  0.639546154202918  0.13491769688545924  1.0000
  C   C6        1.0  0.9385238575954983  0.3604625894201803  0.8650809681064755  1.0000
  C   C7        1.0  0.7120120595929578  0.6471818785151057  0.0856963467474542  1.0000
  C   C8        1.0  0.28798221024570114  0.35282309990524396  0.9142987922339996  1.0000
  C   C9        1.0  0.6083853262799862  0.519686196221521  0.0068301442098572486  1.0000
  C   C10       1.0  0.3916070594758523  0.4803178488016613  0.9931719331450707  1.0000
  C   C11       1.0  0.5289631514441594  0.8166619210459771  0.8622508747086427  1.0000
  C   C12       1.0  0.471053498950731  0.18334316380343552  0.1377523845496924  1.0000
  C   C13       1.0  0.5478363248605688  0.7098701490602294  0.7871552440025551  1.0000
  C   C14       1.0  0.4521709461865341  0.29013581758240287  0.21284642565307618  1.0000
  C   C15       1.0  0.7244709302925473  0.7151957374156127  0.766365261809824  1.0000
  C   C16       1.0  0.2755384191312373  0.2848056086632482  0.23363547879972654  1.0000
  C   C17       1.0  0.7437135412187103  0.6112261119392812  0.7035061425076844  1.0000
  C   C18       1.0  0.25629442015463866  0.3887752272514291  0.2964927099294029  1.0000
  C   C19       1.0  0.588423788922519  0.5007668060681496  0.6582382574366361  1.0000
  C   C20       1.0  0.41157856299933115  0.4992345068304048  0.34176040580476996  1.0000
  C   C21       1.0  0.4098358479437322  0.498137300262016  0.6761140928510443  1.0000
  C   C22       1.0  0.5901677757983631  0.5018667969253129  0.3238859083971802  1.0000
  C   C23       1.0  0.3903527805261859  0.6006939110006259  0.7403728239558659  1.0000
  C   C24       1.0  0.6096571758359346  0.3993148462587328  0.25962879921497256  1.0000
  C   C25       1.0  0.612228095622349  0.388635722147015  0.5929771994556033  1.0000
  C   C26       1.0  0.38776962792125147  0.6113646428778168  0.4070205349842623  1.0000
  C   C27       1.0  0.7740184346480062  0.9683680796220031  0.1777249903337078  1.0000
  C   C28       1.0  0.22598204591319862  0.0316322995992948  0.8222789749491355  1.0000
  C   C29       1.0  0.9001029562209693  0.9338462849959299  0.2803374646167781  1.0000
  C   C30       1.0  0.09989174673300738  0.0661475845221844  0.719663965857336  1.0000
  C   C31       1.0  0.8158617456140502  0.8711129282560605  0.3543256989463471  1.0000
  C   C32       1.0  0.1841346488595264  0.1288846537404567  0.6456780609808702  1.0000
  C   C33       1.0  0.9316261784177228  0.835897504865187  0.44852663224087747  1.0000
  C   C34       1.0  0.068368524536254  0.16409636465292723  0.5514747982332365  1.0000
  C   C35       1.0  0.13377548606268147  0.8599772721173123  0.47023572376259887  1.0000
  C   C36       1.0  0.8662176543240533  0.14001010724167878  0.5297622910920126  1.0000
  C   C37       1.0  0.21598382209030118  0.921215460754013  0.3947126249814444  1.0000
  C   C38       1.0  0.7840074978244685  0.0787709838073027  0.6052841465864488  1.0000
  C   C39       1.0  0.10222822431644103  0.9596019842432781  0.3018010160428374  1.0000
  C   C40       1.0  0.8977681436759465  0.04038633638138119  0.6981976757728885  1.0000
  C   C41       1.0  0.25858601271922754  0.8240346562727651  0.5733259631680097  1.0000
  C   C42       1.0  0.7414102454040545  0.17595644161247037  0.42667136031604963  1.0000
  N   N1        1.0  0.18164267817095947  0.8060381437353498  0.06743156047533458  1.0000
  N   N2        1.0  0.8183612554013919  0.19396965890218348  0.9325680638875224  1.0000
  N   N3        1.0  0.9151775535868294  0.692342822287294  0.09053482046066816  1.0000
  N   N4        1.0  0.08481962130505137  0.3076593922286364  0.9094630086993121  1.0000
  O   O1        1.0  0.38165361222080924  0.7963353467307572  0.8980518806323159  1.0000
  O   O2        1.0  0.6183648522849552  0.20367067305638634  0.10195344007875205  1.0000
  O   O3        1.0  0.6645144388115863  0.9197862079239623  0.8885101445817224  1.0000
  O   O4        1.0  0.3355007200248536  0.0802216471578134  0.1114890400064752  1.0000
  O   O5        1.0  0.5888682988328925  0.918264274078311  0.1470080556114226  1.0000
  O   O6        1.0  0.4111283991098559  0.08173701350845872  0.8529961455964352  1.0000
  O   O7        1.0  0.857371171000466  0.04410735582087  0.12474141206273967  1.0000
  O   O8        1.0  0.1426354613028664  0.9558912003415331  0.8752634658616996  1.0000
