data_image0
_chemical_formula_structural       Hg4H48C28N16Cl8O8
_chemical_formula_sum              "Hg4 H48 C28 N16 Cl8 O8"
_cell_length_a       7.316423960000733
_cell_length_b       9.863584229046332
_cell_length_c       15.942426014559103
_cell_angle_alpha    104.2559477068998
_cell_angle_beta     89.99994871946919
_cell_angle_gamma    90.00001488087794

_space_group_name_H-M_alt    "P 1"
_space_group_IT_number       1

loop_
  _space_group_symop_operation_xyz
  'x, y, z'

loop_
  _atom_site_type_symbol
  _atom_site_label
  _atom_site_symmetry_multiplicity
  _atom_site_fract_x
  _atom_site_fract_y
  _atom_site_fract_z
  _atom_site_occupancy
  Hg  Hg1       1.0  0.2570852530667764  0.9996456782438158  0.9206338096351558  1.0000
  Hg  Hg2       1.0  0.7570851407027135  0.00035476440004350015  0.5793665890836053  1.0000
  Hg  Hg3       1.0  0.7429147713983184  0.00035417524066619994  0.07936658447285079  1.0000
  Hg  Hg4       1.0  0.24291351697447544  0.9996461351269516  0.4206339639873348  1.0000
  H   H1        1.0  0.9374287477544742  0.4857978450250825  0.6260968511507841  1.0000
  H   H2        1.0  0.43742878148344744  0.5142026025899252  0.8739028470618918  1.0000
  H   H3        1.0  0.06256990992329751  0.5142020077762481  0.373902915596446  1.0000
  H   H4        1.0  0.5625712429822871  0.485798296253975  0.12609707864772446  1.0000
  H   H5        1.0  0.08165539643289321  0.485767547356559  0.7173865774454171  1.0000
  H   H6        1.0  0.5816564339140057  0.5142318430614381  0.7826131061015005  1.0000
  H   H7        1.0  0.9183432612448785  0.5142323054447784  0.28261318930182  1.0000
  H   H8        1.0  0.4183435905516718  0.4857669636973867  0.21738650168279613  1.0000
  H   H9        1.0  0.3198113461719316  0.6729457228937931  0.765377166942386  1.0000
  H   H10       1.0  0.8198110450512675  0.3270547217166992  0.7346232063355201  1.0000
  H   H11       1.0  0.6801886782937744  0.327054129907566  0.2346225998045739  1.0000
  H   H12       1.0  0.18019034620112256  0.6729440864083855  0.26537765617059955  1.0000
  H   H13       1.0  0.3517669277470149  0.8035219110717334  0.7071844526819502  1.0000
  H   H14       1.0  0.8517678341311027  0.19647853454067388  0.7928159076349318  1.0000
  H   H15       1.0  0.6482317299307497  0.19647794172960434  0.29281531406527955  1.0000
  H   H16       1.0  0.14823219033401358  0.8035223649863495  0.20718464543573126  1.0000
  H   H17       1.0  0.1432826904222821  0.8085329142581797  0.5777430749305665  1.0000
  H   H18       1.0  0.6432819755894174  0.19146752481763227  0.9222573699451713  1.0000
  H   H19       1.0  0.8567173340428127  0.1914669392262951  0.4222573191774401  1.0000
  H   H20       1.0  0.35671804887570613  0.808533374709384  0.07774318312549158  1.0000
  H   H21       1.0  0.973717079894989  0.6757303444430818  0.5449278717415993  1.0000
  H   H22       1.0  0.47371688872140544  0.3242701043096616  0.9550718117530508  1.0000
  H   H23       1.0  0.026282944570716907  0.3242695083582774  0.4550718950053607  1.0000
  H   H24       1.0  0.526283135744329  0.675730794534232  0.04492811395656564  1.0000
  H   H25       1.0  0.6859807193260821  0.7969172761226203  0.7350621380098515  1.0000
  H   H26       1.0  0.18598085690025812  0.20308211756624667  0.7649375032242318  1.0000
  H   H27       1.0  0.3140193051390128  0.20308257736185448  0.26493825609815497  1.0000
  H   H28       1.0  0.8140205343533823  0.7969177352351265  0.23506226352244397  1.0000
  H   H29       1.0  0.713986279107047  0.6677868290180838  0.6350927174130092  1.0000
  H   H30       1.0  0.21398626671813764  0.33221361227449364  0.8649076987861264  1.0000
  H   H31       1.0  0.2860137453580762  0.3322140705089324  0.3649078356576609  1.0000
  H   H32       1.0  0.7860137577469575  0.6677862412099812  0.13509269532188029  1.0000
  H   H33       1.0  0.11096078802473391  0.9785251636780716  0.711999380207601  1.0000
  H   H34       1.0  0.6109602757865105  0.021475274384371797  0.7880010777774445  1.0000
  H   H35       1.0  0.889039236440361  0.0214746898064107  0.2880010139004056  1.0000
  H   H36       1.0  0.3890397486785774  0.97852457910011  0.21199931633056218  1.0000
  H   H37       1.0  0.9166767423347439  0.9771046006991068  0.7799329552446537  1.0000
  H   H38       1.0  0.4166769044505827  0.022894801588975597  0.7200678471441931  1.0000
  H   H39       1.0  0.08332191534241672  0.022895252785346498  0.22006743886363006  1.0000
  H   H40       1.0  0.5833231200145123  0.9771050518955066  0.2799325469638135  1.0000
  H   H41       1.0  0.04795577659690761  0.6680227913949749  0.8489224425154163  1.0000
  H   H42       1.0  0.5479556402835045  0.3319765979664239  0.6510772546998709  1.0000
  H   H43       1.0  0.95204424786877  0.33197601536384264  0.1510771652688803  1.0000
  H   H44       1.0  0.4520443841815905  0.668023255518051  0.3489231394081358  1.0000
  H   H45       1.0  0.8770630229956924  0.7992915208046724  0.8552327990078297  1.0000
  H   H46       1.0  0.3770633943173181  0.20070787955828706  0.6447673920867344  1.0000
  H   H47       1.0  0.12293563468143283  0.2007072866372467  0.14476743613779766  1.0000
  H   H48       1.0  0.6229366301477484  0.7992909278836534  0.35523284305860864  1.0000
  C   C1        1.0  0.15134117394779886  0.6458681412878916  0.6491394771642334  1.0000
  C   C2        1.0  0.6513406554006879  0.3541322973574665  0.8508603370819969  1.0000
  C   C3        1.0  0.8486588505179072  0.35413171151346745  0.3508602895827195  1.0000
  C   C4        1.0  0.3486593690650183  0.6458675554438925  0.14913942966495597  1.0000
  C   C5        1.0  0.0102831438079107  0.5518880924257343  0.6815118945991614  1.0000
  C   C6        1.0  0.5102840881245428  0.44811234179707776  0.818487976858094  1.0000
  C   C7        1.0  0.989715513869861  0.44811176037559625  0.3184878721480686  1.0000
  C   C8        1.0  0.4897173031290977  0.5518875110043026  0.1815117898885816  1.0000
  C   C9        1.0  0.24982775109959485  0.7370640020243826  0.7281086621016968  1.0000
  C   C10       1.0  0.7498273547941781  0.26293539434938396  0.771891580598016  1.0000
  C   C11       1.0  0.7501722733661114  0.2629358507769695  0.2718911046452632  1.0000
  C   C12       1.0  0.25017266967088864  0.7370634130925565  0.22810865454733428  1.0000
  C   C13       1.0  0.0475500955579164  0.739469634729204  0.600487455773262  1.0000
  C   C14       1.0  0.5475494492887735  0.26052975461946914  0.899512241606665  1.0000
  C   C15       1.0  0.9524499289077896  0.26053021807215515  0.399512310973698  1.0000
  C   C16       1.0  0.4524505751769326  0.739470098181883  0.1004875251402879  1.0000
  C   C17       1.0  0.7855389508850692  0.7325161229199749  0.6911989699735486  1.0000
  C   C18       1.0  0.28553765858163876  0.26748432061596356  0.8088014172049965  1.0000
  C   C19       1.0  0.21446107358005406  0.26748477660704845  0.3088015830971145  1.0000
  C   C20       1.0  0.714462365883456  0.7325155328685112  0.19119897690301002  1.0000
  C   C21       1.0  0.014013118281695802  0.9113285302131474  0.7354922252199785  1.0000
  C   C22       1.0  0.5140126754145129  0.08867190480971492  0.7645082720857772  1.0000
  C   C23       1.0  0.9859869061833921  0.0886713232713348  0.2645081688880282  1.0000
  C   C24       1.0  0.4859873490505748  0.911327948674767  0.23549212202222947  1.0000
  C   C25       1.0  0.9767811672540887  0.7329536547507374  0.8125481168778067  1.0000
  C   C26       1.0  0.47678147846473007  0.26704574873866693  0.6874520337723737  1.0000
  C   C27       1.0  0.023218857210977703  0.26704515269120327  0.1874521182675366  1.0000
  C   C28       1.0  0.5232185460009477  0.7329530580201506  0.3125475740119228  1.0000
  N   N1        1.0  0.28407135881234075  0.5535255424238555  0.5899101426832516  1.0000
  N   N2        1.0  0.7840734905337784  0.44647385365734493  0.9100888314050763  1.0000
  N   N3        1.0  0.7159259320787187  0.44647430901121493  0.41008836934216214  1.0000
  N   N4        1.0  0.21593063429631343  0.5535249524184136  0.08991014901733509  1.0000
  N   N5        1.0  0.8808026414467706  0.6438371986481356  0.7385799140731492  1.0000
  N   N6        1.0  0.38080283944967164  0.3561632478746047  0.7614204344673751  1.0000
  N   N7        1.0  0.11919738301832442  0.35616265483633913  0.2614204800348574  1.0000
  N   N8        1.0  0.6191985518039687  0.6438366049267684  0.2385793322793077  1.0000
  N   N9        1.0  0.11225777245334  0.8252396173789691  0.7842365014819065  1.0000
  N   N10       1.0  0.6122574548596094  0.17476082072413848  0.7157639559770599  1.0000
  N   N11       1.0  0.8877422520117549  0.17476023610551286  0.21576389262610007  1.0000
  N   N12       1.0  0.3877425696060969  0.8252390320772206  0.2842358107698927  1.0000
  N   N13       1.0  0.9151774660018787  0.8260096876804041  0.6606055438360556  1.0000
  N   N14       1.0  0.4151774480528446  0.1739907606032034  0.8393954181235728  1.0000
  N   N15       1.0  0.0848225584632445  0.17399121184661226  0.3393950092346145  1.0000
  N   N16       1.0  0.5848225764122791  0.826010138923813  0.1606051349470903  1.0000
  Cl  Cl1       1.0  0.9921490909131664  0.1490070016272327  0.9536590994214009  1.0000
  Cl  Cl2       1.0  0.4921498819006801  0.8509944944290807  0.5463413629209697  1.0000
  Cl  Cl3       1.0  0.0078509335525609  0.8509938972166607  0.04634082628821553  1.0000
  Cl  Cl4       1.0  0.5078501425644717  0.1490074511404771  0.4536593491123568  1.0000
  Cl  Cl5       1.0  0.5242895470056652  0.8500590530389329  0.908050103048616  1.0000
  Cl  Cl6       1.0  0.024290003666180806  0.14994138162301598  0.5919497627279212  1.0000
  Cl  Cl7       1.0  0.47570911067213484  0.14994184580494616  0.09194982266127738  1.0000
  Cl  Cl8       1.0  0.9757100207995538  0.8500595172208848  0.40805016298169516  1.0000
  O   O1        1.0  0.23050426856111272  0.49690817776744467  0.5157064356554173  1.0000
  O   O2        1.0  0.7305076420304388  0.5030912180005415  0.9842938148808855  1.0000
  O   O3        1.0  0.7694902887522377  0.5030916757169521  0.4842939584536978  1.0000
  O   O4        1.0  0.2694951160111359  0.4969086348008601  0.015705951865520287  1.0000
  O   O5        1.0  0.4366116946851052  0.5352096208483557  0.619081083815665  1.0000
  O   O6        1.0  0.9366125229716857  0.4647918707342171  0.8809168916077539  1.0000
  O   O7        1.0  0.5633883297830807  0.46479127526305325  0.3809163324497504  1.0000
  O   O8        1.0  0.06339023507050712  0.5352079813840617  0.11908224777759806  1.0000
