data_image0
_chemical_formula_structural       Al2H48C48N24O12
_chemical_formula_sum              "Al2 H48 C48 N24 O12"
_cell_length_a       3.9184851574408572
_cell_length_b       29.094919159005496
_cell_length_c       29.09482369867634
_cell_angle_alpha    119.9962128451064
_cell_angle_beta     90.00020936822311
_cell_angle_gamma    89.99872971445573

_space_group_name_H-M_alt    "P 1"
_space_group_IT_number       1

loop_
  _space_group_symop_operation_xyz
  'x, y, z'

loop_
  _atom_site_type_symbol
  _atom_site_label
  _atom_site_symmetry_multiplicity
  _atom_site_fract_x
  _atom_site_fract_y
  _atom_site_fract_z
  _atom_site_occupancy
  Al  Al1       1.0  3.579767565750002e-05  0.5000060121545786  0.5000023431826719  1.0000
  Al  Al2       1.0  0.9996802510711831  0.16665958902214567  0.8333478141593956  1.0000
  H   H1        1.0  0.19816652122814563  0.14484212048466105  0.7066803691397112  1.0000
  H   H2        1.0  0.23697695912731123  0.14313878139130753  0.646992584976239  1.0000
  H   H3        1.0  0.8008357380342661  0.29334554223176196  0.8551822219269027  1.0000
  H   H4        1.0  0.7624193321024394  0.35301309344149695  0.8568462986109041  1.0000
  H   H5        1.0  0.8245504082061644  0.37997622652974866  0.7549375460691293  1.0000
  H   H6        1.0  0.030037862723034405  0.3685521563859241  0.7986189900097784  1.0000
  H   H7        1.0  0.17536507679304242  0.24503198096703463  0.6199884807424638  1.0000
  H   H8        1.0  0.9697309322081937  0.20136582669432088  0.6314134326805244  1.0000
  H   H9        1.0  0.8243552915558895  0.28662807202725543  0.578334401510915  1.0000
  H   H10       1.0  0.029904309319917402  0.29804563386637273  0.5346548332495473  1.0000
  H   H11       1.0  0.17557219850246503  0.4216030072925676  0.7133297146427253  1.0000
  H   H12       1.0  0.9700014377088879  0.46528973256810946  0.7019225058587181  1.0000
  H   H13       1.0  0.19877322303585032  0.52183433309046  0.6266821373366793  1.0000
  H   H14       1.0  0.2374825393540121  0.5235085135917712  0.6863527830733104  1.0000
  H   H15       1.0  0.8012049091704655  0.37332222274869037  0.4781487577355036  1.0000
  H   H16       1.0  0.7623924916849064  0.3136428534712009  0.4764568743332518  1.0000
  H   H17       1.0  0.19818831708696652  0.06179920011353358  0.8551593277662803  1.0000
  H   H18       1.0  0.23708443101191531  0.003813412934555186  0.8568546408114983  1.0000
  H   H19       1.0  0.8007590108015422  0.061833837192970795  0.7066592818117384  1.0000
  H   H20       1.0  0.7622291982850556  0.00384507561616224  0.6469839841387638  1.0000
  H   H21       1.0  0.8245267285254487  0.8749669746086112  0.6200109495163488  1.0000
  H   H22       1.0  0.029912857221575002  0.9300746714861674  0.631427610901504  1.0000
  H   H23       1.0  0.1754557904768888  0.8749303590899655  0.7549581977579862  1.0000
  H   H24       1.0  0.969798107254505  0.9300135229913521  0.7986354578992162  1.0000
  H   H25       1.0  0.8242672796424344  0.7917024155259825  0.7133556389328248  1.0000
  H   H26       1.0  0.029805333786178796  0.7366088357904131  0.7019511596152057  1.0000
  H   H27       1.0  0.17555098780193393  0.7917213023053405  0.5783697070464697  1.0000
  H   H28       1.0  0.9700216312664197  0.736628160414547  0.5346816254377699  1.0000
  H   H29       1.0  0.19878460420893163  0.6048544866521723  0.47815858337524725  1.0000
  H   H30       1.0  0.23754605132923257  0.6628405407777506  0.4764723826503427  1.0000
  H   H31       1.0  0.8011719002548505  0.6048336190055181  0.6266836922570747  1.0000
  H   H32       1.0  0.7623095610067451  0.6628134880474262  0.6863571276824914  1.0000
  H   H33       1.0  0.1982337808914991  0.2933236524883611  0.9381749134145778  1.0000
  H   H34       1.0  0.23715903486675677  0.35301009829650815  0.996147015519611  1.0000
  H   H35       1.0  0.8007945151457606  0.14481837632789055  0.9382033828191823  1.0000
  H   H36       1.0  0.7622930579627437  0.1431520496005659  0.9962038781490462  1.0000
  H   H37       1.0  0.8244912019406457  0.24506828504180325  0.1250683137302246  1.0000
  H   H38       1.0  0.029946474480972502  0.2013751306848803  0.06996591410447191  1.0000
  H   H39       1.0  0.17543628087606322  0.3800292314390674  0.12504735838535905  1.0000
  H   H40       1.0  0.9698352601096474  0.368612002661429  0.06995437762850536  1.0000
  H   H41       1.0  0.8242745895847391  0.4216785926414559  0.20829618325574734  1.0000
  H   H42       1.0  0.029804749186794807  0.4653636166408361  0.26338970813751683  1.0000
  H   H43       1.0  0.17560863432579776  0.28667907097494083  0.208291740352152  1.0000
  H   H44       1.0  0.9700685519173435  0.2980807754795122  0.26338700687940525  1.0000
  H   H45       1.0  0.1988233572820661  0.37332170974180207  0.39515888311469644  1.0000
  H   H46       1.0  0.23759139090435613  0.31365750446966695  0.337174606853452  1.0000
  H   H47       1.0  0.8011950916209187  0.5218601122440631  0.39516292708344025  1.0000
  H   H48       1.0  0.7622992909454214  0.5235553844916369  0.33718253234600587  1.0000
  C   C1        1.0  0.500031743375736  0.458505743166974  0.41699399217195326  1.0000
  C   C2        1.0  0.5000227495690979  0.45849802497149733  0.5415049082071022  1.0000
  C   C3        1.0  0.5000049897940215  0.58301443739321  0.541502561789514  1.0000
  C   C4        1.0  0.4995963223780466  0.20817660843548658  0.7918451529506568  1.0000
  C   C5        1.0  0.4995911146609019  0.08364776012685841  0.7918283164219986  1.0000
  C   C6        1.0  0.499594985559277  0.20815313994521023  0.9163573846050211  1.0000
  C   C7        1.0  0.49978823394339145  0.23716446927303972  0.7628275444098235  1.0000
  C   C8        1.0  0.3428075326678269  0.21443873064095698  0.7118129488018567  1.0000
  C   C9        1.0  0.34294846587793865  0.2426432691362377  0.684259163491255  1.0000
  C   C10       1.0  0.4999578345411422  0.29307086828607254  0.7068974074447425  1.0000
  C   C11       1.0  0.6568083828222129  0.3157146685372608  0.7573347552401586  1.0000
  C   C12       1.0  0.6567439758133345  0.2881778141548281  0.7855550355894252  1.0000
  C   C13       1.0  0.4999864835980646  0.3211252581064413  0.6788338976378014  1.0000
  C   C14       1.0  0.49997456034772375  0.34548896397672724  0.6544597213884842  1.0000
  C   C15       1.0  0.49996748039584565  0.37356036829457645  0.6264080665944078  1.0000
  C   C16       1.0  0.6568529679793755  0.35091714219749554  0.5759677845430957  1.0000
  C   C17       1.0  0.6569633102431639  0.3784703623710612  0.5477606950300853  1.0000
  C   C18       1.0  0.5000043756143739  0.42948757269255106  0.5705011161585887  1.0000
  C   C19       1.0  0.34304488019994045  0.45221743266056086  0.6215173879892291  1.0000
  C   C20       1.0  0.3431055562078313  0.423999291618152  0.6490579679010864  1.0000
  C   C21       1.0  0.4997423661985324  0.025644619001020837  0.7628335699819572  1.0000
  C   C22       1.0  0.34276842517769524  0.997349950058627  0.7855532408567569  1.0000
  C   C23       1.0  0.3429220999331122  0.9415970875607016  0.7573470606033297  1.0000
  C   C24       1.0  0.4999227394935916  0.9138165052821419  0.7069177679904185  1.0000
  C   C25       1.0  0.6566982544972078  0.9416158685999392  0.6842736868333432  1.0000
  C   C26       1.0  0.6567027976195164  0.9973700449172112  0.7118179908834177  1.0000
  C   C27       1.0  0.4999309735439042  0.8576958804653287  0.6788518336941324  1.0000
  C   C28       1.0  0.49995410757387765  0.8089643446996319  0.6544867777820897  1.0000
  C   C29       1.0  0.49993171775095396  0.7528408885923241  0.6264243622603445  1.0000
  C   C30       1.0  0.6567799499957446  0.7250491042436734  0.6490756888851904  1.0000
  C   C31       1.0  0.6568851432520902  0.6692925362408886  0.6215262151295846  1.0000
  C   C32       1.0  0.4999711306714617  0.6410175208514062  0.5705083634373623  1.0000
  C   C33       1.0  0.34301568338686655  0.6693033069068335  0.5477747663997405  1.0000
  C   C34       1.0  0.3431044492098181  0.7250574371839277  0.5759838023199392  1.0000
  C   C35       1.0  0.49973159946090107  0.23717064501879281  0.9743592648477842  1.0000
  C   C36       1.0  0.3427935946767916  0.2881889948495342  0.0026381041591321368  1.0000
  C   C37       1.0  0.34296855515091806  0.31574928753288833  0.05839297318193804  1.0000
  C   C38       1.0  0.49992115738605497  0.2931088140877804  0.08618768448469892  1.0000
  C   C39       1.0  0.656737095565454  0.24266747142630146  0.058404866782275584  1.0000
  C   C40       1.0  0.656707639622198  0.21444530523500296  0.0026513132752370135  1.0000
  C   C41       1.0  0.49995317817109003  0.3211781606227433  0.1423071431197656  1.0000
  C   C42       1.0  0.49997003933158635  0.3455473018391189  0.19104093964772056  1.0000
  C   C43       1.0  0.49995867679041345  0.3736046255140053  0.24716623503449137  1.0000
  C   C44       1.0  0.6568175266733861  0.42404129097840126  0.2749499953204618  1.0000
  C   C45       1.0  0.6569567199313796  0.4522473874553797  0.3307093077634136  1.0000
  C   C46       1.0  0.5000048644511423  0.42950927845811293  0.35898894268304826  1.0000
  C   C47       1.0  0.3430643805418613  0.37849562764257877  0.330711937821242  1.0000
  C   C48       1.0  0.3431139956530843  0.35095109906821165  0.27495298915843586  1.0000
  N   N1        1.0  0.18560668173274314  0.1649278790420681  0.6864893507245142  1.0000
  N   N2        1.0  0.8137627843821778  0.3135134456811742  0.8350801329841104  1.0000
  N   N3        1.0  0.7996591890253768  0.36685654456626776  0.7813579878778754  1.0000
  N   N4        1.0  0.20015955095610855  0.2186168412260443  0.6331154930208669  1.0000
  N   N5        1.0  0.7995334211105458  0.29976615128807527  0.5519287121448428  1.0000
  N   N6        1.0  0.20037597260486004  0.4480201868980556  0.7002060056660823  1.0000
  N   N7        1.0  0.18600439744102462  0.501739024114535  0.6468607899665316  1.0000
  N   N8        1.0  0.8139638104677474  0.353132143651223  0.4982330743810408  1.0000
  N   N9        1.0  0.18559896300125442  0.021529130226433137  0.8350718049368168  1.0000
  N   N10       1.0  0.813674409834043  0.0215634026549052  0.686478561310011  1.0000
  N   N11       1.0  0.7995581778998899  0.9145051247848313  0.6331326662474551  1.0000
  N   N12       1.0  0.20020811401450803  0.9144700043074251  0.7813726725307361  1.0000
  N   N13       1.0  0.7994487334161208  0.752163232470991  0.7002268630236158  1.0000
  N   N14       1.0  0.20038925655904902  0.7521824286322456  0.5519556797122932  1.0000
  N   N15       1.0  0.18601977276357223  0.6451236616048845  0.49824914288340943  1.0000
  N   N16       1.0  0.813888855423997  0.6451069812372836  0.6468689656037228  1.0000
  N   N17       1.0  0.18564390008168632  0.31351922677461613  0.9784491838497331  1.0000
  N   N18       1.0  0.8137042900662977  0.16491861498525387  0.9784732408756937  1.0000
  N   N19       1.0  0.7995720744657789  0.2186464172031251  0.085529789698775  1.0000
  N   N20       1.0  0.20023964409833184  0.3668960259201625  0.08550402738090673  1.0000
  N   N21       1.0  0.7994576613144205  0.4480849168457937  0.24783734721461304  1.0000
  N   N22       1.0  0.20042393612811082  0.29980180862503397  0.24783301080834966  1.0000
  N   N23       1.0  0.18607181129718237  0.3531466104431684  0.3548875877036223  1.0000
  N   N24       1.0  0.8139151181234541  0.5017742432748163  0.3548896166567772  1.0000
  O   O1        1.0  0.7323897765271  0.5579964495043368  0.5517649150185021  1.0000
  O   O2        1.0  0.7324053611524094  0.4937815192981673  0.4420064143198488  1.0000
  O   O3        1.0  0.732403645308338  0.4482383399580029  0.50622846535056  1.0000
  O   O4        1.0  0.2676663778718549  0.5579959259946533  0.5062163106270318  1.0000
  O   O5        1.0  0.2676758202693392  0.4937849485392293  0.5517725071418412  1.0000
  O   O6        1.0  0.2676851689093525  0.4482339658801776  0.44201063766539755  1.0000
  O   O7        1.0  0.7318983873970382  0.17285847062169768  0.891336276316771  1.0000
  O   O8        1.0  0.7318694766578916  0.2184474991827372  0.8271426117427936  1.0000
  O   O9        1.0  0.7318935540340378  0.10867312836069928  0.7815633096670852  1.0000
  O   O10       1.0  0.2671956383341225  0.21840701373863408  0.8913360444380203  1.0000
  O   O11       1.0  0.2671914597058134  0.1086674917760036  0.8271051837723107  1.0000
  O   O12       1.0  0.2671692561304155  0.17290339433787935  0.7815866126320827  1.0000
