data_image0
_chemical_formula_structural       Cd3H60C88O24
_chemical_formula_sum              "Cd3 H60 C88 O24"
_cell_length_a       15.32615291231628
_cell_length_b       15.529489955929314
_cell_length_c       17.246576868506526
_cell_angle_alpha    67.20142696940277
_cell_angle_beta     83.23849866736892
_cell_angle_gamma    64.22323795343927

_space_group_name_H-M_alt    "P 1"
_space_group_IT_number       1

loop_
  _space_group_symop_operation_xyz
  'x, y, z'

loop_
  _atom_site_type_symbol
  _atom_site_label
  _atom_site_symmetry_multiplicity
  _atom_site_fract_x
  _atom_site_fract_y
  _atom_site_fract_z
  _atom_site_occupancy
  Cd  Cd1       1.0  0.999992912159655  1.921417208492269e-06  8.991766471032831e-06  1.0000
  Cd  Cd2       1.0  0.8507839941648568  0.190362195982722  0.09464181520299061  1.0000
  Cd  Cd3       1.0  0.1492330894462698  0.8096376969956367  0.9053763576079772  1.0000
  H   H1        1.0  0.5965261022830362  0.2869594121201828  0.9579567463689214  1.0000
  H   H2        1.0  0.40343398917230666  0.7130983502188212  0.0420467745099913  1.0000
  H   H3        1.0  0.4452511235543426  0.34252499377442536  0.8751553000699985  1.0000
  H   H4        1.0  0.5547301997665246  0.657520707058019  0.12483326206749724  1.0000
  H   H5        1.0  0.6187171774209828  0.21366483678021106  0.6980767739737529  1.0000
  H   H6        1.0  0.3812960814288715  0.7863210167042214  0.30196017949128157  1.0000
  H   H7        1.0  0.7685351284089138  0.1517406422868603  0.7851455892266868  1.0000
  H   H8        1.0  0.23146637055695155  0.848259846841799  0.21490663587832862  1.0000
  H   H9        1.0  0.36877624868954245  0.2514969375480476  0.8521894385191258  1.0000
  H   H10       1.0  0.6312353073651236  0.748494884977049  0.14780615208510287  1.0000
  H   H11       1.0  0.08775189775691676  0.4409369071994291  0.7572049482547099  1.0000
  H   H12       1.0  0.9122444580813535  0.559055989839571  0.2427699720786762  1.0000
  H   H13       1.0  0.9719333012345429  0.4077764242234706  0.8678820741748935  1.0000
  H   H14       1.0  0.02805954858507699  0.5922265325307237  0.1320919833853509  1.0000
  H   H15       1.0  0.17278743137678995  0.0881688334263231  0.9748647057766178  1.0000
  H   H16       1.0  0.8272150690645929  0.9118377412794205  0.02515508191762447  1.0000
  H   H17       1.0  0.29150809433627245  0.1221251438515267  0.8687648918875509  1.0000
  H   H18       1.0  0.7084906610536164  0.8778742607379187  0.1312457046511  1.0000
  H   H19       1.0  0.2875400610727609  0.5563920311310682  0.27165875334817  1.0000
  H   H20       1.0  0.712468048286361  0.44360366528626116  0.7283462905514994  1.0000
  H   H21       1.0  0.4704091772866191  0.2151472043518936  0.3860009238898385  1.0000
  H   H22       1.0  0.5295421939314836  0.7848616876059327  0.6139583915764035  1.0000
  H   H23       1.0  0.6034974268838978  0.1500405636474795  0.29782778671442867  1.0000
  H   H24       1.0  0.3964810964423081  0.8499558316722259  0.7021519963560435  1.0000
  H   H25       1.0  0.5700963922267162  0.459286990106918  0.15217077717971245  1.0000
  H   H26       1.0  0.4299640795057158  0.540681171477594  0.8478484972455291  1.0000
  H   H27       1.0  0.4339611652685918  0.5263603150104359  0.23592494753476248  1.0000
  H   H28       1.0  0.5660800748432067  0.4736268062792988  0.764078183363189  1.0000
  H   H29       1.0  0.5147935121263886  0.4436523727464775  0.6697889997548286  1.0000
  H   H30       1.0  0.4852262237314521  0.5563171258694054  0.3302275236911285  1.0000
  H   H31       1.0  0.43908964045313326  0.5351838926528175  0.5757999057828869  1.0000
  H   H32       1.0  0.5609118111855197  0.46480318790796815  0.42422869005286395  1.0000
  H   H33       1.0  0.5654694181644333  0.4594023964640853  0.5690698895205697  1.0000
  H   H34       1.0  0.4345348701274504  0.5405948077196996  0.4309420148098295  1.0000
  H   H35       1.0  0.09871427880448641  0.30031498819109703  0.5900565344592434  1.0000
  H   H36       1.0  0.9012743115414568  0.6996849129299675  0.40994751561304793  1.0000
  H   H37       1.0  0.11244204630961013  0.2696984795662587  0.700365942292059  1.0000
  H   H38       1.0  0.8876177236675246  0.7302407108397232  0.2996417033827612  1.0000
  H   H39       1.0  0.21215934605596953  0.20555836284042073  0.6474479059400905  1.0000
  H   H40       1.0  0.7878637625687903  0.7944311474429427  0.3525036900839281  1.0000
  H   H41       1.0  0.05358766470007485  0.5959566087121929  0.5838701687115558  1.0000
  H   H42       1.0  0.946413455316005  0.4040747647337994  0.41612296316201025  1.0000
  H   H43       1.0  0.061443939255269725  0.5468576222508048  0.5036794110149001  1.0000
  H   H44       1.0  0.9385824429610565  0.4531214326567363  0.4963416402952561  1.0000
  H   H45       1.0  0.046361871896458344  0.6774366424207372  0.4749855021160485  1.0000
  H   H46       1.0  0.9536319190060637  0.3225562138929234  0.5249932068863998  1.0000
  H   H47       1.0  0.4905554924847664  0.11934385051733189  0.5579996768252113  1.0000
  H   H48       1.0  0.5094160847924559  0.8806484356436569  0.44197367142148636  1.0000
  H   H49       1.0  0.3696241628790133  0.20064785172056782  0.5748416333651177  1.0000
  H   H50       1.0  0.6303349138076444  0.7993580591639213  0.4251097403847125  1.0000
  H   H51       1.0  0.4723474926189369  0.18710671140910756  0.6265438072357341  1.0000
  H   H52       1.0  0.5275968660891978  0.8128430189443631  0.3734762517753012  1.0000
  H   H53       1.0  0.0629222700613571  0.9197727812143054  0.33671757246600725  1.0000
  H   H54       1.0  0.9370863780359714  0.08022597866731469  0.6632747202152982  1.0000
  H   H55       1.0  0.18045210135315431  0.7399728281803276  0.4221039270819631  1.0000
  H   H56       1.0  0.8195375997728648  0.26001611821403975  0.577891142494856  1.0000
  H   H57       1.0  0.1134556688998886  0.6298407662420258  0.2526809638800104  1.0000
  H   H58       1.0  0.8865418820433746  0.3701530502432674  0.7473132069450799  1.0000
  H   H59       1.0  0.9957462666672329  0.8085640628893033  0.17016940330253055  1.0000
  H   H60       1.0  0.004274671064635532  0.1914473844151203  0.829804777028478  1.0000
  C   C1        1.0  0.6913622730056161  0.2155397272470054  0.8766813997946343  1.0000
  C   C2        1.0  0.3086184439001942  0.7845147015911352  0.123334274600289  1.0000
  C   C3        1.0  0.6001052522122022  0.2703707951889172  0.9014496503603977  1.0000
  C   C4        1.0  0.3998707132196488  0.7296834193725983  0.09854867075343779  1.0000
  C   C5        1.0  0.5162048172515697  0.3011802488448012  0.8550711327551425  1.0000
  C   C6        1.0  0.48377945102434694  0.698856980236229  0.14492532902318803  1.0000
  C   C7        1.0  0.5214184763998091  0.2811692201154088  0.7812499226984144  1.0000
  C   C8        1.0  0.4785860199436768  0.7188560787185666  0.21875890291123307  1.0000
  C   C9        1.0  0.6135743459150548  0.22932293238646648  0.7552455043669821  1.0000
  C   C10       1.0  0.3864285742346215  0.770687587637397  0.24477978736261727  1.0000
  C   C11       1.0  0.6973564265568016  0.19530798945015695  0.8032753130993056  1.0000
  C   C12       1.0  0.30263198378464307  0.8047247974670172  0.19674603034978583  1.0000
  C   C13       1.0  0.4311215082491417  0.3085926870407789  0.7364066432812706  1.0000
  C   C14       1.0  0.5688756236567658  0.6914167854091388  0.2635964925381629  1.0000
  C   C15       1.0  0.4140229255626196  0.35505533958913554  0.6477297580575865  1.0000
  C   C16       1.0  0.5859800115966537  0.6449433613970751  0.35227654931690483  1.0000
  C   C17       1.0  0.3293757903319303  0.37170978500151364  0.6090683279939313  1.0000
  C   C18       1.0  0.6706234594623197  0.6282926589305191  0.3909254719248239  1.0000
  C   C19       1.0  0.258608052684373  0.3449497214954392  0.659257069739361  1.0000
  C   C20       1.0  0.7414048714976433  0.6550375044238308  0.3407481200260491  1.0000
  C   C21       1.0  0.27105663364871185  0.3044302198204534  0.7478992637796223  1.0000
  C   C22       1.0  0.7289399268640796  0.6955658976304875  0.2520918813561437  1.0000
  C   C23       1.0  0.35790085470541305  0.2857420226527267  0.7836528467969754  1.0000
  C   C24       1.0  0.6421000235865366  0.7142581287720091  0.21634274268658513  1.0000
  C   C25       1.0  0.1973452746829666  0.2836199551118455  0.8063347696567007  1.0000
  C   C26       1.0  0.8026547621869187  0.7163691955353785  0.1936520802179159  1.0000
  C   C27       1.0  0.10621254105857501  0.3638107479448466  0.8050913329144148  1.0000
  C   C28       1.0  0.8937847485264426  0.636170490137026  0.19488879517755453  1.0000
  C   C29       1.0  0.04167305788293878  0.34574249986646066  0.8663559852765558  1.0000
  C   C30       1.0  0.9583132699239058  0.6542571863518275  0.1336199878715335  1.0000
  C   C31       1.0  0.0657863393696445  0.24646760260480954  0.9277728426017405  1.0000
  C   C32       1.0  0.934199785067513  0.753529810528576  0.07221614137327502  1.0000
  C   C33       1.0  0.15558305721592097  0.16551285616669983  0.9279316186847094  1.0000
  C   C34       1.0  0.8444032199088058  0.8344955217181749  0.07206271770773033  1.0000
  C   C35       1.0  0.2212263420101906  0.18458782551977754  0.8684595520545667  1.0000
  C   C36       1.0  0.7787692503975239  0.8154059414687392  0.13153428174254603  1.0000
  C   C37       1.0  0.31586602940594594  0.41704836278423574  0.5156778223483158  1.0000
  C   C38       1.0  0.6841368724441707  0.582964309715983  0.4843142315466978  1.0000
  C   C39       1.0  0.3791300434807567  0.36726384651951344  0.4646843467574087  1.0000
  C   C40       1.0  0.6208818519533923  0.6327349866675078  0.5353069665318486  1.0000
  C   C41       1.0  0.37122074202842015  0.41809017497801904  0.37479363987851844  1.0000
  C   C42       1.0  0.6287879393725717  0.5818915032483218  0.6252151747440279  1.0000
  C   C43       1.0  0.2948291003483946  0.5160337450764485  0.3398819612688014  1.0000
  C   C44       1.0  0.7051660036714298  0.48396631299329573  0.660121863762903  1.0000
  C   C45       1.0  0.22863723841913952  0.5670236391558703  0.38785471623021545  1.0000
  C   C46       1.0  0.7713652010254678  0.43296796501945056  0.6121414205966359  1.0000
  C   C47       1.0  0.2401075302329688  0.515896817435383  0.4769681483647616  1.0000
  C   C48       1.0  0.7598967453920976  0.4841003798564927  0.5230426001366267  1.0000
  C   C49       1.0  0.444152396786535  0.37539634087148244  0.3202430958977373  1.0000
  C   C50       1.0  0.5558526496052353  0.6246015449874632  0.6797481828235447  1.0000
  C   C51       1.0  0.4922547571442451  0.26886108954382587  0.33539646614318736  1.0000
  C   C52       1.0  0.5077185623150697  0.7311382931149738  0.6645816908295997  1.0000
  C   C53       1.0  0.5665322416982265  0.23214085719921235  0.28621814929457656  1.0000
  C   C54       1.0  0.4334492242605919  0.7678532832056604  0.7137644185786911  1.0000
  C   C55       1.0  0.5969361879083975  0.3001060135518614  0.22135150153788888  1.0000
  C   C56       1.0  0.40309028066806024  0.6998705872014311  0.7786495391769179  1.0000
  C   C57       1.0  0.5467467604775962  0.4066440800989142  0.20284596816914297  1.0000
  C   C58       1.0  0.4532961431241133  0.5933361041473758  0.797165822473289  1.0000
  C   C59       1.0  0.4706731126009133  0.4435390785617841  0.25047936380742186  1.0000
  C   C60       1.0  0.5293607277492782  0.5564549070921602  0.7495268103812193  1.0000
  C   C61       1.0  0.5009212334381489  0.4594964594823949  0.6037187342922649  1.0000
  C   C62       1.0  0.49908302017846046  0.5404960622596917  0.39629368315825536  1.0000
  C   C63       1.0  0.1492817478861141  0.278767785867025  0.6412768453460131  1.0000
  C   C64       1.0  0.8507417567350759  0.7212172762998107  0.3587145619844492  1.0000
  C   C65       1.0  0.0795634517132201  0.5981104511534312  0.5214362366429341  1.0000
  C   C66       1.0  0.920450110219079  0.40188611020204956  0.478560333698155  1.0000
  C   C67       1.0  0.44519934746294615  0.1906993261689109  0.568725541385767  1.0000
  C   C68       1.0  0.5547628221695575  0.8092919753846176  0.43125213887653047  1.0000
  C   C69       1.0  0.7810260675245716  0.1778702519483986  0.9300871402411913  1.0000
  C   C70       1.0  0.21896051564623795  0.8221796567221985  0.06993237001580614  1.0000
  C   C71       1.0  0.9958703265337333  0.22519767958262096  0.9919045438842672  1.0000
  C   C72       1.0  0.004115685575769261  0.7748208278768942  0.008087372428477204  1.0000
  C   C73       1.0  0.022623949664925633  0.874667325052279  0.24833507936763502  1.0000
  C   C74       1.0  0.9773691028237295  0.1253357419725845  0.7516574714567595  1.0000
  C   C75       1.0  0.07406704810684771  0.8549902033139036  0.3199743527145528  1.0000
  C   C76       1.0  0.925932737734307  0.1450013118926563  0.6800174819782967  1.0000
  C   C77       1.0  0.13929317512208433  0.7549305327350383  0.3672307232509055  1.0000
  C   C78       1.0  0.8607024172856299  0.24506323425347887  0.6327631105462074  1.0000
  C   C79       1.0  0.15499235343464335  0.6724942911980207  0.34325681442539474  1.0000
  C   C80       1.0  0.8450034806601535  0.32749244257329485  0.6567348593316281  1.0000
  C   C81       1.0  0.10275496612595005  0.6930353811571024  0.271520977491832  1.0000
  C   C82       1.0  0.8972462065258355  0.3069608747593691  0.7284748068059059  1.0000
  C   C83       1.0  0.03682832694250499  0.7926651338414314  0.22524467663548356  1.0000
  C   C84       1.0  0.9631795954226304  0.20733512440904892  0.7747396271363911  1.0000
  C   C85       1.0  0.6830541868177562  0.2588916243747049  0.1744238864806462  1.0000
  C   C86       1.0  0.3169717489850542  0.7410617073339053  0.8256063841975131  1.0000
  C   C87       1.0  0.9558317723195487  0.9821842300545071  0.19428570265957032  1.0000
  C   C88       1.0  0.0441667730651574  0.017813505747682295  0.8057069569313098  1.0000
  O   O1        1.0  0.481595656511729  0.38027385575853856  0.5957556196709106  1.0000
  O   O2        1.0  0.5184140936949646  0.6197288820212705  0.4042449863227587  1.0000
  O   O3        1.0  0.17920550467432161  0.36143595446566923  0.616535047814878  1.0000
  O   O4        1.0  0.8208037154648763  0.6385487872249626  0.3834610155893117  1.0000
  O   O5        1.0  0.18354271309429748  0.5602297531998773  0.5304430916424748  1.0000
  O   O6        1.0  0.8164664407396459  0.4397885440577198  0.46955029773940987  1.0000
  O   O7        1.0  0.45350034722635957  0.2718903061742353  0.4957063545740183  1.0000
  O   O8        1.0  0.5465042807619512  0.7281045816936285  0.5043086557412052  1.0000
  O   O9        1.0  0.8533238932095342  0.09727188740167492  0.9277668951620939  1.0000
  O   O10       1.0  0.1466669227667696  0.9027975542596991  0.072237048416298  1.0000
  O   O11       1.0  0.775165922838852  0.23121259455395907  0.9722911612196794  1.0000
  O   O12       1.0  0.22481121099276902  0.7688207615730392  0.027741133789220444  1.0000
  O   O13       1.0  0.7005467902050667  0.17775188128997138  0.16193171003758522  1.0000
  O   O14       1.0  0.2994518584677337  0.822219483784622  0.8380912118538927  1.0000
  O   O15       1.0  0.737501108767951  0.3066909209584239  0.14933531233833716  1.0000
  O   O16       1.0  0.26254640755473707  0.6932412117934845  0.8507191681959583  1.0000
  O   O17       1.0  0.9180659911876251  0.9963164927336762  0.12518450121555696  1.0000
  O   O18       1.0  0.08191935282424369  0.003684890152619901  0.874819394017905  1.0000
  O   O19       1.0  0.0061426759054726224  0.1315738651026237  0.028299167055791895  1.0000
  O   O20       1.0  0.9938403442089767  0.8684478170310896  0.9717145767674253  1.0000
  O   O21       1.0  0.9288609058128755  0.2979056286449834  0.009506591816844396  1.0000
  O   O22       1.0  0.07112478095555733  0.7021276391414945  0.9904737225785067  1.0000
  O   O23       1.0  0.9389910503074148  0.05549842375784661  0.21802189088423762  1.0000
  O   O24       1.0  0.0610188879108764  0.9444925880251843  0.7819753344459528  1.0000
