data_image0
_chemical_formula_structural       Zn2H26C56I10N2O8
_chemical_formula_sum              "Zn2 H26 C56 I10 N2 O8"
_cell_length_a       10.976562601272764
_cell_length_b       18.40968303770201
_cell_length_c       19.569883552671314
_cell_angle_alpha    87.79287500564233
_cell_angle_beta     88.60782619690455
_cell_angle_gamma    92.04253763393548

_space_group_name_H-M_alt    "P 1"
_space_group_IT_number       1

loop_
  _space_group_symop_operation_xyz
  'x, y, z'

loop_
  _atom_site_type_symbol
  _atom_site_label
  _atom_site_symmetry_multiplicity
  _atom_site_fract_x
  _atom_site_fract_y
  _atom_site_fract_z
  _atom_site_occupancy
  Zn  Zn1       1.0  0.5093678753219776  0.5788869545434777  0.4960421648185191  1.0000
  Zn  Zn2       1.0  0.49065403443744765  0.4211100647848767  0.5039603801042605  1.0000
  H   H1        1.0  0.5538194875893651  0.6169554989037918  0.7119981130824017  1.0000
  H   H2        1.0  0.4461440235549362  0.3830386186747318  0.2880036407080624  1.0000
  H   H3        1.0  0.66241677438353  0.5732993847175436  0.9358276662572962  1.0000
  H   H4        1.0  0.3375592921229967  0.42668830401098745  0.0641797325773013  1.0000
  H   H5        1.0  0.3875120069527043  0.684280196390631  0.5667003600870261  1.0000
  H   H6        1.0  0.6124880831658784  0.3157155943075338  0.4332907122418703  1.0000
  H   H7        1.0  0.5315668253756981  0.0736144885090155  0.39147844473041  1.0000
  H   H8        1.0  0.46846161729889246  0.9263891138573754  0.6085258986442242  1.0000
  H   H9        1.0  0.8262023490104012  0.5339019686232688  0.3406965824219839  1.0000
  H   H10       1.0  0.17380438475012738  0.4661058010844172  0.6592997240330547  1.0000
  H   H11       1.0  0.7516191992341132  0.4795821333451329  0.23457942042168164  1.0000
  H   H12       1.0  0.24836844806637975  0.5204280990507754  0.7654180619229295  1.0000
  H   H13       1.0  0.6535566783753382  0.5722589326081077  0.06212966018704691  1.0000
  H   H14       1.0  0.34641138974618  0.4277357629097763  0.9378740706705031  1.0000
  H   H15       1.0  0.36696192257364396  0.817863940117469  0.5741625955733627  1.0000
  H   H16       1.0  0.633050099924013  0.1821373497266308  0.42583586301795867  1.0000
  H   H17       1.0  0.6644794902153349  0.8452686268282504  0.42484353283091997  1.0000
  H   H18       1.0  0.33556069101672387  0.15473181589563004  0.5751648468756941  1.0000
  H   H19       1.0  0.5419302152765296  0.9400103394896318  0.390875704733567  1.0000
  H   H20       1.0  0.4580880135407028  0.05998710500904989  0.609133003444697  1.0000
  H   H21       1.0  0.46261775805119504  0.38824121145373164  0.7191357560142677  1.0000
  H   H22       1.0  0.5373794837291257  0.6117528047885868  0.2808645933784248  1.0000
  H   H23       1.0  0.4624091611301893  0.386228702148223  0.8465458951999666  1.0000
  H   H24       1.0  0.5375753728147146  0.6137678522107777  0.1534560663443969  1.0000
  H   H25       1.0  0.5584727444643249  0.6154759325940728  0.839094641793615  1.0000
  H   H26       1.0  0.4414699555164958  0.3845249568033608  0.1609097286569465  1.0000
  C   C1        1.0  0.49849179998016496  0.4962668785254533  0.3681805888119385  1.0000
  C   C2        1.0  0.5015138675584438  0.5037364630366171  0.6318214661612132  1.0000
  C   C3        1.0  0.127410898344742  0.5112955406616491  0.4977122886001413  1.0000
  C   C4        1.0  0.8726122398598904  0.48871242643811985  0.5022848475426686  1.0000
  C   C5        1.0  0.059694691646598096  0.5322758570199254  0.5552211540769251  1.0000
  C   C6        1.0  0.9403218997274008  0.46772602878786507  0.44477774790405533  1.0000
  C   C7        1.0  0.48217143729010564  0.43778182826228124  0.7462097600461777  1.0000
  C   C8        1.0  0.517812299748229  0.5622169797958777  0.25378448665758674  1.0000
  C   C9        1.0  0.4818139817407782  0.4371139230786837  0.8172610338850816  1.0000
  C   C10       1.0  0.5181704592265246  0.5628788306686373  0.18274051646793776  1.0000
  C   C11       1.0  0.5093132780150356  0.5009340825382581  0.8520465726840598  1.0000
  C   C12       1.0  0.49065116865988756  0.4990611282716059  0.1479556530418336  1.0000
  C   C13       1.0  0.5383600450732401  0.5652990380284421  0.8130839996278284  1.0000
  C   C14       1.0  0.4615909185089108  0.43470361151405956  0.18691818666565754  1.0000
  C   C15       1.0  0.5357665505695336  0.5664834074104589  0.7420391865325158  1.0000
  C   C16       1.0  0.4642015787986011  0.43351504065422103  0.2579690453228451  1.0000
  C   C17       1.0  0.5071657926188422  0.5027621851070094  0.7080168979421942  1.0000
  C   C18       1.0  0.49282049359511143  0.49723323882471243  0.2919906942491437  1.0000
  C   C19       1.0  0.5897329853076839  0.5419791391013717  0.9638017338117564  1.0000
  C   C20       1.0  0.4102270191495023  0.45801985019985375  0.036197889296133205  1.0000
  C   C21       1.0  0.5847117144602051  0.5414060594673628  0.03490005830707331  1.0000
  C   C22       1.0  0.4152573189728912  0.45858925156824865  0.9650985352926397  1.0000
  C   C23       1.0  0.7351336977789201  0.48295562031642447  0.5012501612300541  1.0000
  C   C24       1.0  0.2648945411249599  0.5170398310156867  0.4987538852783474  1.0000
  C   C25       1.0  0.4948160841179501  0.4995108356671165  0.07256427919783452  1.0000
  C   C26       1.0  0.5051393455465032  0.5004870258838138  0.9274338923594101  1.0000
  C   C27       1.0  0.44710246858524977  0.7224768029449391  0.5365813857054746  1.0000
  C   C28       1.0  0.5529112745831454  0.2775212173092426  0.46341969334051925  1.0000
  C   C29       1.0  0.43696277514062837  0.7969846716714953  0.5404883346854774  1.0000
  C   C30       1.0  0.5630492057432831  0.2030160323130089  0.4595137167771455  1.0000
  C   C31       1.0  0.5140823723952366  0.8437543987630461  0.4991357696499535  1.0000
  C   C32       1.0  0.48592958677312476  0.15624470385353106  0.5008637685555399  1.0000
  C   C33       1.0  0.5999686810803765  0.8118973303640826  0.456588842099805  1.0000
  C   C34       1.0  0.400052271233875  0.18810013101165174  0.5434213676285822  1.0000
  C   C35       1.0  0.6045570451802007  0.7363669284086355  0.45615991865269484  1.0000
  C   C36       1.0  0.39546938014169086  0.2636269463528365  0.5438375462103053  1.0000
  C   C37       1.0  0.5253991836683412  0.9662943481984382  0.4390451323848197  1.0000
  C   C38       1.0  0.47464197282440074  0.033706202289003784  0.560955056999731  1.0000
  C   C39       1.0  0.5194035374978369  0.041570378417503696  0.43934471016548576  1.0000
  C   C40       1.0  0.4806128421063748  0.9584243898886698  0.5606584674002733  1.0000
  C   C41       1.0  0.4936464088297824  0.07648489608421018  0.5003419492114533  1.0000
  C   C42       1.0  0.5063618041833989  0.9235108731477977  0.4996597624775206  1.0000
  C   C43       1.0  0.8380346246343038  0.324811374425387  0.3197308581557934  1.0000
  C   C44       1.0  0.1619577182674519  0.6752027828403797  0.6802613583507338  1.0000
  C   C45       1.0  0.8798443894532822  0.356301108838167  0.3798461207558788  1.0000
  C   C46       1.0  0.1201506769454994  0.6437130653046521  0.6201475973007791  1.0000
  C   C47       1.0  0.8799553686165709  0.43237051737170157  0.38649300071150355  1.0000
  C   C48       1.0  0.12005601516510471  0.5676405853381324  0.6135021440025668  1.0000
  C   C49       1.0  0.8296949454234973  0.4753430522606052  0.33462767666549104  1.0000
  C   C50       1.0  0.17031460884436458  0.524667495395036  0.6653664813058029  1.0000
  C   C51       1.0  0.7881975234572564  0.4451204698123519  0.275054397510111  1.0000
  C   C52       1.0  0.21181865091963908  0.5548978386086245  0.7249338619446206  1.0000
  C   C53       1.0  0.7957972726073592  0.37036466545049507  0.266494743651549  1.0000
  C   C54       1.0  0.20419223197156094  0.6296461640563747  0.733500146855171  1.0000
  C   C55       1.0  0.0673438765278718  0.48076164147559547  0.4427344339579804  1.0000
  C   C56       1.0  0.9326790816379642  0.5192392561874398  0.557262887963134  1.0000
  I   I1        1.0  0.746994632825853  0.3321658621297274  0.1706437365505735  1.0000
  I   I2        1.0  0.2529764911720136  0.6678419015330306  0.8293611528817736  1.0000
  I   I3        1.0  0.7385261569963928  0.6929758265846074  0.3923041257251114  1.0000
  I   I4        1.0  0.2614900583681745  0.307012941866148  0.6077007427151031  1.0000
  I   I5        1.0  0.8406483810294247  0.21161346008598508  0.3083203795144485  1.0000
  I   I6        1.0  0.1593500633815168  0.7883919876494757  0.691679659065727  1.0000
  I   I7        1.0  0.9476351979510865  0.29305760441270207  0.4615038399572385  1.0000
  I   I8        1.0  0.05237593291138149  0.7069384760937465  0.5384743232171872  1.0000
  I   I9        1.0  0.16859183831660826  0.4584014941575844  0.35313234677379063  1.0000
  I   I10       1.0  0.8313919897492994  0.5416005887337433  0.6468607917345254  1.0000
  N   N1        1.0  0.5292947529116246  0.6919717436408062  0.4947073478959965  1.0000
  N   N2        1.0  0.47071991200458285  0.30802578049301127  0.5052906673766699  1.0000
  O   O1        1.0  0.500988456133939  0.5579639958889542  0.3955896887625557  1.0000
  O   O2        1.0  0.49901991110345284  0.4420393265015149  0.604416935115573  1.0000
  O   O3        1.0  0.50100666820002  0.43442169791364177  0.39956617470354416  1.0000
  O   O4        1.0  0.4990116103627002  0.5655732078142178  0.6004272681536238  1.0000
  O   O5        1.0  0.6852772894304733  0.544118029640856  0.4982535489972619  1.0000
  O   O6        1.0  0.3147481033504889  0.45587199081838026  0.5017470939641626  1.0000
  O   O7        1.0  0.6830001044005556  0.4205583176709878  0.5019843098697265  1.0000
  O   O8        1.0  0.3170362715123929  0.5794334738022612  0.4980161617105594  1.0000
