data_image0
_chemical_formula_structural       Cu2H24C36N2Cl8O12
_chemical_formula_sum              "Cu2 H24 C36 N2 Cl8 O12"
_cell_length_a       9.862553567404458
_cell_length_b       10.867718603362944
_cell_length_c       10.955436292439577
_cell_angle_alpha    63.92077773233026
_cell_angle_beta     79.15531657871544
_cell_angle_gamma    72.22339827374427

_space_group_name_H-M_alt    "P 1"
_space_group_IT_number       1

loop_
  _space_group_symop_operation_xyz
  'x, y, z'

loop_
  _atom_site_type_symbol
  _atom_site_label
  _atom_site_symmetry_multiplicity
  _atom_site_fract_x
  _atom_site_fract_y
  _atom_site_fract_z
  _atom_site_occupancy
  Cu  Cu1       1.0  0.3629737864870108  0.512300399473169  0.48717775168211824  1.0000
  Cu  Cu2       1.0  0.6370933886546055  0.48768507585946014  0.5128294702732603  1.0000
  H   H1        1.0  0.04825099800640932  0.7788222402296373  0.7293382354383553  1.0000
  H   H2        1.0  0.9517470696221578  0.2211753208630399  0.27066002934615335  1.0000
  H   H3        1.0  0.6750830596611618  0.7514091607032756  0.5999248459331807  1.0000
  H   H4        1.0  0.32491243339814696  0.2485863193801877  0.4000775156746456  1.0000
  H   H5        1.0  0.5819540456386247  0.6537212334937906  0.8386228905980032  1.0000
  H   H6        1.0  0.41803989584957435  0.3462763843472345  0.16138153528245172  1.0000
  H   H7        1.0  0.5624374017442901  0.507644317318679  0.07309728327858524  1.0000
  H   H8        1.0  0.4375653394898933  0.4923468718910868  0.9269038952198797  1.0000
  H   H9        1.0  0.4984837356060153  0.6918576509480305  0.038988283291864365  1.0000
  H   H10       1.0  0.5015073699134049  0.3081346929854973  0.9610162127587216  1.0000
  H   H11       1.0  0.16822468205893404  0.8006623901198611  0.9793297947127896  1.0000
  H   H12       1.0  0.8317608936531041  0.19935209919627545  0.020646736819024625  1.0000
  H   H13       1.0  0.3126698960055733  0.11383860045345534  0.024421173302577898  1.0000
  H   H14       1.0  0.6873237689338507  0.8861600429567531  0.9755755463618386  1.0000
  H   H15       1.0  0.4578184995326707  0.15206924241415723  0.8084209264763872  1.0000
  H   H16       1.0  0.5421894135107903  0.8479261584817835  0.1915829862136461  1.0000
  H   H17       1.0  0.6590260022340784  0.045171537987833715  0.5379368099974116  1.0000
  H   H18       1.0  0.3409824336438374  0.9548259971253691  0.46207155033638253  1.0000
  H   H19       1.0  0.6567893166878702  0.028021628940145107  0.7078261554674724  1.0000
  H   H20       1.0  0.34320951817160494  0.971981222017263  0.2921723877353273  1.0000
  H   H21       1.0  0.12885240595226577  0.601089043694337  0.2826561221658892  1.0000
  H   H22       1.0  0.8711614537237079  0.3989116237291484  0.717350840084123  1.0000
  H   H23       1.0  0.8751794454925272  0.5831476507249392  0.2957426408563108  1.0000
  H   H24       1.0  0.124832845573863  0.4168593687845857  0.7042617954503001  1.0000
  C   C1        1.0  0.7607790249337397  0.660378217260373  0.9216184244416609  1.0000
  C   C2        1.0  0.23921567811768085  0.33962467802844293  0.07838354789753768  1.0000
  C   C3        1.0  0.8935846417893741  0.6948372079794896  0.887935028268437  1.0000
  C   C4        1.0  0.10641135706591599  0.30516462064969835  0.11206719076712088  1.0000
  C   C5        1.0  0.9462705552599003  0.7515137586414371  0.75334522243827  1.0000
  C   C6        1.0  0.05372569936262288  0.24848699888981685  0.24665468562830023  1.0000
  C   C7        1.0  0.8658067768881565  0.772762837376945  0.6503564866847285  1.0000
  C   C8        1.0  0.13418896623529256  0.22723581077090685  0.34964443765718295  1.0000
  C   C9        1.0  0.7360135110667156  0.7362724915687339  0.6808324249187194  1.0000
  C   C10       1.0  0.2639809362528708  0.26372722323875314  0.31916825272683974  1.0000
  C   C11       1.0  0.6840177163059664  0.6805509312339384  0.8164660994426638  1.0000
  C   C12       1.0  0.31597750772608174  0.319449842553887  0.1835358042244906  1.0000
  C   C13       1.0  0.5769662820650152  0.5929851646674467  0.09421579385037397  1.0000
  C   C14       1.0  0.42302817851458474  0.4070103275336052  0.9057876527048521  1.0000
  C   C15       1.0  0.5462972773786914  0.5541052629650451  0.24691478172805864  1.0000
  C   C16       1.0  0.4537054751908725  0.4458859510785801  0.7530918606895084  1.0000
  C   C17       1.0  0.39774355196487915  0.9981915567251747  0.7691064157824955  1.0000
  C   C18       1.0  0.6022583898152688  0.0018070269950598986  0.23088982018141732  1.0000
  C   C19       1.0  0.31441996538951855  0.8989447085197998  0.8206267768920199  1.0000
  C   C20       1.0  0.6855739344648056  0.10106132142226443  0.17936482594363679  1.0000
  C   C21       1.0  0.23209050265500503  0.8771368023138069  0.9427354995713983  1.0000
  C   C22       1.0  0.7678927561088427  0.12287879061342015  0.05724733413055822  1.0000
  C   C23       1.0  0.23187577279747265  0.9546759365389762  0.015884403067310912  1.0000
  C   C24       1.0  0.7681137092184682  0.04533539418806501  0.9841019750854089  1.0000
  C   C25       1.0  0.3134162552264285  0.05313243990050153  0.9674990088315312  1.0000
  C   C26       1.0  0.6865758354357253  0.9468725431788131  0.03249245292993667  1.0000
  C   C27       1.0  0.3956331372838732  0.0740918897348806  0.8451376990004249  1.0000
  C   C28       1.0  0.6043680183022458  0.9259098658894023  0.1548563633386094  1.0000
  C   C29       1.0  0.593037263251091  0.07342808018686504  0.6187132706938031  1.0000
  C   C30       1.0  0.40696107336932374  0.92656843878072  0.38128905769401183  1.0000
  C   C31       1.0  0.5557127090550437  0.23526743286484483  0.5664731562839975  1.0000
  C   C32       1.0  0.44429313147208654  0.764727975710379  0.4335292836880881  1.0000
  C   C33       1.0  0.07067277230053287  0.5558075229780713  0.37993568346558954  1.0000
  C   C34       1.0  0.9293361655949112  0.4441963524029051  0.6200707129895661  1.0000
  C   C35       1.0  0.9313188135144868  0.5464129371050249  0.3870239270295173  1.0000
  C   C36       1.0  0.06868675606075672  0.45359201261486964  0.6129807500113387  1.0000
  N   N1        1.0  0.1394832338709548  0.5096814552813385  0.492622863180884  1.0000
  N   N2        1.0  0.8605238910538516  0.49032136495894485  0.5073815708937134  1.0000
  Cl  Cl1       1.0  0.9281776222785607  0.8483484846006063  0.4818106758632867  1.0000
  Cl  Cl2       1.0  0.0718144892005341  0.15165229242818873  0.5181871974205734  1.0000
  Cl  Cl3       1.0  0.9910365314993397  0.6640755819486515  0.018409144616484352  1.0000
  Cl  Cl4       1.0  0.008957381544199394  0.33593472854552436  0.9815924384540936  1.0000
  Cl  Cl5       1.0  0.3157546531760288  0.7982785463943717  0.7339351778046322  1.0000
  Cl  Cl6       1.0  0.6842490656085687  0.20172951698453556  0.26605292945460224  1.0000
  Cl  Cl7       1.0  0.13002614672873122  0.9262489648030373  0.1682710454830667  1.0000
  Cl  Cl8       1.0  0.8699573829516037  0.07376133855879632  0.8317131568127535  1.0000
  O   O1        1.0  0.4283471521162596  0.30258225066067024  0.5369729826092139  1.0000
  O   O2        1.0  0.5716506748589082  0.6974164146417722  0.46303487836975427  1.0000
  O   O3        1.0  0.6605819042722699  0.2826915296446657  0.560195525225005  1.0000
  O   O4        1.0  0.33942368433688586  0.71729645514791  0.4398038356971837  1.0000
  O   O5        1.0  0.4176460314409736  0.5512200745681284  0.2887361449420355  1.0000
  O   O6        1.0  0.5823516116993303  0.4487628127963034  0.7112942091764083  1.0000
  O   O7        1.0  0.6494883119555439  0.5302513807745157  0.31411896711455967  1.0000
  O   O8        1.0  0.3505125803418209  0.4697471778125149  0.6858701579180959  1.0000
  O   O9        1.0  0.4750881129369304  0.013003392384987896  0.6487733650261589  1.0000
  O   O10       1.0  0.5249203324933447  0.9869814086852813  0.3512287315856782  1.0000
  O   O11       1.0  0.7187124853123663  0.608376604167809  0.056757702495076466  1.0000
  O   O12       1.0  0.28127912029994195  0.3916263274737944  0.9432475246863063  1.0000
