data_image0
_chemical_formula_structural       Co2P4H24C26O14
_chemical_formula_sum              "Co2 P4 H24 C26 O14"
_cell_length_a       5.89275094983572
_cell_length_b       7.6733756236548505
_cell_length_c       14.69555579230364
_cell_angle_alpha    89.99877077982363
_cell_angle_beta     90.0099359156723
_cell_angle_gamma    89.99365200863318

_space_group_name_H-M_alt    "P 1"
_space_group_IT_number       1

loop_
  _space_group_symop_operation_xyz
  'x, y, z'

loop_
  _atom_site_type_symbol
  _atom_site_label
  _atom_site_symmetry_multiplicity
  _atom_site_fract_x
  _atom_site_fract_y
  _atom_site_fract_z
  _atom_site_occupancy
  Co  Co1       1.0  0.023855639427957005  0.4161800453728119  0.9999939344017291  1.0000
  Co  Co2       1.0  0.9761520136474785  0.9161699017955057  5.786854238499993e-06  1.0000
  P   P1        1.0  0.6967377088446653  0.6475433462882518  0.8558980174356989  1.0000
  P   P2        1.0  0.3032067983367028  0.14756456286732336  0.1441052735950308  1.0000
  P   P3        1.0  0.30295706555956053  0.1476061241121726  0.8559129892706565  1.0000
  P   P4        1.0  0.6969501074544909  0.6475682519050137  0.1440889395960383  1.0000
  H   H1        1.0  0.3764620755308599  0.4830815111071729  0.87214506745277  1.0000
  H   H2        1.0  0.6234459509254292  0.9830192288788238  0.127804768305765  1.0000
  H   H3        1.0  0.6231993759924775  0.9830276644563223  0.8722461600781699  1.0000
  H   H4        1.0  0.3766967984857672  0.48303528206053403  0.1277928182853856  1.0000
  H   H5        1.0  0.7301382378897827  0.18545676526386493  0.9457731636406733  1.0000
  H   H6        1.0  0.2698235289566142  0.6853648867024447  0.054230304949726395  1.0000
  H   H7        1.0  0.2697117051457028  0.6853825830335223  0.9456977831463645  1.0000
  H   H8        1.0  0.7302551494430887  0.18545470715928045  0.0542947977990949  1.0000
  H   H9        1.0  0.43505166152007035  0.5452762250611227  0.6953236900719233  1.0000
  H   H10       1.0  0.5649463592260986  0.045187716460460985  0.304654423699148  1.0000
  H   H11       1.0  0.5647939458924895  0.045237238654387085  0.6954542051738457  1.0000
  H   H12       1.0  0.4351599735521815  0.5452723178530049  0.304591274694765  1.0000
  H   H13       1.0  0.1542881471177893  0.8305472115529965  0.5918235153572837  1.0000
  H   H14       1.0  0.8458495292242746  0.330665526206843  0.4082052457163101  1.0000
  H   H15       1.0  0.8457900544083756  0.33072632315681005  0.5916872476537094  1.0000
  H   H16       1.0  0.1543034746026564  0.8305893732542698  0.40825713257681423  1.0000
  H   H17       1.0  0.07204035845906279  0.8000318368264913  0.7560560368354386  1.0000
  H   H18       1.0  0.9279816857363841  0.3001217342195871  0.243964281514998  1.0000
  H   H19       1.0  0.9278000245735499  0.30018487279192385  0.7559517219243262  1.0000
  H   H20       1.0  0.07215072775220929  0.8000716588669402  0.24400871222797352  1.0000
  H   H21       1.0  0.32653197278760615  0.6074702058609558  0.499944292313252  1.0000
  H   H22       1.0  0.6735361125673549  0.10749825560103687  0.500071102068496  1.0000
  H   H23       1.0  0.4866601937731759  0.4166888092779714  0.499954972507993  1.0000
  H   H24       1.0  0.5135426257838276  0.9167023831588704  0.5000692430362149  1.0000
  C   C1        1.0  0.7502924553536019  0.6697356010002125  0.7357851039191201  1.0000
  C   C2        1.0  0.24967767640073643  0.16972697024751673  0.2642178928103647  1.0000
  C   C3        1.0  0.2495108506374137  0.16981163400394902  0.7357931153711447  1.0000
  C   C4        1.0  0.7504270358634814  0.6697682288751278  0.2642010337047012  1.0000
  C   C5        1.0  0.5925774212238792  0.6053654736176949  0.6723324982652485  1.0000
  C   C6        1.0  0.40743803327416817  0.10531804687363427  0.3276584263158  1.0000
  C   C7        1.0  0.407314007174179  0.10538658100161058  0.6723987046360234  1.0000
  C   C8        1.0  0.592684484858637  0.6053699201884938  0.32761603583607257  1.0000
  C   C9        1.0  0.6398515672178177  0.6211564557307907  0.580132018896762  1.0000
  C   C10       1.0  0.36024546602390467  0.12114156618558519  0.4198648215168602  1.0000
  C   C11       1.0  0.36019250867550306  0.12117538213114896  0.5801874409332726  1.0000
  C   C12       1.0  0.6398909529209362  0.6211773754545857  0.4198230083946868  1.0000
  C   C13       1.0  0.8423966294106862  0.7018873044373706  0.5499414781897798  1.0000
  C   C14       1.0  0.1576993273332192  0.20190418012615644  0.4500644959152567  1.0000
  C   C15       1.0  0.15768563982848602  0.20193639639955305  0.5499225771255212  1.0000
  C   C16       1.0  0.8424001303278955  0.7019033079894682  0.4500677454595063  1.0000
  C   C17       1.0  0.9988287101903592  0.7658861308402789  0.6133294145751549  1.0000
  C   C18       1.0  0.0012711337034403  0.2659780617860931  0.3866872764281055  1.0000
  C   C19       1.0  0.0011857556766229997  0.2660368381670466  0.6132428446925645  1.0000
  C   C20       1.0  0.9988767390795202  0.7659381312042296  0.386722808969445  1.0000
  C   C21       1.0  0.952460905048568  0.7490655276726836  0.7060110172300752  1.0000
  C   C22       1.0  0.047572628058077306  0.2491589777262248  0.29400861792752403  1.0000
  C   C23       1.0  0.0474147771868871  0.2492159665407455  0.7059433604986862  1.0000
  C   C24       1.0  0.9525678315395254  0.7491010718394616  0.29402795907155616  1.0000
  C   C25       1.0  0.5025904851092377  0.5596649095528361  0.4999638759110496  1.0000
  C   C26       1.0  0.4974992941358636  0.05965594516225539  0.5000473913450492  1.0000
  O   O1        1.0  0.4306817850724442  0.6117295943100911  0.8611998394961231  1.0000
  O   O2        1.0  0.5692403778502636  0.11167323897267777  0.13877398667760588  1.0000
  O   O3        1.0  0.5689837355382891  0.11171592464254587  0.8613189620540423  1.0000
  O   O4        1.0  0.43092995743482015  0.6117181855393807  0.13870385814242783  1.0000
  O   O5        1.0  0.828127189552248  0.49516543169554683  0.894270471048884  1.0000
  O   O6        1.0  0.17172494658280613  0.9952231887660401  0.1057377232138208  1.0000
  O   O7        1.0  0.1714408894473962  0.9952608653247167  0.8942366518255582  1.0000
  O   O8        1.0  0.8284095504540189  0.49516554826591613  0.10577358358462868  1.0000
  O   O9        1.0  0.7394997665895672  0.8247568105322498  0.9016448817651295  1.0000
  O   O10       1.0  0.26046137088395227  0.3247857205965943  0.09836353892089987  1.0000
  O   O11       1.0  0.2601970889439614  0.3248479095783806  0.901634280744048  1.0000
  O   O12       1.0  0.7397504656370587  0.8247910604833278  0.098350322297641  1.0000
  O   O13       1.0  0.8329223774406883  0.18019602436261545  1.72647953178e-05  1.0000
  O   O14       1.0  0.1670478318349993  0.6800865886356178  0.9999787887656237  1.0000
