data_image0
_chemical_formula_structural       Ag8Mo6H16C24N20O20
_chemical_formula_sum              "Ag8 Mo6 H16 C24 N20 O20"
_cell_length_a       7.4835957389985746
_cell_length_b       12.005847180871513
_cell_length_c       13.160194114034422
_cell_angle_alpha    79.32396276772666
_cell_angle_beta     77.9373966162734
_cell_angle_gamma    87.75377981607471

_space_group_name_H-M_alt    "P 1"
_space_group_IT_number       1

loop_
  _space_group_symop_operation_xyz
  'x, y, z'

loop_
  _atom_site_type_symbol
  _atom_site_label
  _atom_site_symmetry_multiplicity
  _atom_site_fract_x
  _atom_site_fract_y
  _atom_site_fract_z
  _atom_site_occupancy
  Ag  Ag1       1.0  0.547111766118718  0.154143352111852  0.34499729183945493  1.0000
  Ag  Ag2       1.0  0.4528887773155006  0.8458565755777345  0.655004736537343  1.0000
  Ag  Ag3       1.0  0.7820272557088688  0.46541681884848163  0.3977676495995652  1.0000
  Ag  Ag4       1.0  0.21796917838076277  0.5345830988694118  0.6022333575336916  1.0000
  Ag  Ag5       1.0  0.8709991877095719  0.38668166907852  0.656111946354514  1.0000
  Ag  Ag6       1.0  0.1289999736163239  0.6133191023029383  0.34388858639428577  1.0000
  Ag  Ag7       1.0  0.8060673416562949  0.6783942454967544  0.8078367591841413  1.0000
  Ag  Ag8       1.0  0.19393456312155166  0.32160568479434903  0.19216434429549878  1.0000
  Mo  Mo1       1.0  0.7099093343935436  0.37761480393525904  0.13722232918379976  1.0000
  Mo  Mo2       1.0  0.2900912105818918  0.6223825796730296  0.8627778505244306  1.0000
  Mo  Mo3       1.0  0.9738874794696101  0.6116557671349767  0.08278026621052703  1.0000
  Mo  Mo4       1.0  0.026111698585715694  0.3883424614654702  0.9172206954307071  1.0000
  Mo  Mo5       1.0  0.522795107498702  0.3834033709415862  0.9287302350397012  1.0000
  Mo  Mo6       1.0  0.4772054268375144  0.6165948598269536  0.07126904251737902  1.0000
  H   H1        1.0  0.8432329374235153  0.9061610989401245  0.6296249960859939  1.0000
  H   H2        1.0  0.1567703185724909  0.09383883308564828  0.3703736641224822  1.0000
  H   H3        1.0  0.8592739160061101  0.8528263902844841  0.9479891578711416  1.0000
  H   H4        1.0  0.14072660160068304  0.14717438326507454  0.0520096907935041  1.0000
  H   H5        1.0  0.8983706629301552  0.060143288745123896  0.9422574353192702  1.0000
  H   H6        1.0  0.10162848320752718  0.9398574813360554  0.05774081986853465  1.0000
  H   H7        1.0  0.8988936182736113  0.19444575719003857  0.774184112346596  1.0000
  H   H8        1.0  0.10110689933317472  0.8055550163595199  0.2258147363180569  1.0000
  H   H9        1.0  0.31849252226916047  0.06426984501987221  0.5326755610336491  1.0000
  H   H10       1.0  0.6815093708420009  0.9357326284856738  0.46732587274055254  1.0000
  H   H11       1.0  0.42207049382886913  0.9852799347720448  0.8342094426692627  1.0000
  H   H12       1.0  0.5779327885083062  0.0147183033666636  0.16579178102850992  1.0000
  H   H13       1.0  0.4181917827153896  0.1889871778407937  0.8510174752316501  1.0000
  H   H14       1.0  0.5818046559232428  0.8110135883376303  0.14898490731146546  1.0000
  H   H15       1.0  0.3760267701188056  0.33789866919899236  0.6970562734337235  1.0000
  H   H16       1.0  0.6239683076899356  0.6621012463508081  0.30294641778369413  1.0000
  C   C1        1.0  0.8468311587323002  0.13416993289596496  0.5899415825465084  1.0000
  C   C2        1.0  0.15317073540633433  0.8658308445553825  0.41005861878198147  1.0000
  C   C3        1.0  0.8661891166242486  0.060666180357515004  0.6885934198894077  1.0000
  C   C4        1.0  0.13381003963890953  0.9393345905905192  0.3114063536723961  1.0000
  C   C5        1.0  0.8535347919544947  0.9425722648201498  0.6979637983855156  1.0000
  C   C6        1.0  0.14646299232581583  0.0574293506866113  0.30203599792230307  1.0000
  C   C7        1.0  0.8644692314105243  0.9132648728045751  0.8750371997197348  1.0000
  C   C8        1.0  0.13552992433889702  0.0867367461705513  0.1249631900649248  1.0000
  C   C9        1.0  0.8851215287353753  0.028669581983130903  0.8717672620678343  1.0000
  C   C10       1.0  0.114880349701302  0.9713320421950371  0.12823127792250946  1.0000
  C   C11       1.0  0.8857962072822759  0.1035491923836815  0.7776814259478755  1.0000
  C   C12       1.0  0.1142056823073574  0.8964507366071429  0.22231739997075547  1.0000
  C   C13       1.0  0.3115677954371422  0.29245944868654317  0.5081538089787756  1.0000
  C   C14       1.0  0.6884313714652278  0.707540475101247  0.4918468667341714  1.0000
  C   C15       1.0  0.34569633000813843  0.2137288573778662  0.6008783676753423  1.0000
  C   C16       1.0  0.6543028470197145  0.786271067276772  0.3991238264116105  1.0000
  C   C17       1.0  0.346455577292005  0.09701466984562047  0.5997975894215414  1.0000
  C   C18       1.0  0.6535463219093673  0.9029861080391585  0.40020337109395837  1.0000
  C   C19       1.0  0.40016652707593175  0.05236736704626569  0.7696934013163172  1.0000
  C   C20       1.0  0.5998381105146606  0.9476325693147343  0.23030737074301302  1.0000
  C   C21       1.0  0.3975593789365703  0.16612044996930558  0.7781368802860413  1.0000
  C   C22       1.0  0.6024370597020621  0.8338803162091111  0.2218655022570815  1.0000
  C   C23       1.0  0.3727667983867207  0.24829506623662914  0.6925076604037059  1.0000
  C   C24       1.0  0.6272351058773893  0.7517057120815737  0.30749405929879  1.0000
  N   N1        1.0  0.8556620822390073  0.2486213207991099  0.5692442789486876  1.0000
  N   N2        1.0  0.1443370745378871  0.7513786021218252  0.4307548783902603  1.0000
  N   N3        1.0  0.8157704495700103  0.2800687686084871  0.4726633417893495  1.0000
  N   N4        1.0  0.1842300786759878  0.7199311577808271  0.5273364090264394  1.0000
  N   N5        1.0  0.7849519741401281  0.1882713004045513  0.4365898329071242  1.0000
  N   N6        1.0  0.21504992051224292  0.8117286290196972  0.5634097521985167  1.0000
  N   N7        1.0  0.8037130092502309  0.09590531343070549  0.5080371769593413  1.0000
  N   N8        1.0  0.19629026802419966  0.9040929242745716  0.4919632875514282  1.0000
  N   N9        1.0  0.8511968029245054  0.8702616704233536  0.7891710081418352  1.0000
  N   N10       1.0  0.14880373038423764  0.12973825639937786  0.2108295018609567  1.0000
  N   N11       1.0  0.24388286175158666  0.39850873912324414  0.5054044914956322  1.0000
  N   N12       1.0  0.7561108395253059  0.60149117252476  0.4945968470579416  1.0000
  N   N13       1.0  0.21476492530096888  0.43278537385570115  0.4064678808940556  1.0000
  N   N14       1.0  0.7852328757087721  0.5672136988700416  0.5935323443061904  1.0000
  N   N15       1.0  0.2652032085410312  0.3527457746744603  0.35083720939163493  1.0000
  N   N16       1.0  0.7347959583613389  0.6472541491133229  0.649163466321319  1.0000
  N   N17       1.0  0.32874511604308054  0.26415794971739365  0.4118124653181283  1.0000
  N   N18       1.0  0.671255411689181  0.7358428246990059  0.5881879017205165  1.0000
  N   N19       1.0  0.3767889641289486  0.0185929503134972  0.6812577485819915  1.0000
  N   N20       1.0  0.6232142969297954  0.9814069821456994  0.3187416708134947  1.0000
  O   O1        1.0  0.9496462206559643  0.7553014646999829  0.06710951821033005  1.0000
  O   O2        1.0  0.0503529422111484  0.24469676260018505  0.9328891658699092  1.0000
  O   O3        1.0  0.4722405815640798  0.24445319072848554  0.9842874875322707  1.0000
  O   O4        1.0  0.5277613191785093  0.7555450430750028  0.015711624314654674  1.0000
  O   O5        1.0  0.6750799905582668  0.40875555112760503  0.26417611340792746  1.0000
  O   O6        1.0  0.32491917128136555  0.5912443722267611  0.7358238031180235  1.0000
  O   O7        1.0  0.6068244340856807  0.38104269715725536  0.7964631406338897  1.0000
  O   O8        1.0  0.3931774605666903  0.6189572322670004  0.20353644447174446  1.0000
  O   O9        1.0  0.6966711340117301  0.23183955368629938  0.15592574864008674  1.0000
  O   O10       1.0  0.3033321387137065  0.7681578355584547  0.8440733404608308  1.0000
  O   O11       1.0  0.729751480824234  0.5725900846926066  0.07820596222720867  1.0000
  O   O12       1.0  0.27024905299825264  0.4274089941030325  0.9217939315527275  1.0000
  O   O13       1.0  0.9733923575216892  0.571546100125545  0.21805884779981705  1.0000
  O   O14       1.0  0.026599966709625306  0.42845465564776214  0.7819417543127685  1.0000
  O   O15       1.0  0.030910223377667002  0.5920082311468065  0.9156106778515962  1.0000
  O   O16       1.0  0.9690875938477675  0.4079891468250165  0.08439059246394012  1.0000
  O   O17       1.0  0.7627115895250045  0.3975477338156069  0.960997535596192  1.0000
  O   O18       1.0  0.23728620033178066  0.6024530340974791  0.03900240367576659  1.0000
  O   O19       1.0  0.5192349047565656  0.5746815990229024  0.9060714113061862  1.0000
  O   O20       1.0  0.480765617912958  0.4253191749600802  0.09392819654546257  1.0000
