data_image0
_chemical_formula_structural       Cu4H36C16N44
_chemical_formula_sum              "Cu4 H36 C16 N44"
_cell_length_a       8.374132979290065
_cell_length_b       9.841938000510003
_cell_length_c       11.524889305126237
_cell_angle_alpha    89.99962855403328
_cell_angle_beta     90.0004239777112
_cell_angle_gamma    96.00619477393408

_space_group_name_H-M_alt    "P 1"
_space_group_IT_number       1

loop_
  _space_group_symop_operation_xyz
  'x, y, z'

loop_
  _atom_site_type_symbol
  _atom_site_label
  _atom_site_symmetry_multiplicity
  _atom_site_fract_x
  _atom_site_fract_y
  _atom_site_fract_z
  _atom_site_occupancy
  Cu  Cu1       1.0  0.9479508044633816  0.28021498201503914  0.5982660870194962  1.0000
  Cu  Cu2       1.0  0.052053563050307596  0.219788145523701  0.09827292611903722  1.0000
  Cu  Cu3       1.0  0.052048317775991414  0.7197826670422104  0.40173302386548937  1.0000
  Cu  Cu4       1.0  0.9479486834516991  0.7802156387941893  0.9017331262556924  1.0000
  H   H1        1.0  0.40230520107282086  0.0616920074526277  0.9155246716539125  1.0000
  H   H2        1.0  0.5977039406504971  0.43831408884717155  0.4155236896030985  1.0000
  H   H3        1.0  0.5976851922136533  0.9383025580711504  0.0844770422780243  1.0000
  H   H4        1.0  0.40230584031318267  0.5616927763687941  0.5844762889723043  1.0000
  H   H5        1.0  0.7034077320607749  0.3069407217044784  0.7346033243814816  1.0000
  H   H6        1.0  0.29660470969450603  0.19305843613357607  0.23460815590288317  1.0000
  H   H7        1.0  0.29658648974002216  0.6930558950935009  0.2653975218677758  1.0000
  H   H8        1.0  0.7034054079335376  0.8069412800629366  0.7653952934424028  1.0000
  H   H9        1.0  0.6742713266311854  0.37098945599436217  0.60450724204388  1.0000
  H   H10       1.0  0.32573656008933227  0.129012615706813  0.1045056436272418  1.0000
  H   H11       1.0  0.32572087386375864  0.6290102205014065  0.39549447187875586  1.0000
  H   H12       1.0  0.6742691472503992  0.8709901549167113  0.8954917318866792  1.0000
  H   H13       1.0  0.8776963774846677  0.029537250581121603  0.5311995710253754  1.0000
  H   H14       1.0  0.1223079755239382  0.4704714381563804  0.0312010604536184  1.0000
  H   H15       1.0  0.12230130517820466  0.97045835250492  0.46879780448681896  1.0000
  H   H16       1.0  0.8776959556114434  0.5295364354890281  0.9687989181032678  1.0000
  H   H17       1.0  0.9001486615221663  0.1310076794007102  0.4152112514135382  1.0000
  H   H18       1.0  0.09985389215515987  0.36899329745959614  0.9152089042400036  1.0000
  H   H19       1.0  0.0998465096480672  0.8689868967232143  0.5847869917820461  1.0000
  H   H20       1.0  0.9001493036838254  0.6310084462076659  0.0847876035827113  1.0000
  H   H21       1.0  0.6483371732798061  0.08275580346202821  0.6770353486080225  1.0000
  H   H22       1.0  0.3516642249032599  0.41724576260660473  0.17703836633195638  1.0000
  H   H23       1.0  0.3516607544926842  0.9172418429422537  0.3229654976483474  1.0000
  H   H24       1.0  0.6483367045567616  0.5827569974138455  0.8229633476056079  1.0000
  H   H25       1.0  0.49120738683348714  0.16932121755931462  0.6165161006818067  1.0000
  H   H26       1.0  0.5088021743218504  0.33068384068768353  0.1165169723100234  1.0000
  H   H27       1.0  0.5087865898617493  0.830673355917497  0.38348214251057294  1.0000
  H   H28       1.0  0.49120723899768837  0.6693199595362814  0.8834821385855919  1.0000
  H   H29       1.0  0.6456993471068557  0.19534512424963427  0.42786647585606363  1.0000
  H   H30       1.0  0.35430295728746586  0.3046527021604888  0.9278649858215928  1.0000
  H   H31       1.0  0.35430109215421607  0.804653549119692  0.5721326350296252  1.0000
  H   H32       1.0  0.6457009428437955  0.6953449574910452  0.0721323897016219  1.0000
  H   H33       1.0  0.6178913764909664  0.020635306035465796  0.4677232332282841  1.0000
  H   H34       1.0  0.3821143023440782  0.47936736485849  0.9677243954021719  1.0000
  H   H35       1.0  0.38210284530578054  0.979361310765448  0.5322767453336752  1.0000
  H   H36       1.0  0.6178915275545195  0.5206364274212234  0.032275583171127706  1.0000
  C   C1        1.0  0.28228396207429535  0.8841030321592741  0.9807053429226473  1.0000
  C   C2        1.0  0.717717269571665  0.6159039407154767  0.48070332201858434  1.0000
  C   C3        1.0  0.7177137206250918  0.11589257090039952  0.0192998417751795  1.0000
  C   C4        1.0  0.2822843951604169  0.3841049493007063  0.5192966565293915  1.0000
  C   C5        1.0  0.16661621838927226  0.037587982593357994  0.8498731487746056  1.0000
  C   C6        1.0  0.833399935367275  0.4624124455701589  0.34986549144714735  1.0000
  C   C7        1.0  0.8333770540177524  0.9624106748962548  0.1501250944045651  1.0000
  C   C8        1.0  0.16661269371688547  0.537588297614839  0.6501292810291162  1.0000
  C   C9        1.0  0.6209853416807859  0.16033560133507757  0.6135064673038073  1.0000
  C   C10       1.0  0.379020362802187  0.33966742596816596  0.11350572355905802  1.0000
  C   C11       1.0  0.37900731799275894  0.8396579478296503  0.386491775887862  1.0000
  C   C12       1.0  0.6209841500666045  0.6603353420053253  0.8864925196389422  1.0000
  C   C13       1.0  0.6753352730756601  0.1213166594744663  0.4933511206204599  1.0000
  C   C14       1.0  0.3246670620225841  0.3786858304203733  0.9933551348191756  1.0000
  C   C15       1.0  0.3246541708251413  0.8786799467350903  0.5066497256159793  1.0000
  C   C16       1.0  0.6753350619164991  0.6213169322442553  0.006647446808884199  1.0000
  N   N1        1.0  0.022504012424668894  0.1487663264574408  0.7410878943140986  1.0000
  N   N2        1.0  0.9774991792530583  0.3512348097588074  0.2410894371550825  1.0000
  N   N3        1.0  0.9774940378864015  0.851232341617674  0.2589112165651812  1.0000
  N   N4        1.0  0.0225038940595113  0.6487659122288321  0.7589114091065952  1.0000
  N   N5        1.0  0.17158843875019866  0.1535416611034393  0.7881108593951325  1.0000
  N   N6        1.0  0.8284168773497099  0.34646324690746877  0.2881116269785053  1.0000
  N   N7        1.0  0.8284059055891857  0.8464559773653734  0.21188825147703477  1.0000
  N   N8        1.0  0.17158907510776086  0.6535415670284409  0.711890954654166  1.0000
  N   N9        1.0  0.2923210301695462  0.00038630896682429996  0.9149865796571534  1.0000
  N   N10       1.0  0.7076664524177971  0.4996085076616554  0.4149823785807172  1.0000
  N   N11       1.0  0.7076840954448967  0.9996215673227625  0.08501426659022832  1.0000
  N   N12       1.0  0.2923227463693294  0.5003860552325962  0.5850141292242554  1.0000
  N   N13       1.0  0.3401973221254054  0.7286260973615343  0.0993161189415304  1.0000
  N   N14       1.0  0.6598054572648023  0.7713763123697106  0.599312117731948  1.0000
  N   N15       1.0  0.6598007281897224  0.27137257071065324  0.9006838596250405  1.0000
  N   N16       1.0  0.3401977385822973  0.22862543129168958  0.4006861254653487  1.0000
  N   N17       1.0  0.15673113882953524  0.7867045714887554  0.9828050784308645  1.0000
  N   N18       1.0  0.8432678150587661  0.7132931895755092  0.4828031930265482  1.0000
  N   N19       1.0  0.8432613067588052  0.21329714833697014  0.0171966354867692  1.0000
  N   N20       1.0  0.1567336961306083  0.28670446477595146  0.5171959178648464  1.0000
  N   N21       1.0  0.7150539502566672  0.2900065911396368  0.6468021254613988  1.0000
  N   N22       1.0  0.28493782347081975  0.2099869872334352  0.1468024620448887  1.0000
  N   N23       1.0  0.28495690263937223  0.7099992550555356  0.3531987208070007  1.0000
  N   N24       1.0  0.7150525698034753  0.790007578299132  0.8531966488251682  1.0000
  N   N25       1.0  0.8514801732007483  0.12102369571553599  0.496541213536716  1.0000
  N   N26       1.0  0.14851226830331402  0.37897568645841057  0.9965477496102084  1.0000
  N   N27       1.0  0.14852899504163017  0.8789780611667551  0.5034613681130722  1.0000
  N   N28       1.0  0.8514784926394724  0.6210219440485786  0.0034574350633960003  1.0000
  N   N29       1.0  0.021297989646122055  0.9641283888419705  0.8406475428062806  1.0000
  N   N30       1.0  0.9787025139138094  0.5358744240664279  0.3406473688089946  1.0000
  N   N31       1.0  0.9787036440980615  0.03587028716860631  0.1593533034571948  1.0000
  N   N32       1.0  0.021298415538097987  0.46412833595988445  0.6593526097539879  1.0000
  N   N33       1.0  0.3983243231895557  0.8512232027065776  0.053281653946200415  1.0000
  N   N34       1.0  0.601676708657152  0.6487784935545663  0.5532771517808968  1.0000
  N   N35       1.0  0.6016664377248232  0.14877442782091782  0.9467174569163532  1.0000
  N   N36       1.0  0.3983303157042711  0.3512253013810492  0.4467202237337204  1.0000
  N   N37       1.0  0.19723010559925305  0.6904157089899597  0.0579635993990095  1.0000
  N   N38       1.0  0.8027740632766934  0.8095818769349351  0.5579601552982822  1.0000
  N   N39       1.0  0.8027632893706879  0.30958397015291444  0.9420381145268307  1.0000
  N   N40       1.0  0.19723354283031114  0.19041681231995972  0.44203808791933613  1.0000
  N   N41       1.0  0.9325303108629938  0.0375962262222203  0.7711915890546379  1.0000
  N   N42       1.0  0.06747221296482311  0.46240674740757015  0.271192828275197  1.0000
  N   N43       1.0  0.06746856628704727  0.9623993795021376  0.2288083895226407  1.0000
  N   N44       1.0  0.9325311054411427  0.537596017910026  0.7288080179814856  1.0000
