data_image0
_chemical_formula_structural       Zn2H38C48N12O10
_chemical_formula_sum              "Zn2 H38 C48 N12 O10"
_cell_length_a       9.503028039606544
_cell_length_b       12.218785016086285
_cell_length_c       12.1908
_cell_angle_alpha    110.18453938086691
_cell_angle_beta     99.62984740888507
_cell_angle_gamma    102.81781841465454

_space_group_name_H-M_alt    "P 1"
_space_group_IT_number       1

loop_
  _space_group_symop_operation_xyz
  'x, y, z'

loop_
  _atom_site_type_symbol
  _atom_site_label
  _atom_site_symmetry_multiplicity
  _atom_site_fract_x
  _atom_site_fract_y
  _atom_site_fract_z
  _atom_site_occupancy
  Zn  Zn1       1.0  0.34107889775772543  0.19440369088594167  0.8024822952376738  1.0000
  Zn  Zn2       1.0  0.6589178662465824  0.8055938352877375  0.19751552492567012  1.0000
  H   H1        1.0  0.6862667900631152  0.504713622682246  0.8421447765417939  1.0000
  H   H2        1.0  0.31373598716766077  0.49528573290634625  0.15786184304637632  1.0000
  H   H3        1.0  0.16574986097857894  0.5834973760923674  0.9021043059746604  1.0000
  H   H4        1.0  0.834249428487027  0.4164983206663919  0.09788992966837645  1.0000
  H   H5        1.0  0.8848857329842797  0.211885579834906  0.767975774939579  1.0000
  H   H6        1.0  0.11511350396527577  0.7881128610462369  0.23202596520013694  1.0000
  H   H7        1.0  0.11931227000027889  0.7509016469225003  0.8611882135429312  1.0000
  H   H8        1.0  0.8806825925732866  0.2491022822033884  0.13881403392256436  1.0000
  H   H9        1.0  0.14627000728366818  0.7690814576623808  0.016374997502801192  1.0000
  H   H10       1.0  0.8537298536964428  0.2309215567560443  0.9836251245466271  1.0000
  H   H11       1.0  0.9447968986088142  0.8588819477040062  0.7845929139130376  1.0000
  H   H12       1.0  0.055205435316544496  0.1411219814218825  0.2154078469499154  1.0000
  H   H13       1.0  0.11999305736807735  0.9450885521407527  0.16273200543494687  1.0000
  H   H14       1.0  0.8800110204398663  0.05491720640005579  0.8372737169645036  1.0000
  H   H15       1.0  0.4553963377353866  0.1571449119743633  0.20887687534612095  1.0000
  H   H16       1.0  0.544608912440637  0.8428553583216924  0.7911205395670393  1.0000
  H   H17       1.0  0.516893717349319  0.42248873981283447  0.05668827791058822  1.0000
  H   H18       1.0  0.4831005211936912  0.5775106157757577  0.9433082050287922  1.0000
  H   H19       1.0  0.6489857140758984  0.4999223850140453  0.261896940620332  1.0000
  H   H20       1.0  0.35100813367775163  0.5000787999894669  0.7380984834578257  1.0000
  H   H21       1.0  0.7129034530544444  0.39401389662629066  0.3085686899937699  1.0000
  H   H22       1.0  0.28709781353494174  0.6059900324995979  0.6914237287807055  1.0000
  H   H23       1.0  0.5344442473160029  0.6277481788175621  0.37971792625683076  1.0000
  H   H24       1.0  0.46556662529712156  0.3722557503083266  0.6202864089292248  1.0000
  H   H25       1.0  0.5484858719689854  0.2989135915694803  0.4346171397110226  1.0000
  H   H26       1.0  0.4515221369095314  0.7010912522638719  0.5653863180909866  1.0000
  H   H27       1.0  0.24858785248130028  0.7321702675850759  0.6179987521630963  1.0000
  H   H28       1.0  0.7514117227415653  0.2678290880035163  0.3819910440667371  1.0000
  H   H29       1.0  0.028724250885673434  0.9959252485679427  0.6153823663242832  1.0000
  H   H30       1.0  0.9712689203213642  0.0040741070206494  0.3846205397594105  1.0000
  H   H31       1.0  0.9503459132598306  0.7349052428863203  0.4121392357901144  1.0000
  H   H32       1.0  0.04964455176076399  0.2650867950426061  0.5878624272687176  1.0000
  H   H33       1.0  0.8622400770078897  0.7460646738813708  0.5319285537292587  1.0000
  H   H34       1.0  0.13775921245772338  0.2539310228773886  0.4680779862744444  1.0000
  H   H35       1.0  0.11413825980205419  0.5933057841710436  0.3715990190410068  1.0000
  H   H36       1.0  0.8858705306551823  0.4066954008324685  0.6284081970648714  1.0000
  H   H37       1.0  0.847181547307521  0.5993959064304732  0.6262071652513228  1.0000
  H   H38       1.0  0.15282229725922042  0.400603449158119  0.3738004138089224  1.0000
  C   C1        1.0  0.6232200796459679  0.2588667843240557  0.7855880035687619  1.0000
  C   C2        1.0  0.3767820210381955  0.7411307418496236  0.21441297337356255  1.0000
  C   C3        1.0  0.7693804008745531  0.3486380037270038  0.801537540025187  1.0000
  C   C4        1.0  0.2306202416842851  0.6513613518615955  0.1984622388745478  1.0000
  C   C5        1.0  0.7838530860701168  0.47269428809358516  0.8360735905742799  1.0000
  C   C6        1.0  0.21614474527016364  0.5273032380800942  0.16392436877043082  1.0000
  C   C7        1.0  0.9258715379996616  0.5583886563535074  0.8706156385321081  1.0000
  C   C8        1.0  0.07412590255125907  0.4416106992350848  0.12938454311422737  1.0000
  C   C9        1.0  0.0534354480507346  0.5193452831901766  0.8700865438088243  1.0000
  C   C10       1.0  0.9465644654454266  0.4806549871058721  0.12990853461605673  1.0000
  C   C11       1.0  0.037128266438458006  0.3935839841207454  0.8294660138234491  1.0000
  C   C12       1.0  0.9628681067764902  0.606415371467854  0.1705315677693875  1.0000
  C   C13       1.0  0.1733857805640895  0.3512915700644328  0.8286802561159163  1.0000
  C   C14       1.0  0.8266117125028812  0.6487050414017901  0.17131734277801064  1.0000
  C   C15       1.0  0.8962112356228573  0.3086863260572699  0.7951346879772672  1.0000
  C   C16       1.0  0.10378412277217557  0.6913102854089459  0.20486099197249533  1.0000
  C   C17       1.0  0.06929327877405457  0.770127882995034  0.9387248598602723  1.0000
  C   C18       1.0  0.9307041092608159  0.2298742167159347  0.0612762639570477  1.0000
  C   C19       1.0  0.03649939489975649  0.8899801718818452  0.9704773920200295  1.0000
  C   C20       1.0  0.9634976023457539  0.11002375724404348  0.029520212063936024  1.0000
  C   C21       1.0  0.9696207510938988  0.9215448968635798  0.8792996664459665  1.0000
  C   C22       1.0  0.030378952338054394  0.0784663499219818  0.1207065632792705  1.0000
  C   C23       1.0  0.06672053023401489  0.9694426382262548  0.09177692514258247  1.0000
  C   C24       1.0  0.9332790449888506  0.0305567173623444  0.9082268160293338  1.0000
  C   C25       1.0  0.4469158843429639  0.2005596720823917  0.14497595396157692  1.0000
  C   C26       1.0  0.5530875694344245  0.7994415129211205  0.8550223633303348  1.0000
  C   C27       1.0  0.4776071928657899  0.3367504655949034  0.06654419449763085  1.0000
  C   C28       1.0  0.5223881130131857  0.6632488899936959  0.9334532479138318  1.0000
  C   C29       1.0  0.612857262266452  0.4214249350384733  0.2858370752752322  1.0000
  C   C30       1.0  0.3871415313776935  0.5785780793799589  0.7141604467206903  1.0000
  C   C31       1.0  0.5488357746650152  0.4584669282823626  0.39389445462461486  1.0000
  C   C32       1.0  0.45117442140149666  0.5415351714286132  0.606106698787734  1.0000
  C   C33       1.0  0.5212228418593412  0.57199310038542  0.43307184838324997  1.0000
  C   C34       1.0  0.4787872491750703  0.4280144875703016  0.5669311893710757  1.0000
  C   C35       1.0  0.526811363053497  0.3872432320176599  0.461962735210534  1.0000
  C   C36       1.0  0.4731963600677743  0.6127579529858593  0.5380402402604219  1.0000
  C   C37       1.0  0.22830084133077116  0.8196281918251954  0.6367526644465542  1.0000
  C   C38       1.0  0.7716980048294246  0.1803720784708531  0.3632406342155363  1.0000
  C   C39       1.0  0.11351250882584196  0.9529916245831487  0.6325163947923118  1.0000
  C   C40       1.0  0.8864817297171683  0.047007731005450595  0.36748336930990894  1.0000
  C   C41       1.0  0.9611337121646101  0.7301524229313827  0.5015387184933431  1.0000
  C   C42       1.0  0.038859225801225306  0.2698405297050073  0.49846358337901364  1.0000
  C   C43       1.0  0.9773421846711442  0.6091887644823615  0.49815338016604477  1.0000
  C   C44       1.0  0.022658510403744  0.3908078469838614  0.5018511985976772  1.0000
  C   C45       1.0  0.0633051645084635  0.5522473104763961  0.4275057216958801  1.0000
  C   C46       1.0  0.9366979509956153  0.4477529598196526  0.5725028989244976  1.0000
  C   C47       1.0  0.9143246037591553  0.5561650025216238  0.5706754356241249  1.0000
  C   C48       1.0  0.08568171375284087  0.4438352677744247  0.4293360634124923  1.0000
  N   N1        1.0  0.3973323286781678  0.2293619805391174  0.9802114564307799  1.0000
  N   N2        1.0  0.602669042943333  0.7706364603420255  0.019786460618114246  1.0000
  N   N3        1.0  0.3769877966289456  0.1424720896307932  0.02883321500487308  1.0000
  N   N4        1.0  0.6230164387271556  0.857525436542886  0.971164759137352  1.0000
  N   N5        1.0  0.511668851066723  0.3229685683160142  0.17287704804120807  1.0000
  N   N6        1.0  0.4883289277575074  0.6770317019800345  0.8271210331837795  1.0000
  N   N7        1.0  0.25158125381838653  0.0113295665823472  0.7036438744298578  1.0000
  N   N8        1.0  0.7484179306151119  0.988671618421165  0.29635224555515555  1.0000
  N   N9        1.0  0.3251056876128189  0.9272133389845862  0.7068048191254661  1.0000
  N   N10       1.0  0.6748966988285969  0.072787846018926  0.2931884372408149  1.0000
  N   N11       1.0  0.09425254919790395  0.8307528639368158  0.587779410508368  1.0000
  N   N12       1.0  0.9057452296263192  0.1692474063592329  0.4122186707166193  1.0000
  O   O1        1.0  0.5024822167529804  0.2888774213336021  0.7580812028195822  1.0000
  O   O2        1.0  0.49751717774473997  0.7111127871804044  0.24191114848148493  1.0000
  O   O3        1.0  0.6242238690676415  0.1655538176413671  0.8057413524940742  1.0000
  O   O4        1.0  0.37578059952966203  0.8344501114845214  0.1942678896387307  1.0000
  O   O5        1.0  0.1512643722103633  0.2366521989842383  0.7612926205891526  1.0000
  O   O6        1.0  0.8487348647391925  0.7633462418968975  0.2387074789691397  1.0000
  O   O7        1.0  0.299661570007018  0.4249666823182139  0.8905322852656852  1.0000
  O   O8        1.0  0.7003355322706  0.575031758562929  0.10946507505772729  1.0000
  O   O9        1.0  0.9265418831471803  0.6771789698808703  0.9040949151872865  1.0000
  O   O10       1.0  0.07346162314625809  0.3228194710002654  0.09590574109648034  1.0000
