data_image0
_chemical_formula_structural       Cu2H26C22N4O12
_chemical_formula_sum              "Cu2 H26 C22 N4 O12"
_cell_length_a       8.19509050034426
_cell_length_b       8.523858413634725
_cell_length_c       10.006093073531416
_cell_angle_alpha    108.60153255079594
_cell_angle_beta     89.998936800756
_cell_angle_gamma    90.00054226534111

_space_group_name_H-M_alt    "P 1"
_space_group_IT_number       1

loop_
  _space_group_symop_operation_xyz
  'x, y, z'

loop_
  _atom_site_type_symbol
  _atom_site_label
  _atom_site_symmetry_multiplicity
  _atom_site_fract_x
  _atom_site_fract_y
  _atom_site_fract_z
  _atom_site_occupancy
  Cu  Cu1       1.0  0.5947029961158136  0.0657440456236387  0.4448153404478746  1.0000
  Cu  Cu2       1.0  0.09469374304673289  0.9342542905468462  0.5551667320414353  1.0000
  H   H1        1.0  0.3873368643500043  0.5852868260309234  0.22068055148852034  1.0000
  H   H2        1.0  0.8873395613046923  0.4147130237924869  0.7793150616289282  1.0000
  H   H3        1.0  0.5275206674879341  0.5708900046690315  0.7991824093253257  1.0000
  H   H4        1.0  0.027496835421622692  0.42911167173541986  0.20082342057443006  1.0000
  H   H5        1.0  0.6120233654842409  0.8566939594118352  0.8896028730324729  1.0000
  H   H6        1.0  0.11200996464761197  0.14330599692671336  0.1104023880006082  1.0000
  H   H7        1.0  0.3198707326046986  0.36490962427412643  0.7529334458200835  1.0000
  H   H8        1.0  0.8198785681396855  0.6351093753120906  0.2470621374855853  1.0000
  H   H9        1.0  0.35569587660884844  0.18642617432859504  0.8052480232830276  1.0000
  H   H10       1.0  0.8557158420346266  0.8135733365336647  0.19474191966259724  1.0000
  H   H11       1.0  0.52511754224345  0.30397172418977186  0.7756306192873339  1.0000
  H   H12       1.0  0.02512149016295949  0.6960309992505457  0.22435852955013047  1.0000
  H   H13       1.0  0.528594197932584  0.2650743097516041  0.08545028090922809  1.0000
  H   H14       1.0  0.028592896594055596  0.7349360707852596  0.9145608415117579  1.0000
  H   H15       1.0  0.5838913554194886  0.08442608305983866  0.9481118650477142  1.0000
  H   H16       1.0  0.08392050892898338  0.9155723974555414  0.05189437391467075  1.0000
  H   H17       1.0  0.7372559163959236  0.20912538086408006  0.056982889656275376  1.0000
  H   H18       1.0  0.23726275028418797  0.7908544780598559  0.9429994021818685  1.0000
  H   H19       1.0  0.5445675613462695  0.39204510994743197  0.36979202745322937  1.0000
  H   H20       1.0  0.04456304861174228  0.6079567668439052  0.6302186282537006  1.0000
  H   H21       1.0  0.7277833697467385  0.36369190787453926  0.266872956557954  1.0000
  H   H22       1.0  0.22778858716429076  0.6363040687020032  0.7331247283585256  1.0000
  H   H23       1.0  0.8826296002339118  0.29683917101124985  0.45316945311272144  1.0000
  H   H24       1.0  0.38262777149574123  0.703151912756219  0.546817900489394  1.0000
  H   H25       1.0  0.7675015213281496  0.47939357382775677  0.5421242454825687  1.0000
  H   H26       1.0  0.2674911570234144  0.5205928806124189  0.4578733896531657  1.0000
  C   C1        1.0  0.4911279153870538  0.8101555667658146  0.20401797973606503  1.0000
  C   C2        1.0  0.9911191281665733  0.1898341882260439  0.795986582743609  1.0000
  C   C3        1.0  0.4385405633838458  0.6448558806446343  0.14881479174822224  1.0000
  C   C4        1.0  0.938526433615486  0.3551396193557607  0.8511939853445155  1.0000
  C   C5        1.0  0.44612597671078885  0.5604680318722258  0.004533549663541667  1.0000
  C   C6        1.0  0.9461269417589971  0.4395447844967889  0.9954717247995504  1.0000
  C   C7        1.0  0.5119698771404018  0.6378234342268383  0.9108115734412363  1.0000
  C   C8        1.0  0.0119472980169633  0.3621694902799816  0.08919713701596518  1.0000
  C   C9        1.0  0.560321787782236  0.8011107054321014  0.9638969665638156  1.0000
  C   C10       1.0  0.060311830106897384  0.19887884246517018  0.03610121715542651  1.0000
  C   C11       1.0  0.5496912679274075  0.8933711414082378  0.10862992954659483  1.0000
  C   C12       1.0  0.04968572073924089  0.10661338147600218  0.8913690601410166  1.0000
  C   C13       1.0  0.5974400021018482  0.0648747330649115  0.1586246963757247  1.0000
  C   C14       1.0  0.0974234243800964  0.9351139843232726  0.8413807740451701  1.0000
  C   C15       1.0  0.39934785634950026  0.3106938502832292  0.8148607033574891  1.0000
  C   C16       1.0  0.8993575901707442  0.6893122346585726  0.185130408801939  1.0000
  C   C17       1.0  0.6132901057266266  0.15978948524926298  0.055770900552559496  1.0000
  C   C18       1.0  0.11330085327190888  0.8402042933592424  0.9442327051828768  1.0000
  C   C19       1.0  0.6610898757233199  0.32422019335118774  0.3458490451736296  1.0000
  C   C20       1.0  0.16108025952119928  0.6757926437812214  0.654165982371225  1.0000
  C   C21       1.0  0.7578034501042833  0.3467549417571192  0.47961640952194523  1.0000
  C   C22       1.0  0.2577885883112073  0.653236378313309  0.5203826437376406  1.0000
  N   N1        1.0  0.6247524339042129  0.14506973587889146  0.2924420682750721  1.0000
  N   N2        1.0  0.12476200601162186  0.8549376898042453  0.7075580101657266  1.0000
  N   N3        1.0  0.7044594651993917  0.86477267064631  0.5845470995326066  1.0000
  N   N4        1.0  0.20445894970977455  0.13524154739040734  0.41544373730609857  1.0000
  O   O1        1.0  0.4782662288597947  0.8812316680446269  0.340886929222293  1.0000
  O   O2        1.0  0.9782471147462599  0.11874683320962018  0.6591148178430686  1.0000
  O   O3        1.0  0.6735834579795963  0.2648636418851493  0.5608492221869881  1.0000
  O   O4        1.0  0.17356626732969  0.7351343420091466  0.4391507079347008  1.0000
  O   O5        1.0  0.5921484249534288  0.9806269277144676  0.6024013433765558  1.0000
  O   O6        1.0  0.0921611217197267  0.019372893322341194  0.3976081408405321  1.0000
  O   O7        1.0  0.38902175821390717  0.4034648030305944  0.9625526609569021  1.0000
  O   O8        1.0  0.8890176565297166  0.5965511530591951  0.03744720176640468  1.0000
  O   O9        1.0  0.7133439041356623  0.794478488641303  0.675645192224742  1.0000
  O   O10       1.0  0.21334734684576517  0.2055259053748982  0.32434292212732874  1.0000
  O   O11       1.0  0.7950295839840675  0.8326421264239766  0.4789757568603789  1.0000
  O   O12       1.0  0.2950241094299884  0.1673803174456268  0.5210160698140953  1.0000
