data_image0
_chemical_formula_structural       Cd4H28C28S4N4Cl8
_chemical_formula_sum              "Cd4 H28 C28 S4 N4 Cl8"
_cell_length_a       3.8675058359880494
_cell_length_b       11.075428004284458
_cell_length_c       23.211934859033704
_cell_angle_alpha    89.99980932909885
_cell_angle_beta     90.00003813655636
_cell_angle_gamma    98.02793401343193

_space_group_name_H-M_alt    "P 1"
_space_group_IT_number       1

loop_
  _space_group_symop_operation_xyz
  'x, y, z'

loop_
  _atom_site_type_symbol
  _atom_site_label
  _atom_site_symmetry_multiplicity
  _atom_site_fract_x
  _atom_site_fract_y
  _atom_site_fract_z
  _atom_site_occupancy
  Cd  Cd1       1.0  0.29686664402849056  0.14654861915396813  0.47355197206906763  1.0000
  Cd  Cd2       1.0  0.703134821579205  0.35345107402715564  0.9735523629012095  1.0000
  Cd  Cd3       1.0  0.703129570434193  0.8534470725860711  0.5264470626979971  1.0000
  Cd  Cd4       1.0  0.2968661434143486  0.6465500901077023  0.02644839511312821  1.0000
  H   H1        1.0  0.9615846339639376  0.7035360610039944  0.21348189439731163  1.0000
  H   H2        1.0  0.03840505885444398  0.7964561603748592  0.7134862140924484  1.0000
  H   H3        1.0  0.038422646742866044  0.2964614599791701  0.7865175711814842  1.0000
  H   H4        1.0  0.9615852006190551  0.20354408634540272  0.2865158363608771  1.0000
  H   H5        1.0  0.45082808338126773  0.35304676095655907  0.268903644094749  1.0000
  H   H6        1.0  0.5491602228827404  0.14694886841902388  0.7689026268560611  1.0000
  H   H7        1.0  0.5491610939234731  0.6469507502706761  0.7310953906706885  1.0000
  H   H8        1.0  0.45084886142862496  0.8530532117409845  0.2310955462806419  1.0000
  H   H9        1.0  0.9525444999111555  0.7802991355059418  0.31496497242197563  1.0000
  H   H10       1.0  0.047443950157735094  0.7197015008422979  0.8149715671126146  1.0000
  H   H11       1.0  0.047464284832557296  0.2196956513662158  0.6850349239718768  1.0000
  H   H12       1.0  0.9525366248094401  0.2803069454127324  0.18503220658543285  1.0000
  H   H13       1.0  0.6876284356538988  0.6461641417062437  0.39178029513924173  1.0000
  H   H14       1.0  0.3123650089978794  0.8538414367643976  0.8917841096110166  1.0000
  H   H15       1.0  0.31238329601201537  0.35383155839281943  0.6082200320668321  1.0000
  H   H16       1.0  0.6876240460097875  0.14616883734728248  0.10821794083441462  1.0000
  H   H17       1.0  0.7025831841553439  0.4919334272044863  0.19067266622366222  1.0000
  H   H18       1.0  0.29739789755043944  0.0080581802591126  0.6906752990325843  1.0000
  H   H19       1.0  0.2974067145927322  0.5080659076902235  0.8093267993532152  1.0000
  H   H20       1.0  0.702601985279152  0.9919402483723156  0.30932545898387087  1.0000
  H   H21       1.0  0.2443363666580112  0.5454942572386584  0.42982975311185373  1.0000
  H   H22       1.0  0.7556617109889386  0.954502856243145  0.9298304192203233  1.0000
  H   H23       1.0  0.7556701926054644  0.45450144007703835  0.5701692816555025  1.0000
  H   H24       1.0  0.2443333601595299  0.045496481439393194  0.0701690463567033  1.0000
  H   H25       1.0  0.156940209872431  0.40032580085653524  0.4605494061543355  1.0000
  H   H26       1.0  0.8430645220660652  0.09967580714964439  0.9605497722574937  1.0000
  H   H27       1.0  0.8430618984339731  0.5996717173388006  0.5394500594243186  1.0000
  H   H28       1.0  0.1569364429274953  0.9003253569852201  0.03945098575684371  1.0000
  C   C1        1.0  0.5482236934060651  0.4896672637060532  0.33555158130145923  1.0000
  C   C2        1.0  0.4517688537050688  0.0103315542889533  0.835554650154144  1.0000
  C   C3        1.0  0.45177733273636994  0.5103275189858465  0.6644478842793121  1.0000
  C   C4        1.0  0.5482361403753443  0.9896732585747613  0.1644469694831585  1.0000
  C   C5        1.0  0.8448061963796788  0.6444169580327778  0.24787717441342494  1.0000
  C   C6        1.0  0.15518468788390286  0.8555777614049447  0.7478814080137683  1.0000
  C   C7        1.0  0.15520072360785517  0.35557965111144796  0.7521235836046574  1.0000
  C   C8        1.0  0.8448118261539648  0.14442522360658214  0.252120642437589  1.0000
  C   C9        1.0  0.5578029892694188  0.44709720962992355  0.2785852307310606  1.0000
  C   C10       1.0  0.44218348299985183  0.0529001751797509  0.7785856473796926  1.0000
  C   C11       1.0  0.4422017052358171  0.552900309962304  0.7214133732219495  1.0000
  C   C12       1.0  0.5578156172327412  0.9471028112375846  0.2214129565688694  1.0000
  C   C13       1.0  0.8374758048457522  0.6874103153151053  0.30433904285892777  1.0000
  C   C14       1.0  0.16251080784785904  0.812585835232781  0.8043407594447134  1.0000
  C   C15       1.0  0.16253334062065508  0.3125853833885585  0.6956617151599291  1.0000
  C   C16       1.0  0.8374731359082974  0.18741805464810568  0.1956599985670024  1.0000
  C   C17       1.0  0.6852780249767463  0.6112554171452514  0.3478723067633709  1.0000
  C   C18       1.0  0.3147108903607433  0.8887459038787641  0.8478747741701655  1.0000
  C   C19       1.0  0.31473557144671815  0.3887384606787804  0.6521280204441879  1.0000
  C   C20       1.0  0.6852767217602604  0.11126072289798121  0.15212641465236496  1.0000
  C   C21       1.0  0.7011450547979406  0.5245400404682313  0.23501060752982997  1.0000
  C   C22       1.0  0.2988442845444296  0.9754575019132757  0.7350116455615635  1.0000
  C   C23       1.0  0.29885224182802983  0.4754583867767225  0.7649879964222636  1.0000
  C   C24       1.0  0.7011607095339369  0.024547310954893885  0.2649886816371705  1.0000
  C   C25       1.0  0.4052277839304638  0.406752944867371  0.3823021611946302  1.0000
  C   C26       1.0  0.5947656331552125  0.09324737406880959  0.8823020924274374  1.0000
  C   C27       1.0  0.5947769105754617  0.5932445747233643  0.6176968735712407  1.0000
  C   C28       1.0  0.4052364139988993  0.9067565255769165  0.1176965115204922  1.0000
  S   S1        1.0  0.43380029864888303  0.2561526659513759  0.3762273880233807  1.0000
  S   S2        1.0  0.5661997144212023  0.2438513450480428  0.8762270813701889  1.0000
  S   S3        1.0  0.5661992234573248  0.7438448508500385  0.623772077555202  1.0000
  S   S4        1.0  0.4338085872993176  0.7561552928844862  0.12377281501434823  1.0000
  N   N1        1.0  0.2690740263970853  0.45479576514967585  0.4278782427110102  1.0000
  N   N2        1.0  0.7309198962152765  0.0452051509901352  0.9278782570655438  1.0000
  N   N3        1.0  0.7309306681088331  0.5452017544410594  0.5721207920548538  1.0000
  N   N4        1.0  0.26907625709785066  0.9547969221943474  0.07212163932222641  1.0000
  Cl  Cl1       1.0  0.8543493325914114  0.2778014526825601  0.524324903577565  1.0000
  Cl  Cl2       1.0  0.14565112759325416  0.22219587209066557  0.024323954645950607  1.0000
  Cl  Cl3       1.0  0.14565055023543738  0.7221969759548229  0.47567413118745355  1.0000
  Cl  Cl4       1.0  0.8543428613905563  0.7778007300899361  0.9756750801203325  1.0000
  Cl  Cl5       1.0  0.2530530515108111  0.006357290683716599  0.5663608023793715  1.0000
  Cl  Cl6       1.0  0.7469449560344401  0.4936397424968104  0.06636204673969812  1.0000
  Cl  Cl7       1.0  0.7469464705947217  0.9936402261191901  0.43363823238635757  1.0000
  Cl  Cl8       1.0  0.25305823443799363  0.506360511197492  0.9336387112754141  1.0000
