data_image0
_chemical_formula_structural       Hg4H28C40N20O4
_chemical_formula_sum              "Hg4 H28 C40 N20 O4"
_cell_length_a       6.324730407834316
_cell_length_b       8.258020605236805
_cell_length_c       22.160177557246055
_cell_angle_alpha    90.00058724881119
_cell_angle_beta     89.99940676282027
_cell_angle_gamma    104.08997458981717

_space_group_name_H-M_alt    "P 1"
_space_group_IT_number       1

loop_
  _space_group_symop_operation_xyz
  'x, y, z'

loop_
  _atom_site_type_symbol
  _atom_site_label
  _atom_site_symmetry_multiplicity
  _atom_site_fract_x
  _atom_site_fract_y
  _atom_site_fract_z
  _atom_site_occupancy
  Hg  Hg1       1.0  0.7638808106638636  0.07436054608836432  0.7879382862916487  1.0000
  Hg  Hg2       1.0  0.23610474564591752  0.4256233760015604  0.2879414818817025  1.0000
  Hg  Hg3       1.0  0.23610144664561977  0.9256308992999467  0.2120609399683175  1.0000
  Hg  Hg4       1.0  0.7638822163937037  0.574363055067778  0.7120572930933733  1.0000
  H   H1        1.0  0.0895199315971453  0.12480860387015008  0.9504711713633966  1.0000
  H   H2        1.0  0.9104720866011107  0.3751945326424889  0.45047052295877416  1.0000
  H   H3        1.0  0.9104563438040644  0.87517411223417  0.04952940867573831  1.0000
  H   H4        1.0  0.08954505361503351  0.6248167971318425  0.54952509315887  1.0000
  H   H5        1.0  0.5851916075435354  0.3617229214563622  0.0050729708988158  1.0000
  H   H6        1.0  0.4148332669527974  0.13829599163607045  0.5050581714466134  1.0000
  H   H7        1.0  0.4148302375041056  0.6382833942634107  0.9949425006304436  1.0000
  H   H8        1.0  0.5852151602516571  0.86172898503645  0.49492661436748625  1.0000
  H   H9        1.0  0.7168040493805563  0.588398844845976  0.9294144784684661  1.0000
  H   H10       1.0  0.2832031903316832  0.9116131985409055  0.42940018130281027  1.0000
  H   H11       1.0  0.28320912544694476  0.41160999839140544  0.0706032493920361  1.0000
  H   H12       1.0  0.7168305510710907  0.08840057728328081  0.5705868608313408  1.0000
  H   H13       1.0  0.023456148743981917  0.5795823239247256  0.8619148412150608  1.0000
  H   H14       1.0  0.9765342192389784  0.9204267641443382  0.36190902295835053  1.0000
  H   H15       1.0  0.9765388453517615  0.42042407814008004  0.1380956665364508  1.0000
  H   H16       1.0  0.0234797956998207  0.0795895748307842  0.6380843368798566  1.0000
  H   H17       1.0  0.36169173733898663  0.6024369787517613  0.831388389683262  1.0000
  H   H18       1.0  0.6382938898350474  0.8975575810349242  0.3313908372397592  1.0000
  H   H19       1.0  0.6382873610536637  0.3975544768435171  0.1686139954057353  1.0000
  H   H20       1.0  0.3617133703203664  0.10245253079447278  0.6686088402444597  1.0000
  H   H21       1.0  0.2549390021767195  0.0820633464663274  0.8619685810845182  1.0000
  H   H22       1.0  0.7450394631354696  0.41793252694778726  0.3619682138253282  1.0000
  H   H23       1.0  0.7450571007443189  0.9179318038269173  0.1380369627804114  1.0000
  H   H24       1.0  0.254950389206101  0.5820726416824157  0.6380278536215869  1.0000
  H   H25       1.0  0.6469119938485123  0.13006066392621557  0.04807916396024581  1.0000
  H   H26       1.0  0.35310376585316317  0.36994940151495115  0.5480684372013727  1.0000
  H   H27       1.0  0.3530880409230405  0.8699319741745627  0.9519299899667857  1.0000
  H   H28       1.0  0.6469133743494666  0.630061928224123  0.45192447135674024  1.0000
  C   C1        1.0  0.0729693609443132  0.350853823584238  0.9012383452528354  1.0000
  C   C2        1.0  0.9270229723363458  0.14915052781849175  0.4012357264904622  1.0000
  C   C3        1.0  0.9270176347956037  0.6491376066375663  0.0987671986316769  1.0000
  C   C4        1.0  0.07298785001685094  0.8508608222934056  0.598760340906253  1.0000
  C   C5        1.0  0.006326825882801809  0.2247809962242684  0.9440998468815208  1.0000
  C   C6        1.0  0.9936742358802065  0.2752256944081424  0.4440964621786847  1.0000
  C   C7        1.0  0.993664504957053  0.7752091702122785  0.0559025381677145  1.0000
  C   C8        1.0  0.0063405183032329586  0.7247831434584099  0.5558991539408424  1.0000
  C   C9        1.0  0.8286342907327297  0.22946522976054948  0.9813470713189503  1.0000
  C   C10       1.0  0.1713813580259824  0.27054238501213496  0.48133826179444134  1.0000
  C   C11       1.0  0.17137128899963028  0.7705298900704208  0.0186611800767835  1.0000
  C   C12       1.0  0.8286361517933402  0.7294651941579746  0.518654646754527  1.0000
  C   C13       1.0  0.7221610615344362  0.35965380954797155  0.9755313828929388  1.0000
  C   C14       1.0  0.2778569488502498  0.14036114470511052  0.4755191156552954  1.0000
  C   C15       1.0  0.27785483525117644  0.6403487758992628  0.0244813810867868  1.0000
  C   C16       1.0  0.7221692985244914  0.8596539050819133  0.5244719878435475  1.0000
  C   C17       1.0  0.7957145319012541  0.48523198281924357  0.9332826702771443  1.0000
  C   C18       1.0  0.20429394955666422  0.014778151183442402  0.4332721154197969  1.0000
  C   C19       1.0  0.20429860923045604  0.5147718612774242  0.0667291911937724  1.0000
  C   C20       1.0  0.7957271561337151  0.9852356653511195  0.5667185368320347  1.0000
  C   C21       1.0  0.9704727107416816  0.481898302271567  0.8952919155038755  1.0000
  C   C22       1.0  0.0295266876022211  0.0181083709199683  0.39528784719404797  1.0000
  C   C23       1.0  0.029524635704497416  0.5181055925955604  0.1047154334156986  1.0000
  C   C24       1.0  0.9704908558836182  0.9819042073144646  0.6047050613655145  1.0000
  C   C25       1.0  0.3761243080913062  0.4745404133464107  0.8292468439309957  1.0000
  C   C26       1.0  0.6238633073800132  0.025454577490258104  0.3292486882937879  1.0000
  C   C27       1.0  0.6238615114520057  0.5254522704184055  0.170755992400224  1.0000
  C   C28       1.0  0.3761371979559698  0.9745493070993873  0.6707500866776854  1.0000
  C   C29       1.0  0.3239107130518875  0.20814652774058123  0.8461379930321016  1.0000
  C   C30       1.0  0.676066418058852  0.29185018704017557  0.3461402107826927  1.0000
  C   C31       1.0  0.6760818276443388  0.791847384199656  0.1538657458012622  1.0000
  C   C32       1.0  0.32392266139407866  0.7081574836930215  0.6538581129715197  1.0000
  C   C33       1.0  0.9800506529308493  0.2380757219734022  0.7339885054345601  1.0000
  C   C34       1.0  0.019926131513621236  0.2619155701982337  0.2339873439677476  1.0000
  C   C35       1.0  0.01991147460668694  0.7619170380058621  0.2660120746688719  1.0000
  C   C36       1.0  0.9800695007596475  0.7380683333887462  0.7660118822356168  1.0000
  C   C37       1.0  0.6328058060128968  0.9207282868490126  0.8587531039400814  1.0000
  C   C38       1.0  0.36716739127375325  0.5792570280880299  0.35875628014322564  1.0000
  C   C39       1.0  0.367185121514467  0.07926063101580641  0.1412434147287129  1.0000
  C   C40       1.0  0.6328180586190867  0.4207394061576296  0.6412397872983036  1.0000
  N   N1        1.0  0.48420379049326817  0.2513054429127096  0.8067448656911793  1.0000
  N   N2        1.0  0.5157737202824179  0.24868774398936475  0.3067496733401498  1.0000
  N   N3        1.0  0.5157879773008105  0.7486909710952716  0.19325842188995782  1.0000
  N   N4        1.0  0.4842184507881058  0.7513099184963395  0.6932522604626641  1.0000
  N   N5        1.0  0.5177246841934106  0.4195845655741053  0.7963183127529874  1.0000
  N   N6        1.0  0.4822578641748976  0.0804095830434548  0.2963221514811778  1.0000
  N   N7        1.0  0.4822623451995156  0.5804118636767657  0.2036845235825879  1.0000
  N   N8        1.0  0.5177358863529165  0.9195880743358276  0.7036779772771595  1.0000
  N   N9        1.0  0.2505563646942549  0.3454013699472612  0.8618125708356956  1.0000
  N   N10       1.0  0.7494268711292025  0.15459948322821762  0.3618128547240715  1.0000
  N   N11       1.0  0.7494275057750814  0.6545950694929559  0.1381920705491453  1.0000
  N   N12       1.0  0.2505704752629114  0.8454044114978956  0.6381836639573706  1.0000
  N   N13       1.0  0.1008808136660946  0.33242570331607624  0.7031698625607135  1.0000
  N   N14       1.0  0.8991154569851219  0.16757222144368458  0.20317471166437429  1.0000
  N   N15       1.0  0.8990952267552074  0.6675807595381401  0.2968248511509799  1.0000
  N   N16       1.0  0.10088333421173705  0.8324116719539562  0.7968227094897243  1.0000
  N   N17       1.0  0.5504755563478766  0.8409020247568861  0.8997257779762364  1.0000
  N   N18       1.0  0.4495028893298639  0.6590993390354287  0.3997242853159335  1.0000
  N   N19       1.0  0.44952175642052333  0.159096871016537  0.1002793146331271  1.0000
  N   N20       1.0  0.5504877359115952  0.34090332752113994  0.6002717821232864  1.0000
  O   O1        1.0  0.766862644270816  0.10665812913818941  0.0229562086788846  1.0000
  O   O2        1.0  0.23315209175263626  0.39335378418836353  0.5229485640135181  1.0000
  O   O3        1.0  0.23313342498370568  0.8933320220907321  0.977049335175444  1.0000
  O   O4        1.0  0.7668682073713387  0.6066575353554955  0.4770420882354003  1.0000
