data_image0
_chemical_formula_structural       Zn2H8C10N2O6
_chemical_formula_sum              "Zn2 H8 C10 N2 O6"
_cell_length_a       4.995723816889803
_cell_length_b       5.007365318003348
_cell_length_c       12.046661096636281
_cell_angle_alpha    95.47394564469357
_cell_angle_beta     97.10722075752037
_cell_angle_gamma    105.86283951276809

_space_group_name_H-M_alt    "P 1"
_space_group_IT_number       1

loop_
  _space_group_symop_operation_xyz
  'x, y, z'

loop_
  _atom_site_type_symbol
  _atom_site_label
  _atom_site_symmetry_multiplicity
  _atom_site_fract_x
  _atom_site_fract_y
  _atom_site_fract_z
  _atom_site_occupancy
  Zn  Zn1       1.0  0.6791833259547247  0.9036711794547475  0.4600984568343236  1.0000
  Zn  Zn2       1.0  0.19757764449021656  0.419282086865202  0.5128956263609865  1.0000
  H   H1        1.0  0.8213061880892808  0.5331740478357078  0.2799488874084091  1.0000
  H   H2        1.0  0.5067688910560478  0.21850421950472315  0.695753933522539  1.0000
  H   H3        1.0  0.7195842227918872  0.4041874917804904  0.07148348266242979  1.0000
  H   H4        1.0  0.6178765687944789  0.2983688332254602  0.9031764165873284  1.0000
  H   H5        1.0  0.1630231487993044  0.9326084440350897  0.06399875502383169  1.0000
  H   H6        1.0  0.09368536864412386  0.8638160790659268  0.8947290113206563  1.0000
  H   H7        1.0  0.2920793024005093  0.038228691548411624  0.2729688434176153  1.0000
  H   H8        1.0  0.017350141221619705  0.7548189226415118  0.6877516176240802  1.0000
  C   C1        1.0  0.67939733506865  0.6182386342491027  0.22743483054659205  1.0000
  C   C2        1.0  0.42225462215588283  0.3583919814085519  0.7450757375492145  1.0000
  C   C3        1.0  0.6179166418534762  0.5461545178177262  0.11103039537283617  1.0000
  C   C4        1.0  0.48075985009791816  0.4071223292986232  0.8620688370177942  1.0000
  C   C5        1.0  0.4308801118756875  0.6578504593396134  0.04640883233403059  1.0000
  C   C6        1.0  0.36648549424047866  0.5921976429214268  0.9221120777548036  1.0000
  C   C7        1.0  0.3117712069267213  0.8387121226258573  0.10696041943793937  1.0000
  C   C8        1.0  0.19257912904348734  0.7166271462746606  0.8574564911456903  1.0000
  C   C9        1.0  0.3829667432815001  0.9013466154443182  0.2235169712514633  1.0000
  C   C10       1.0  0.14579041862923248  0.6592249066334547  0.7405211550353741  1.0000
  N   N1        1.0  0.5655463463877625  0.7946031078607022  0.2833238622691994  1.0000
  N   N2        1.0  0.25826766852568284  0.4824943926768981  0.6852486066907915  1.0000
  O   O1        1.0  0.7594143895985752  0.9772249696146034  0.7651790130961088  1.0000
  O   O2        1.0  0.7727755702801319  0.33597035897991395  0.44797329181015744  1.0000
  O   O3        1.0  0.1108536953195554  0.9998977323228928  0.4478420005603708  1.0000
  O   O4        1.0  0.6372385700543575  0.5116754689313794  0.5100229163862834  1.0000
  O   O5        1.0  0.2893903123796022  0.8586530538079985  0.5086895437372618  1.0000
  O   O6        1.0  0.8029676966321164  0.041258481694754316  0.6663311941367738  1.0000
