data_image0
_chemical_formula_structural       Cd4H48C48Se8N24
_chemical_formula_sum              "Cd4 H48 C48 Se8 N24"
_cell_length_a       5.683826856
_cell_length_b       13.99144167
_cell_length_c       18.838
_cell_angle_alpha    90.0
_cell_angle_beta     90.0
_cell_angle_gamma    90.0

_space_group_name_H-M_alt    "P 1"
_space_group_IT_number       1

loop_
  _space_group_symop_operation_xyz
  'x, y, z'

loop_
  _atom_site_type_symbol
  _atom_site_label
  _atom_site_symmetry_multiplicity
  _atom_site_fract_x
  _atom_site_fract_y
  _atom_site_fract_z
  _atom_site_occupancy
  Cd  Cd1       1.0  0.9999935156363975  0.5000027992111811  0.4999989383161676  1.0000
  Cd  Cd2       1.0  1.05562680801e-05  2.1441678939e-06  0.9999978766323424  1.0000
  Cd  Cd3       1.0  0.4999941187511752  0.9999941628602754  0.5000031850514901  1.0000
  Cd  Cd4       1.0  0.4999958781291909  0.5000013697659256  0.9999994691580838  1.0000
  H   H1        1.0  0.5769774630868908  0.6366363245539688  0.4389823760484148  1.0000
  H   H2        1.0  0.4230142931714979  0.8633563491817071  0.938982906890331  1.0000
  H   H3        1.0  0.9230031337886329  0.1366421020143491  0.5610165622677599  1.0000
  H   H4        1.0  0.0769991787378288  0.3633556941384128  0.061014969742011295  1.0000
  H   H5        1.0  0.4229949400133535  0.3633614119194633  0.5610176239515852  1.0000
  H   H6        1.0  0.576998575623044  0.1366378136785684  0.0610181547935014  1.0000
  H   H7        1.0  0.0769956599817974  0.8633620669627504  0.43898449941607254  1.0000
  H   H8        1.0  0.9230048931666486  0.6366356098313375  0.9389834377322402  1.0000
  H   H9        1.0  0.4157075962836102  0.7002680803800274  0.327935555791484  1.0000
  H   H10       1.0  0.5842911974868201  0.7997345994724796  0.8279350249495678  1.0000
  H   H11       1.0  0.0842759661994918  0.2002702842272583  0.6720623208408512  1.0000
  H   H12       1.0  0.9157245869489614  0.299728226648142  0.1720596666312773  1.0000
  H   H13       1.0  0.5842630474386112  0.2997267972028794  0.6720628516827674  1.0000
  H   H14       1.0  0.4157304681977791  0.2002724283951522  0.17206338252468362  1.0000
  H   H15       1.0  0.9157351432170342  0.7997253080782799  0.3279387408429741  1.0000
  H   H16       1.0  0.0842689286874361  0.7002766570515959  0.8279398025268065  1.0000
  H   H17       1.0  0.0188077509586932  0.5785551046792179  0.2194527019853467  1.0000
  H   H18       1.0  0.9811998397018016  0.9214518635090698  0.7194511094596052  1.0000
  H   H19       1.0  0.4811863677924819  0.0785501613001429  0.7805472980146533  1.0000
  H   H20       1.0  0.51881594473398  0.4214454906847322  0.2805462363308209  1.0000
  H   H21       1.0  0.9811716896535926  0.4214462054073635  0.7805462363308209  1.0000
  H   H22       1.0  0.018823585360813397  0.0785558790811862  0.2805478288565695  1.0000
  H   H23       1.0  0.5188265010020601  0.9214432868375013  0.2194537636691791  1.0000
  H   H24       1.0  0.4811934053045305  0.5785572488471118  0.719450578617689  1.0000
  H   H25       1.0  0.1556803228560568  0.5202666152415176  0.3368324662915398  1.0000
  H   H26       1.0  0.8443167115363648  0.9797346351657268  0.8368324662915398  1.0000
  H   H27       1.0  0.3443155552731341  0.0202645307529608  0.6631680645503764  1.0000
  H   H28       1.0  0.6556867572533278  0.4797332653998083  0.1631659411827187  1.0000
  H   H29       1.0  0.8443061552682849  0.4797382684582204  0.6631675337084602  1.0000
  H   H30       1.0  0.15568736036810546  0.0202609571398114  0.1631685953922926  1.0000
  H   H31       1.0  0.6556867572533278  0.9797396382241459  0.3368335279753722  1.0000
  H   H32       1.0  0.34431907402915835  0.520258038569942  0.8368287503981335  1.0000
  H   H33       1.0  0.4575702367243224  0.7080857165164431  0.1968972290052022  1.0000
  H   H34       1.0  0.5424373539361724  0.7919162486134255  0.6968982906890346  1.0000
  H   H35       1.0  0.042427400782877094  0.2080857761957873  0.8031017093109654  1.0000
  H   H36       1.0  0.9575749117435848  0.2919127346796131  0.3031017093109654  1.0000
  H   H37       1.0  0.542412722643995  0.2919113052343505  0.8030995859433077  1.0000
  H   H38       1.0  0.4575825523704182  0.2080914939768306  0.3031017093109654  1.0000
  H   H39       1.0  0.9575837086336492  0.7919083866644883  0.1969009448986085  1.0000
  H   H40       1.0  0.04242564140486849  0.7080914342974935  0.6969004140566923  1.0000
  H   H41       1.0  0.6860624186473316  0.6537153365411541  0.153663340057328  1.0000
  H   H42       1.0  0.3139451720131703  0.846285199143459  0.6536617475315865  1.0000
  H   H43       1.0  0.8139340126303124  0.1537139667752356  0.8463377216264973  1.0000
  H   H44       1.0  0.1860718186521737  0.3462874029906899  0.34633665994267204  1.0000
  H   H45       1.0  0.3139240594770172  0.3462823999322708  0.846336659942672  1.0000
  H   H46       1.0  0.6860747342934204  0.1537189698336476  0.3463382524684135  1.0000
  H   H47       1.0  0.1860753374082051  0.8462787666397772  0.1536644017411604  1.0000
  H   H48       1.0  0.8139375313863368  0.6537210543222045  0.6536644017411604  1.0000
  C   C1        1.0  0.5033386963538433  0.3963894594144435  0.441607389319458  1.0000
  C   C2        1.0  0.49664954114851406  0.1036204870230506  0.941604735109884  1.0000
  C   C3        1.0  0.9966331036316163  0.8963786788956369  0.5583942032062836  1.0000
  C   C4        1.0  0.003372727650869899  0.603626145124757  0.0583968574158646  1.0000
  C   C5        1.0  0.496633706746394  0.6036211420663449  0.5583910181547935  1.0000
  C   C6        1.0  0.5033650870240365  0.8963779641730056  0.0583846480518133  1.0000
  C   C7        1.0  0.003334021334587999  0.1036147692420002  0.4416089818452066  1.0000
  C   C8        1.0  0.9966313442536006  0.39637230607129936  0.9416121668966966  1.0000
  C   C9        1.0  0.6717850660720401  0.6249713364955909  0.3895891283575779  1.0000
  C   C10       1.0  0.3282119683203817  0.8750256255758657  0.8895885975156617  1.0000
  C   C11       1.0  0.8282025683155324  0.1249742550654531  0.6104103408005132  1.0000
  C   C12       1.0  0.17180150358893798  0.3750249705325785  0.11040874827476442  1.0000
  C   C13       1.0  0.3281890964062129  0.3750249705325785  0.6104103408005132  1.0000
  C   C14       1.0  0.6718044192301846  0.1249735403428218  0.1104124641681707  1.0000
  C   C15       1.0  0.171806781722978  0.8750241961306031  0.3895901900414032  1.0000
  C   C16       1.0  0.8282078464495726  0.6249713364955909  0.8895912517252356  1.0000
  C   C17       1.0  0.5809571761522392  0.6608311150540658  0.3269004140566949  1.0000
  C   C18       1.0  0.4190468957522384  0.8391687059079159  0.8268988215309463  1.0000
  C   C19       1.0  0.9190339769913648  0.1608333189012967  0.6730985242594727  1.0000
  C   C20       1.0  0.0809648167790726  0.3391680508646289  0.1730969317337312  1.0000
  C   C21       1.0  0.4190187457040295  0.339165906696735  0.6730969317337312  1.0000
  C   C22       1.0  0.5809730105543521  0.16083546306919064  0.1730969317337312  1.0000
  C   C23       1.0  0.0809788918031771  0.839163702849504  0.3269030682662688  1.0000
  C   C24       1.0  0.9190322176133491  0.6608332592219597  0.8269020065824364  1.0000
  C   C25       1.0  0.7022698089028481  0.645100784671321  0.2625777683405914  1.0000
  C   C26       1.0  0.2977448192697025  0.8549011804585547  0.7625788300244167  1.0000
  C   C27       1.0  0.7977301411308133  0.1450994149053955  0.7374206391336671  1.0000
  C   C28       1.0  0.2022774495296815  0.3548990959699978  0.23741904660791852  1.0000
  C   C29       1.0  0.29770435357540487  0.354896951802111  0.7374211699755833  1.0000
  C   C30       1.0  0.7022874026829768  0.1451058474090772  0.23742170081749953  1.0000
  C   C31       1.0  0.20229152455378593  0.8548954626775043  0.2625798917082491  1.0000
  C   C32       1.0  0.7977248629967731  0.6451050730071017  0.7625798917082491  1.0000
  C   C33       1.0  0.9148079510041994  0.5927666494713719  0.2669195243656404  1.0000
  C   C34       1.0  0.085201399034311  0.907238174549029  0.766917931839899  1.0000
  C   C35       1.0  0.5851884802734375  0.0927602766470343  0.7330820681601011  1.0000
  C   C36       1.0  0.4148120728750087  0.4072339458925853  0.2330783522666948  1.0000
  C   C37       1.0  0.08517500836411779  0.4072339458925853  0.7330820681601011  1.0000
  C   C38       1.0  0.914822026028304  0.0927688533186029  0.2330815373181849  1.0000
  C   C39       1.0  0.414815591631033  0.9072331714906099  0.2669205860494728  1.0000
  C   C40       1.0  0.5851919990294618  0.5927673641940032  0.7669189935237314  1.0000
  C   C41       1.0  0.9916364700747662  0.5599901843424533  0.3322475846692825  1.0000
  C   C42       1.0  0.0083658424516955  0.9400117807874224  0.832245992143541  1.0000
  C   C43       1.0  0.508358201824862  0.0599852409633783  0.6677524153307175  1.0000
  C   C44       1.0  0.49164059194557547  0.4400104110214969  0.1677524153307175  1.0000
  C   C45       1.0  0.0083500080495753  0.4400146993572847  0.6677513536468851  1.0000
  C   C46       1.0  0.9916452669648306  0.0599852409633783  0.16775294617262662  1.0000
  C   C47       1.0  0.4916441107015998  0.9400146396779406  0.3322475846692825  1.0000
  C   C48       1.0  0.508363479958895  0.5599858960066726  0.8322465229854572  1.0000
  Se  Se1       1.0  0.7670518667185817  0.3288081463302106  0.45714300881197545  1.0000
  Se  Se2       1.0  0.23296276145396885  0.17119322343570786  0.9571350461832466  1.0000
  Se  Se3       1.0  0.7329340082909821  0.8287995099793051  0.5428596453975985  1.0000
  Se  Se4       1.0  0.2670507104553508  0.6711953079242647  0.042866546342502  1.0000
  Se  Se5       1.0  0.2329504458078802  0.6711938784790021  0.5428564603461083  1.0000
  Se  Se6       1.0  0.7670483479625572  0.8288109455413988  0.0428463743497218  1.0000
  Se  Se7       1.0  0.267043672943295  0.1711889350999272  0.4571435396538917  1.0000
  Se  Se8       1.0  0.7329586395831597  0.3288081463302106  0.9571546873341106  1.0000
  N   N1        1.0  0.3265440779640798  0.4395515590924788  0.4325299925682132  1.0000
  N   N2        1.0  0.6734494376723176  0.0604448076150277  0.9325284000424645  1.0000
  N   N3        1.0  0.17341485322683778  0.9395436374642046  0.5674678840641292  1.0000
  N   N4        1.0  0.8265681061414795  0.5604547540525147  0.0674705382737031  1.0000
  N   N5        1.0  0.6734195282460931  0.560455468775146  0.5674668223802968  1.0000
  N   N6        1.0  0.32656343112222425  0.939550069967879  0.0674615139611419  1.0000
  N   N7        1.0  0.8265452342273107  0.0604469517829145  0.43253689351310953  1.0000
  N   N8        1.0  0.1734289282509422  0.43954512658880424  0.9325321159358708  1.0000
  N   N9        1.0  0.8740079748833196  0.5746398541073319  0.3936203418621957  1.0000
  N   N10       1.0  0.1259943376431352  0.9253606815772812  0.8936208727041121  1.0000
  N   N11       1.0  0.6259849376382931  0.074637769618775  0.6063796581378043  1.0000
  N   N12       1.0  0.3740156155101602  0.425362170701888  0.10637912729588808  1.0000
  N   N13       1.0  0.1259732251069821  0.4253643148697747  0.6063796581378043  1.0000
  N   N14       1.0  0.8740185311513997  0.0746356254508811  0.10638125066355292  1.0000
  N   N15       1.0  0.3740208936441931  0.925364969913069  0.3936208727041119  1.0000
  N   N16       1.0  0.6259849376382931  0.5746327068810189  0.8936187493364472  1.0000
  N   N17       1.0  0.6250014453290405  0.6823749993162807  0.1998922390911986  1.0000
  N   N18       1.0  0.3750079047094772  0.8176298247041203  0.6998917082492824  1.0000
  N   N19       1.0  0.874993226570588  0.1823714853824612  0.8001082917507176  1.0000
  N   N20       1.0  0.1250073265778582  0.3176270254929321  0.3001061683830528  1.0000
  N   N21       1.0  0.3749815140392769  0.3176255960476766  0.8001077609088014  1.0000
  N   N22       1.0  0.6250207984871777  0.1823786326087742  0.3001077609088015  1.0000
  N   N23       1.0  0.1250161234679226  0.8176212480325518  0.1998948933007725  1.0000
  N   N24       1.0  0.8749949859486037  0.6823792876520614  0.6998943624588563  1.0000
