data_image0
_chemical_formula_structural       H20Pb6C24O24
_chemical_formula_sum              "H20 Pb6 C24 O24"
_cell_length_a       8.245251123420068
_cell_length_b       9.90484362236474
_cell_length_c       10.699170845292876
_cell_angle_alpha    93.1455206210085
_cell_angle_beta     112.68428063310562
_cell_angle_gamma    90.04960319130547

_space_group_name_H-M_alt    "P 1"
_space_group_IT_number       1

loop_
  _space_group_symop_operation_xyz
  'x, y, z'

loop_
  _atom_site_type_symbol
  _atom_site_label
  _atom_site_symmetry_multiplicity
  _atom_site_fract_x
  _atom_site_fract_y
  _atom_site_fract_z
  _atom_site_occupancy
  H   H1        1.0  0.21825171181698277  0.06206121023075179  0.6579696071901324  1.0000
  H   H2        1.0  0.5605622712738807  0.4381374429388386  0.34185777516518095  1.0000
  H   H3        1.0  0.781830602389981  0.9379822961390045  0.3421052441360359  1.0000
  H   H4        1.0  0.4395486166154328  0.5618473445823823  0.6582060837721073  1.0000
  H   H5        1.0  0.35753302095173484  0.17105522694311046  0.954712821722083  1.0000
  H   H6        1.0  0.40284387238691016  0.32925308878770204  0.04512254719333699  1.0000
  H   H7        1.0  0.6426328092066244  0.8290177020963369  0.0453729567646022  1.0000
  H   H8        1.0  0.597427866240082  0.6707571092446114  0.954954268569736  1.0000
  H   H9        1.0  0.44436292310998493  0.03550040977050629  0.8920972429567086  1.0000
  H   H10       1.0  0.5523769169541879  0.46501907236626755  0.10784500159294909  1.0000
  H   H11       1.0  0.5556986012315052  0.9645579854150905  0.10794410119680008  1.0000
  H   H12       1.0  0.44773492926807285  0.5350865943931776  0.8922898802942426  1.0000
  H   H13       1.0  0.345972158396556  0.2954112786411684  0.6338081929585329  1.0000
  H   H14       1.0  0.7119590504617862  0.20488820336979063  0.3661926559515791  1.0000
  H   H15       1.0  0.6541833858198773  0.7046600026318754  0.3663240230174906  1.0000
  H   H16       1.0  0.2879751464458451  0.7950962526134542  0.6339593694526258  1.0000
  H   H17       1.0  0.4619635088401496  0.3009977068058588  0.8120615761767452  1.0000
  H   H18       1.0  0.6498918281391326  0.19915808547462885  0.18798519866027164  1.0000
  H   H19       1.0  0.5381450497794165  0.6989797112939795  0.18809100286426875  1.0000
  H   H20       1.0  0.3501096813147484  0.8006899712919515  0.8121750419939743  1.0000
  Pb  Pb1       1.0  0.04368191572095271  0.7500975907012443  0.9998191413099065  1.0000
  Pb  Pb2       1.0  0.9561419725609  0.24995328646559042  0.9994529464981952  1.0000
  Pb  Pb3       1.0  0.7814368288388851  0.9575421687313508  0.6295188478900399  1.0000
  Pb  Pb4       1.0  0.1521698408068985  0.5423558073617867  0.3699970375034098  1.0000
  Pb  Pb5       1.0  0.21790613911091583  0.04242789043117769  0.369868687357048  1.0000
  Pb  Pb6       1.0  0.8476157332247214  0.45744273229260535  0.629796481935216  1.0000
  C   C1        1.0  0.0919621348943593  0.23211977788693614  0.7038018056598501  1.0000
  C   C2        1.0  0.38809088754040744  0.2679991566219471  0.2959402435999579  1.0000
  C   C3        1.0  0.9081157612527592  0.7679113692066435  0.29624503049378603  1.0000
  C   C4        1.0  0.6118441676132065  0.7320915315509422  0.7040970638353343  1.0000
  C   C5        1.0  0.25382207977349935  0.1457936918348395  0.736113843655552  1.0000
  C   C6        1.0  0.517709930249751  0.35442449396113307  0.26368094165901107  1.0000
  C   C7        1.0  0.7462457794141102  0.8542507582203309  0.26395305452632556  1.0000
  C   C8        1.0  0.4823080853753226  0.6455743333015744  0.736371145649116  1.0000
  C   C9        1.0  0.32169508492619775  0.08802760160378398  0.8756038604622917  1.0000
  C   C10       1.0  0.4461847328430011  0.4122871980634668  0.12422561720548225  1.0000
  C   C11       1.0  0.6783868592202323  0.912051299860543  0.12447243757728184  1.0000
  C   C12       1.0  0.5539245675940876  0.5877370115226763  0.8758376376387673  1.0000
  C   C13       1.0  0.19615023539186174  0.9964584562035053  0.9052677804467277  1.0000
  C   C14       1.0  0.29081781380596544  0.503568035301299  0.09450851256782761  1.0000
  C   C15       1.0  0.8039418683735349  0.003569451264119999  0.09475318642965655  1.0000
  C   C16       1.0  0.7091082626029248  0.4963092914600862  0.905398068737064  1.0000
  C   C17       1.0  0.40064726113593  0.23257913712447476  0.7218077905966922  1.0000
  C   C18       1.0  0.678831439232745  0.26766776763630407  0.27816773225434577  1.0000
  C   C19       1.0  0.5994403214558943  0.7674585573312667  0.2782982663468089  1.0000
  C   C20       1.0  0.32113887980339245  0.7322526445970323  0.7219397711124032  1.0000
  C   C21       1.0  0.5414051244492059  0.14992306100841543  0.6975036026514658  1.0000
  C   C22       1.0  0.8440732378865834  0.35046369440533437  0.30269090441341007  1.0000
  C   C23       1.0  0.4586217668527795  0.8501161130459777  0.302536981505213  1.0000
  C   C24       1.0  0.15587139937382233  0.6494808700567204  0.6974035563964094  1.0000
  O   O1        1.0  0.9734212432592033  0.21894089116410936  0.5841560136151571  1.0000
  O   O2        1.0  0.38941760101732836  0.2811387669091729  0.41561900553795533  1.0000
  O   O3        1.0  0.0267457927405488  0.7811950570567132  0.415846898637092  1.0000
  O   O4        1.0  0.6104386192037551  0.7190061847930662  0.5843797170810133  1.0000
  O   O5        1.0  0.08523102273099431  0.32155004082344607  0.7929623579761368  1.0000
  O   O6        1.0  0.2920782411749769  0.17844827388870493  0.20686609493409946  1.0000
  O   O7        1.0  0.9147253869993721  0.6783964176177758  0.20711602376260174  1.0000
  O   O8        1.0  0.7078436850272996  0.8216492172120834  0.7931377361146659  1.0000
  O   O9        1.0  0.6997010526350069  0.19404002606385254  0.7396925939817649  1.0000
  O   O10       1.0  0.9601846423647942  0.3065246908485476  0.2605772646689814  1.0000
  O   O11       1.0  0.3003110554555235  0.8060696104684621  0.2601859687267165  1.0000
  O   O12       1.0  0.0397087487457455  0.6935354063357833  0.7394286724039674  1.0000
  O   O13       1.0  0.4939042258680715  0.0364247284243362  0.6283503434665647  1.0000
  O   O14       1.0  0.8658380069821875  0.4639260342913615  0.37189512847533013  1.0000
  O   O15       1.0  0.5061017543215058  0.9636048313791502  0.3717518934600079  1.0000
  O   O16       1.0  0.13409062646520914  0.535993834599928  0.6282711139290456  1.0000
  O   O17       1.0  0.031106578057539004  0.019834670705016298  0.8563410457880279  1.0000
  O   O18       1.0  0.17468303023047582  0.4796986517487837  0.1432930920440114  1.0000
  O   O19       1.0  0.9689500989377395  0.9799766670570448  0.1435281814669267  1.0000
  O   O20       1.0  0.825207886591869  0.5200547568099549  0.856542544672017  1.0000
  O   O21       1.0  0.2626071013666191  0.9012718441446025  0.9826417005306212  1.0000
  O   O22       1.0  0.2798525422355879  0.5989063070741024  0.01728579572780118  1.0000
  O   O23       1.0  0.7375828228719643  0.09881440784067759  0.017465777632658316  1.0000
  O   O24       1.0  0.7199795711438101  0.40090964361107934  0.9825343420806263  1.0000
