data_image0
_chemical_formula_structural       Ag2H34C50N4O14
_chemical_formula_sum              "Ag2 H34 C50 N4 O14"
_cell_length_a       7.965685062869405
_cell_length_b       10.977321664504013
_cell_length_c       13.5766
_cell_angle_alpha    73.09442205956857
_cell_angle_beta     73.20398412670978
_cell_angle_gamma    71.81918045978007

_space_group_name_H-M_alt    "P 1"
_space_group_IT_number       1

loop_
  _space_group_symop_operation_xyz
  'x, y, z'

loop_
  _atom_site_type_symbol
  _atom_site_label
  _atom_site_symmetry_multiplicity
  _atom_site_fract_x
  _atom_site_fract_y
  _atom_site_fract_z
  _atom_site_occupancy
  Ag  Ag1       1.0  0.8465099500134698  0.40789308362192134  0.026220907999295686  1.0000
  Ag  Ag2       1.0  0.15349159020673397  0.5921073029143499  0.9737794765468025  1.0000
  H   H1        1.0  0.40013433019526456  0.7027852584789827  0.6997885791697342  1.0000
  H   H2        1.0  0.5998639133743424  0.2972170941623986  0.3002111654620877  1.0000
  H   H3        1.0  0.057932368536476986  0.5335281838929689  0.21954957796368998  1.0000
  H   H4        1.0  0.9420665490306706  0.4664722026433026  0.7804497781097837  1.0000
  H   H5        1.0  0.5495225076992654  0.5439288799819479  0.18206038659847934  1.0000
  H   H6        1.0  0.4504839408282919  0.456072489606882  0.8179374615227106  1.0000
  H   H7        1.0  0.3217334027489471  0.7551662311070757  0.1907801082641214  1.0000
  H   H8        1.0  0.6782704231255466  0.2448351384817542  0.8092181845073156  1.0000
  H   H9        1.0  0.48094520659708456  0.864178895634403  0.8501057200896157  1.0000
  H   H10       1.0  0.5190517623145398  0.1358195247967444  0.14989295551432488  1.0000
  H   H11       1.0  0.7050074937896937  0.650589099732251  0.8563822255707052  1.0000
  H   H12       1.0  0.2949914237774536  0.3494112868040133  0.1436156573798968  1.0000
  H   H13       1.0  0.08298213948635434  0.9110469095038027  0.1765441404384944  1.0000
  H   H14       1.0  0.9170217230566922  0.0889505278747862  0.8234550706642451  1.0000
  H   H15       1.0  0.897129734109754  0.1373756969998468  0.17447424351950494  1.0000
  H   H16       1.0  0.1028744654320519  0.8626207573261766  0.8255258781462161  1.0000
  H   H17       1.0  0.178063075734812  0.2767430584870567  0.8735373276647707  1.0000
  H   H18       1.0  0.8219341935070402  0.7232583111017732  0.12646207673228824  1.0000
  H   H19       1.0  0.3878787137135689  0.058977255308342094  0.865924750531086  1.0000
  H   H20       1.0  0.6121179181992885  0.9410221481753638  0.13407301450987313  1.0000
  H   H21       1.0  0.38292680385633554  0.1341060641839746  0.6420428955786834  1.0000
  H   H22       1.0  0.6170766850193842  0.8658962884574137  0.3579574328755229  1.0000
  H   H23       1.0  0.8074027028469857  0.7752912831234866  0.641521179351443  1.0000
  H   H24       1.0  0.19259228074056983  0.22470910341278477  0.35847958025883747  1.0000
  H   H25       1.0  0.03418651726780545  0.899781127161674  0.6251395301651498  1.0000
  H   H26       1.0  0.9658150596209437  0.10021532716435638  0.37486103615081845  1.0000
  H   H27       1.0  0.9352609828061915  0.1376037651938589  0.6191276349551558  1.0000
  H   H28       1.0  0.06474287973685479  0.8623936721847301  0.38087231270901617  1.0000
  H   H29       1.0  0.6448428488594758  0.49692422180665824  0.655111605195792  1.0000
  H   H30       1.0  0.3551560687076716  0.503076164729606  0.34488922400056066  1.0000
  H   H31       1.0  0.788867823687923  0.6562475502698817  0.5114333535379956  1.0000
  H   H32       1.0  0.21113075688045768  0.34375381931894106  0.48856656509536833  1.0000
  H   H33       1.0  0.7195908985257234  0.264847139453714  0.43259788876687816  1.0000
  H   H34       1.0  0.28040801904142404  0.7351532470825504  0.5674036769909065  1.0000
  C   C1        1.0  0.5288041698323767  0.6180756193497459  0.11037762241246435  1.0000
  C   C2        1.0  0.47119834471558875  0.3819257502390839  0.8896208926840927  1.0000
  C   C3        1.0  0.4012481449736356  0.7371842336723304  0.11426933195032522  1.0000
  C   C4        1.0  0.5987533952465682  0.2628161528639339  0.8857288429114689  1.0000
  C   C5        1.0  0.3816273055437378  0.8319760598609847  0.020620941247891295  1.0000
  C   C6        1.0  0.618374234676466  0.16802432667528677  0.9793772336139029  1.0000
  C   C7        1.0  0.49042121853995013  0.7974846777269633  0.9263270327396143  1.0000
  C   C8        1.0  0.5095757503716811  0.20251374270418407  0.07367164286432634  1.0000
  C   C9        1.0  0.6157220796914444  0.6766193484789511  0.9285715173835314  1.0000
  C   C10       1.0  0.38427556321771306  0.3233771058470722  0.07142897934637202  1.0000
  C   C11       1.0  0.25670589713903524  0.9635124246520802  0.021416465486730353  1.0000
  C   C12       1.0  0.7432969910762495  0.036484029673943  0.9785853516269897  1.0000
  C   C13       1.0  0.11386988702865607  0.9886589091469915  0.10798669176000422  1.0000
  C   C14       1.0  0.8861310158625599  0.0113395112841559  0.8920135265528727  1.0000
  C   C15       1.0  0.005106233982495187  0.11559911668197739  0.10657869107647142  1.0000
  C   C16       1.0  0.9948972915617775  0.88439930374917  0.8934247653933411  1.0000
  C   C17       1.0  0.16324063090242194  0.1933045063184053  0.9393370934757359  1.0000
  C   C18       1.0  0.8367579863345042  0.8066929310601836  0.060663743488930784  1.0000
  C   C19       1.0  0.2794449755014483  0.0700670712421569  0.9356486157791298  1.0000
  C   C20       1.0  0.7205516564114018  0.9299323322415489  0.0643528320690051  1.0000
  C   C21       1.0  0.6543972314558318  0.1489835816329901  0.6298665343464123  1.0000
  C   C22       1.0  0.34560595708967407  0.8510158218507157  0.3701338018761078  1.0000
  C   C23       1.0  0.5255777215560116  0.0830708905110669  0.638555821901477  1.0000
  C   C24       1.0  0.47442348166542564  0.916930479077763  0.3614451252045183  1.0000
  C   C25       1.0  0.5828880373233787  0.9471131418395728  0.6432415931960165  1.0000
  C   C26       1.0  0.41711020624623524  0.0528892108018155  0.3567581514358054  1.0000
  C   C27       1.0  0.7657425059109  0.8805830937097169  0.6376207931677627  1.0000
  C   C28       1.0  0.23425607465747328  0.1194182758791129  0.36238059858848  1.0000
  C   C29       1.0  0.8919171363350599  0.9494066034629753  0.6280495630135975  1.0000
  C   C30       1.0  0.10808376655614892  0.0505918169681721  0.3719506552992797  1.0000
  C   C31       1.0  0.8371926011787992  0.0840450955984124  0.6243720931128678  1.0000
  C   C32       1.0  0.16280927604017134  0.9159543078852934  0.3756292019962118  1.0000
  C   C33       1.0  0.44343771193943815  0.8754584407123787  0.6588162169230714  1.0000
  C   C34       1.0  0.5565592203036402  0.1245439119290097  0.3411837500338777  1.0000
  C   C35       1.0  0.6796302298105346  0.3681649804986762  0.5530378551391311  1.0000
  C   C36       1.0  0.3203713104096693  0.6318354060375952  0.4469632659684065  1.0000
  C   C37       1.0  0.6935019223236836  0.4805760577272906  0.5753288989294418  1.0000
  C   C38       1.0  0.3064979695712252  0.5194253118615393  0.42467153394024143  1.0000
  C   C39       1.0  0.7753486718418401  0.5688541776507634  0.49498384252742517  1.0000
  C   C40       1.0  0.22465122005306878  0.4311471919380665  0.5050158537808187  1.0000
  C   C41       1.0  0.8466084198873673  0.5489945498256645  0.3916876472201096  1.0000
  C   C42       1.0  0.1533891863532446  0.4510058367106069  0.6083119311784914  1.0000
  C   C43       1.0  0.8214653309385724  0.4383293739443133  0.3687426386650402  1.0000
  C   C44       1.0  0.17853227530203947  0.5616710125919582  0.6312576762949933  1.0000
  C   C45       1.0  0.7389044707498796  0.3494987784818946  0.45016803412305256  1.0000
  C   C46       1.0  0.26109478381603407  0.6505006250018113  0.5498337056362814  1.0000
  C   C47       1.0  0.9443163717437172  0.6499933698806473  0.3190149208184748  1.0000
  C   C48       1.0  0.05568254582342996  0.3500070166556171  0.6809851718164381  1.0000
  C   C49       1.0  0.8657795753830939  0.41038807102020053  0.2604069837990579  1.0000
  C   C50       1.0  0.13421934218405343  0.5896123155160637  0.7395931088358481  1.0000
  N   N1        1.0  0.6375892856193914  0.5878673972213662  0.019497509930012286  1.0000
  N   N2        1.0  0.3624155512514164  0.4121310232097812  0.9805020414074974  1.0000
  N   N3        1.0  0.027933444144075302  0.2170265476532975  0.023390279486086702  1.0000
  N   N4        1.0  0.9720654734230649  0.7829738388829739  0.9766105497102585  1.0000
  O   O1        1.0  0.5079528323258132  0.744136381379441  0.6771940836785006  1.0000
  O   O2        1.0  0.49204541124379386  0.2558659712619473  0.32280639751476065  1.0000
  O   O3        1.0  0.28286799011273434  0.9304857908330533  0.6588850539899269  1.0000
  O   O4        1.0  0.7171302534568726  0.0695165618083351  0.34111616376476667  1.0000
  O   O5        1.0  0.5966221564218017  0.2822225934586982  0.6337016307481846  1.0000
  O   O6        1.0  0.4033817061212375  0.7177748439198908  0.3663005266002983  1.0000
  O   O7        1.0  0.7623870909485931  0.358283336161584  0.23950084962880422  1.0000
  O   O8        1.0  0.237610515292026  0.6417170503746874  0.7605002018926683  1.0000
  O   O9        1.0  0.004131522175718805  0.43952968112055396  0.19207412811448424  1.0000
  O   O10       1.0  0.99586541006736  0.5604726715208344  0.8079265754038971  1.0000
  O   O11       1.0  0.06997832114122815  0.6188040612969985  0.23504600717718194  1.0000
  O   O12       1.0  0.9300202594271455  0.38119730829183135  0.764953911456182  1.0000
  O   O13       1.0  0.9155163887684593  0.7584103045563779  0.3390787381158447  1.0000
  O   O14       1.0  0.08448417712398282  0.24158909892732788  0.6609213061954904  1.0000
