data_image0
_chemical_formula_structural       Zn4H18C58N16O8F4
_chemical_formula_sum              "Zn4 H18 C58 N16 O8 F4"
_cell_length_a       19.15047583436958
_cell_length_b       18.593800235285727
_cell_length_c       19.521404795061766
_cell_angle_alpha    103.40513844192172
_cell_angle_beta     111.08193013692946
_cell_angle_gamma    109.12672371417271

_space_group_name_H-M_alt    "P 1"
_space_group_IT_number       1

loop_
  _space_group_symop_operation_xyz
  'x, y, z'

loop_
  _atom_site_type_symbol
  _atom_site_label
  _atom_site_symmetry_multiplicity
  _atom_site_fract_x
  _atom_site_fract_y
  _atom_site_fract_z
  _atom_site_occupancy
  Zn  Zn1       1.0  0.8993440894823977  0.00631685953820248  0.3965978323354946  1.0000
  Zn  Zn2       1.0  0.12407661590238923  0.013381084379652504  0.6289570497670525  1.0000
  Zn  Zn3       1.0  0.1307997071166582  0.1230306783973063  0.5003944972566217  1.0000
  Zn  Zn4       1.0  0.8879754246649726  0.8977115416052256  0.5192811707808644  1.0000
  H   H1        1.0  0.8810090828081129  0.9539527014358526  0.20242352487579035  1.0000
  H   H2        1.0  0.28727454541228775  0.30166498092714983  0.654544379161976  1.0000
  H   H3        1.0  0.8021498522744254  0.8639931948253192  0.23356602747733748  1.0000
  H   H4        1.0  0.16350495560542563  0.17576769834104058  0.7694516817292083  1.0000
  H   H5        1.0  0.8838737725299028  0.7291153721123463  0.4512418837194403  1.0000
  H   H6        1.0  0.13801312047637276  0.2981143186657392  0.5874254759581277  1.0000
  H   H7        1.0  0.2868172880353653  0.9773043128351162  0.725745978194908  1.0000
  H   H8        1.0  0.7444255403136566  0.036065749585119995  0.26013218254294657  1.0000
  H   H9        1.0  0.2678126290700861  0.18600136207122384  0.3650576346760204  1.0000
  H   H10       1.0  0.7710879502526566  0.7603446822750967  0.639317857674271  1.0000
  H   H11       1.0  0.1314074475580398  0.05459764625950207  0.8147974909993749  1.0000
  H   H12       1.0  0.473544566912082  0.4420155183707307  0.9734100445408415  1.0000
  H   H13       1.0  0.39745219045512664  0.6691423285725548  0.02803238625122619  1.0000
  H   H14       1.0  0.13578569740252527  0.8430495844782513  0.6488726808061145  1.0000
  H   H15       1.0  0.8683941394592267  0.1501671303995664  0.4701328194978132  1.0000
  H   H16       1.0  0.1630982605637925  0.9930529879815495  0.3789355663867866  1.0000
  H   H17       1.0  0.7450485037416713  0.9344406229884541  0.5542355418406473  1.0000
  H   H18       1.0  0.7094213869468858  0.7396180159311426  0.36704612862585134  1.0000
  C   C1        1.0  0.9435346737109354  0.996647032610461  0.2511617500090607  1.0000
  C   C2        1.0  0.4148980366919019  0.6190145159962269  0.016202152687171182  1.0000
  C   C3        1.0  0.5051509017381333  0.5816019835605314  0.9908658080098433  1.0000
  C   C4        1.0  0.36753236299723097  0.530208704341227  0.011432271296214725  1.0000
  C   C5        1.0  0.6434864058413368  0.7294476374673521  0.2000286028628437  1.0000
  C   C6        1.0  0.27630577693101793  0.3490943113911412  0.8050665203237415  1.0000
  C   C7        1.0  0.4536247678403739  0.5328386353552118  0.06359523698596087  1.0000
  C   C8        1.0  0.41918776170865607  0.5791482579240254  0.9390331067666793  1.0000
  C   C9        1.0  0.5029205691660863  0.6235589154630573  0.07029101215324825  1.0000
  C   C10       1.0  0.37060172452108736  0.4881835448918963  0.9323500239214298  1.0000
  C   C11       1.0  0.5750355702785229  0.6865757658028429  0.14066885861226547  1.0000
  C   C12       1.0  0.06863597690378499  0.013723860002876601  0.7654253965689719  1.0000
  C   C13       1.0  0.3121670442576203  0.41528483733783617  0.8623057925950447  1.0000
  C   C14       1.0  0.9986521234188571  0.6734800557023276  0.5488837143000039  1.0000
  C   C15       1.0  0.9906259882726971  0.32974115172174107  0.5518172975166351  1.0000
  C   C16       1.0  0.07545367669734299  0.829235139736788  0.6019894316830658  1.0000
  C   C17       1.0  0.9357476538625633  0.1736091083525296  0.4944360303988233  1.0000
  C   C18       1.0  0.9932934529207174  0.6068320952727999  0.5526291501490731  1.0000
  C   C19       1.0  0.9879993773032894  0.39604807452621316  0.5575653532057672  1.0000
  C   C20       1.0  0.9890728908253124  0.5345346624824572  0.5561913987563398  1.0000
  C   C21       1.0  0.9870894989221952  0.4680737500204232  0.5587345752869622  1.0000
  C   C22       1.0  0.6118974026744083  0.9507712573818805  0.4350037331623397  1.0000
  C   C23       1.0  0.006319129500397504  0.7509060861763854  0.5489777316396172  1.0000
  C   C24       1.0  0.28577364505671443  0.9375172409352784  0.4560333544768582  1.0000
  C   C25       1.0  0.5428007286974861  0.9390608449608848  0.4299699731768101  1.0000
  C   C26       1.0  0.3407565521452511  0.9284211362710622  0.4419804194883028  1.0000
  C   C27       1.0  0.4700217252788547  0.9300700063361873  0.42855798576665194  1.0000
  C   C28       1.0  0.4056693041163655  0.9257510523945813  0.43223318717053877  1.0000
  C   C29       1.0  0.026650070317032298  0.011460160164538997  0.17718540989846326  1.0000
  C   C30       1.0  0.0007956629976674979  0.9417440853773584  0.8339896245672591  1.0000
  C   C31       1.0  0.026048725376917006  0.9898126819189839  0.11229598689615723  1.0000
  C   C32       1.0  0.008165082485071206  0.9431500358577334  0.8996906698309173  1.0000
  C   C33       1.0  0.022384570332910397  0.9687750371801513  0.04032385623414564  1.0000
  C   C34       1.0  0.9988272958519387  0.2563727746291348  0.5376283059093936  1.0000
  C   C35       1.0  0.015536104927406303  0.9526076405715002  0.972357120349116  1.0000
  C   C36       1.0  0.17701038989589077  0.9890039095161781  0.4364962329708177  1.0000
  C   C37       1.0  0.7510639402133349  0.953132796776103  0.5071576440965158  1.0000
  C   C38       1.0  0.7454446832470153  0.7793630577313733  0.3466828128389848  1.0000
  C   C39       1.0  0.2520289673579014  0.25739458590041403  0.6719842263024558  1.0000
  C   C40       1.0  0.22421447911863618  0.9688840716660535  0.5486313233496531  1.0000
  C   C41       1.0  0.7333465773220098  0.9861625971875231  0.4019459805521565  1.0000
  C   C42       1.0  0.7931553176945058  0.8429826212560058  0.2785232572035736  1.0000
  C   C43       1.0  0.18871476963878558  0.1933749617045777  0.7309606849566065  1.0000
  C   C44       1.0  0.9466162333301538  0.7704827867016845  0.5003475567420421  1.0000
  C   C45       1.0  0.23088128529284546  0.9593014726787886  0.47697669393915726  1.0000
  C   C46       1.0  0.07389498719354039  0.2493124146802117  0.5543983296119918  1.0000
  C   C47       1.0  0.0792707230394996  0.0824400149609161  0.3278914559821402  1.0000
  C   C48       1.0  0.9361492485866804  0.9197868719303338  0.6857605364744187  1.0000
  C   C49       1.0  0.018579108133081893  0.030063509417125496  0.2465300433706048  1.0000
  C   C50       1.0  0.0006939437255227034  0.9545689966659906  0.7664124266995954  1.0000
  C   C51       1.0  0.26961329129860445  0.9560901383576734  0.6187967219173487  1.0000
  C   C52       1.0  0.7053778290999941  0.004314309455651227  0.3309012334502056  1.0000
  C   C53       1.0  0.1685798909032528  0.13803038111888807  0.3718435588628211  1.0000
  C   C54       1.0  0.8543193010989755  0.8486002426268584  0.6385441063589923  1.0000
  C   C55       1.0  0.6918064730491906  0.9630158859449548  0.44658471239415565  1.0000
  C   C56       1.0  0.7212826236141439  0.7796568306779218  0.26931678572838536  1.0000
  C   C57       1.0  0.24017396935689558  0.2728624690783761  0.740372466768541  1.0000
  C   C58       1.0  0.4591036053986742  0.49391567434394545  0.9874903945609573  1.0000
  N   N1        1.0  0.9593913736089802  0.026156857964352187  0.32815987491234466  1.0000
  N   N2        1.0  0.8098074623901822  0.9889503821320247  0.4349519433320237  1.0000
  N   N3        1.0  0.8546734309203075  0.8785626695654257  0.3553797173550563  1.0000
  N   N4        1.0  0.17258794925397317  0.13631934716843824  0.6631851387874406  1.0000
  N   N5        1.0  0.9773851878906966  0.853345098420334  0.5237463866114209  1.0000
  N   N6        1.0  0.0558572841243574  0.16944038215807916  0.5220357144638257  1.0000
  N   N7        1.0  0.0414448290109704  0.0773912116366162  0.3742937592986522  1.0000
  N   N8        1.0  0.9653188617973214  0.9585168320480549  0.6438716662151973  1.0000
  N   N9        1.0  0.0459730856754632  0.014461268983190197  0.6915891964336609  1.0000
  N   N10       1.0  0.0567413460234434  0.8890739568465023  0.586417822646247  1.0000
  N   N11       1.0  0.9708712805900886  0.12244334960294619  0.4847801908476938  1.0000
  N   N12       1.0  0.14322125669962557  0.01531345323948588  0.48119917732503126  1.0000
  N   N13       1.0  0.8208394921413175  0.9686493653009479  0.4987096821805181  1.0000
  N   N14       1.0  0.82437764381185  0.8382041467946448  0.39671182301124447  1.0000
  N   N15       1.0  0.21158556361181977  0.1757730111704205  0.6261713303843948  1.0000
  N   N16       1.0  0.17150284951348738  0.002196354399387689  0.5485917444945585  1.0000
  O   O1        1.0  0.3178933193013833  0.9256858685947904  0.6274505772305331  1.0000
  O   O2        1.0  0.2527561324725127  0.9864484895672231  0.6806412788800812  1.0000
  O   O3        1.0  0.6382968901832201  0.003739101452403321  0.2950353669591834  1.0000
  O   O4        1.0  0.7670723849348279  0.023555110661838678  0.3069849991747374  1.0000
  O   O5        1.0  0.2066197385151582  0.17389428078747218  0.4465319541062982  1.0000
  O   O6        1.0  0.20822395333700427  0.14845008519318978  0.3280662006106282  1.0000
  O   O7        1.0  0.8146796211539068  0.8237392447210039  0.56403907248702  1.0000
  O   O8        1.0  0.8244032345742198  0.8091785281291733  0.6786621025997092  1.0000
  F   F1        1.0  0.4017504512448938  0.6029613303118991  0.876504686192426  1.0000
  F   F2        1.0  0.47107059825616204  0.5099725620098781  0.1267329392259668  1.0000
  F   F3        1.0  0.5743248405348211  0.607868304104997  0.9804101044872836  1.0000
  F   F4        1.0  0.2988274518766829  0.5055212404856559  0.022778871445566902  1.0000
