data_image0
_chemical_formula_structural       Cd4H64C96N8O16
_chemical_formula_sum              "Cd4 H64 C96 N8 O16"
_cell_length_a       9.591680549654605
_cell_length_b       14.76949156747642
_cell_length_c       17.997234192018375
_cell_angle_alpha    90.00004187373379
_cell_angle_beta     90.00015390411119
_cell_angle_gamma    95.39837837955228

_space_group_name_H-M_alt    "P 1"
_space_group_IT_number       1

loop_
  _space_group_symop_operation_xyz
  'x, y, z'

loop_
  _atom_site_type_symbol
  _atom_site_label
  _atom_site_symmetry_multiplicity
  _atom_site_fract_x
  _atom_site_fract_y
  _atom_site_fract_z
  _atom_site_occupancy
  Cd  Cd1       1.0  0.1322834401892123  0.48433356927872495  0.4182961810308682  1.0000
  Cd  Cd2       1.0  0.867720892930599  0.015668878077029498  0.9182983951658339  1.0000
  Cd  Cd3       1.0  0.8677193664543168  0.515668290051572  0.5817023813063499  1.0000
  Cd  Cd4       1.0  0.13228504319359757  0.9843329938346556  0.08170294537829648  1.0000
  H   H1        1.0  0.06625725295647558  0.7267942339613639  0.6295636692613511  1.0000
  H   H2        1.0  0.9337436318724668  0.7732023344854114  0.12956247660865464  1.0000
  H   H3        1.0  0.9337429148220622  0.2732035365337638  0.3704360043546159  1.0000
  H   H4        1.0  0.06625880640143583  0.22679680454497497  0.8704355300865527  1.0000
  H   H5        1.0  0.4303551176825877  0.9087602340571621  0.68704837336481  1.0000
  H   H6        1.0  0.569643305465604  0.5912391113684168  0.18704488233493774  1.0000
  H   H7        1.0  0.5696410616560286  0.09123887981645852  0.3129540784533659  1.0000
  H   H8        1.0  0.43035750695579367  0.4087634196506258  0.8129542356419888  1.0000
  H   H9        1.0  0.5650783971679517  0.8418695851512795  0.5870391938494348  1.0000
  H   H10       1.0  0.4349230028892848  0.6581323726583082  0.08703666131287237  1.0000
  H   H11       1.0  0.4349213721028704  0.15813294167620026  0.4129627023314128  1.0000
  H   H12       1.0  0.5650797116636496  0.3418688065974322  0.9129624566650132  1.0000
  H   H13       1.0  0.44789171417831836  0.71944857589164  0.5059527247046559  1.0000
  H   H14       1.0  0.5521095397909477  0.7805553244468939  0.005952100795283897  1.0000
  H   H15       1.0  0.5521124119049431  0.28055532785791126  0.49404806019786185  1.0000
  H   H16       1.0  0.4478913647239437  0.21944788664737302  0.9940475728228431  1.0000
  H   H17       1.0  0.9121359478205519  0.8191224011701977  0.8587039563640031  1.0000
  H   H18       1.0  0.08786392201751882  0.6808812315249214  0.3587026070432414  1.0000
  H   H19       1.0  0.08786268619462588  0.18087944138780904  0.14129571725209186  1.0000
  H   H20       1.0  0.9121381177457761  0.31912266383714183  0.6412965109349783  1.0000
  H   H21       1.0  0.03666009675850291  0.7411346953419482  0.7588440726390713  1.0000
  H   H22       1.0  0.9633346198312011  0.758865399889878  0.2588429137631961  1.0000
  H   H23       1.0  0.9633342725304885  0.25886645036753464  0.24115448969188683  1.0000
  H   H24       1.0  0.03666392209049011  0.24113576259289723  0.741156204211691  1.0000
  H   H25       1.0  0.2531396159242547  0.002480021495451  0.7048057019685954  1.0000
  H   H26       1.0  0.746861825257632  0.497516723844548  0.20480826609199446  1.0000
  H   H27       1.0  0.7468636813219333  0.9975177615780597  0.2951917490858804  1.0000
  H   H28       1.0  0.25313947778234075  0.5024817309213888  0.7951958526524547  1.0000
  H   H29       1.0  0.11830962389878148  0.0696835863564118  0.8065790414644167  1.0000
  H   H30       1.0  0.8816961215227008  0.430318054708387  0.3065806470664113  1.0000
  H   H31       1.0  0.8816992575104265  0.9303169379842092  0.19342063215862734  1.0000
  H   H32       1.0  0.1183078203851551  0.5696844888933866  0.6934234716811641  1.0000
  H   H33       1.0  0.5278774024206639  0.4445459606396654  0.2558526031719523  1.0000
  H   H34       1.0  0.4721185982552995  0.0554549014921335  0.7558520517325602  1.0000
  H   H35       1.0  0.4721185927295223  0.555451793083172  0.7441481817228774  1.0000
  H   H36       1.0  0.5278809868285421  0.94454626518489  0.2441487331658791  1.0000
  H   H37       1.0  0.6740906577776612  0.3585963681452285  0.17167085812949515  1.0000
  H   H38       1.0  0.3259049965023024  0.14140507263616095  0.6716718158352888  1.0000
  H   H39       1.0  0.32590874312209184  0.6414034383820064  0.828329926768397  1.0000
  H   H40       1.0  0.6740905080524654  0.85859675734514  0.32833285854695043  1.0000
  H   H41       1.0  0.36074947996587525  0.12904983707660023  0.18129648796899994  1.0000
  H   H42       1.0  0.6392511639643317  0.3709495960434168  0.6812969217675897  1.0000
  H   H43       1.0  0.639252007246604  0.8709499778364461  0.8187031856485232  1.0000
  H   H44       1.0  0.3607511822160845  0.6290488629117448  0.3187005292864099  1.0000
  H   H45       1.0  0.22229110734694044  0.21473833090847452  0.2682236603405811  1.0000
  H   H46       1.0  0.7777066757143416  0.28525983421515383  0.768222574034311  1.0000
  H   H47       1.0  0.7777058388661189  0.785258746932044  0.7317760132728633  1.0000
  H   H48       1.0  0.22229263308613412  0.714739292235514  0.2317754326586438  1.0000
  H   H49       1.0  0.8624985659669945  0.21669505874611167  0.9811319956150225  1.0000
  H   H50       1.0  0.1374955707716836  0.2833067423065572  0.48112855657205944  1.0000
  H   H51       1.0  0.1375048233900458  0.7833034044066453  0.018872678771856492  1.0000
  H   H52       1.0  0.8624941654287425  0.7166909862561683  0.5188711170364185  1.0000
  H   H53       1.0  0.7371095229064366  0.3065939316957582  0.0717271973446358  1.0000
  H   H54       1.0  0.2628846597051435  0.1934080645483149  0.5717247622116515  1.0000
  H   H55       1.0  0.2628906448822335  0.6934038388017145  0.9282763657578599  1.0000
  H   H56       1.0  0.7371145570018384  0.8065903818271212  0.4282726888401028  1.0000
  H   H57       1.0  0.500773741693642  0.05404650359357531  0.13699475848133597  1.0000
  H   H58       1.0  0.4992232657172975  0.4459508233434235  0.636992258570366  1.0000
  H   H59       1.0  0.4992220692724559  0.9459498899794813  0.8630060264129609  1.0000
  H   H60       1.0  0.5007702747404038  0.5540442016913544  0.3630051924762937  1.0000
  H   H61       1.0  0.6320790741345448  0.9775534385575572  0.04211221808614599  1.0000
  H   H62       1.0  0.3679218156294937  0.5224464248975877  0.5421103861395904  1.0000
  H   H63       1.0  0.36792014258112  0.022445007819889902  0.957888566811206  1.0000
  H   H64       1.0  0.6320720011072395  0.4775506403625372  0.45788817618974764  1.0000
  C   C1        1.0  0.18539252717432217  0.6414623806871023  0.5145760603866306  1.0000
  C   C2        1.0  0.8146114407256633  0.8585381422464168  0.014575304037307992  1.0000
  C   C3        1.0  0.8146101873786121  0.35853879856863824  0.485423057591248  1.0000
  C   C4        1.0  0.18539431121155295  0.14146236951481234  0.9854249252244142  1.0000
  C   C5        1.0  0.2511126181780838  0.7163629227285642  0.5631385919569778  1.0000
  C   C6        1.0  0.7488892400843737  0.7836356101038503  0.06313714065121447  1.0000
  C   C7        1.0  0.7488907711673818  0.2836355404215141  0.43686163730243505  1.0000
  C   C8        1.0  0.2511122471252136  0.21636420480852084  0.9368614216844405  1.0000
  C   C9        1.0  0.17540763684731078  0.7527606561803567  0.620618491918762  1.0000
  C   C10       1.0  0.8245924345066624  0.7472379375205167  0.12061768282764256  1.0000
  C   C11       1.0  0.8245925309326765  0.24723711431510512  0.3793817373381357  1.0000
  C   C12       1.0  0.17540905270726628  0.25276187739286365  0.879382546430811  1.0000
  C   C13       1.0  0.23837123237580476  0.8237893923769523  0.664653658024484  1.0000
  C   C14       1.0  0.7616270741263591  0.6762099260675996  0.16465216026113436  1.0000
  C   C15       1.0  0.7616269411806014  0.1762090498069213  0.3353465712311915  1.0000
  C   C16       1.0  0.2383725109545836  0.32379124060875614  0.8353475133554367  1.0000
  C   C17       1.0  0.3790759225760424  0.8557328711905258  0.6516334344909038  1.0000
  C   C18       1.0  0.6209214571311392  0.6442677875230487  0.15163171582290857  1.0000
  C   C19       1.0  0.6209204409452127  0.14426760283255652  0.3483684616868813  1.0000
  C   C20       1.0  0.37907926320110613  0.355734063421771  0.8483685134356092  1.0000
  C   C21       1.0  0.4552255283224865  0.8179143038997553  0.595551527007494  1.0000
  C   C22       1.0  0.5447747808249941  0.6820869798978677  0.09554916634458267  1.0000
  C   C23       1.0  0.5447739646693107  0.18208618270237048  0.40444925789066827  1.0000
  C   C24       1.0  0.4552259395029096  0.31791487104595023  0.9044493959911363  1.0000
  C   C25       1.0  0.3911465003206446  0.7491886809751664  0.5507795809188563  1.0000
  C   C26       1.0  0.608854802959179  0.7508139132225011  0.05077790913944109  1.0000
  C   C27       1.0  0.6088541279224557  0.2508124898954236  0.4492217596212597  1.0000
  C   C28       1.0  0.39114904684360846  0.2491879503013692  0.9492212088394608  1.0000
  C   C29       1.0  0.9896154364071774  0.8569066289725954  0.8233391447974723  1.0000
  C   C30       1.0  0.01038510819637394  0.643095605157342  0.32333877295127417  1.0000
  C   C31       1.0  0.010384148670873103  0.14309453770308522  0.17665941753723044  1.0000
  C   C32       1.0  0.9896157963199669  0.35690760593725923  0.6766614563077906  1.0000
  C   C33       1.0  0.05989587529320773  0.813981655377127  0.7678638304998343  1.0000
  C   C34       1.0  0.9401021098459876  0.6860191433770385  0.2678631500805579  1.0000
  C   C35       1.0  0.9401004882208142  0.18601881864427844  0.23213528747329085  1.0000
  C   C36       1.0  0.05989842630361861  0.3139813474183272  0.7321376348183504  1.0000
  C   C37       1.0  0.15885753136168293  0.865290672806154  0.7237643629328543  1.0000
  C   C38       1.0  0.841139855701833  0.6347073525155127  0.22376406540952584  1.0000
  C   C39       1.0  0.841139599032573  0.13470776518347802  0.276234199399262  1.0000
  C   C40       1.0  0.15885850204011118  0.3652924498184831  0.7762367194876203  1.0000
  C   C41       1.0  0.17985396939054973  0.9590805320667074  0.7383377566236786  1.0000
  C   C42       1.0  0.8201445367443938  0.5409175150075427  0.23833848378906441  1.0000
  C   C43       1.0  0.8201442041644071  0.0409179101168391  0.2616619169910591  1.0000
  C   C44       1.0  0.1798559073189594  0.4590822957142677  0.7616645236733105  1.0000
  C   C45       1.0  0.10472850659218841  0.9970092500569977  0.7943535436031366  1.0000
  C   C46       1.0  0.8952738812557257  0.502992277461992  0.2943543555944429  1.0000
  C   C47       1.0  0.8952752511200046  0.0029919333923090013  0.20564613001643284  1.0000
  C   C48       1.0  0.10472797433217099  0.4970102577522937  0.7056480962288345  1.0000
  C   C49       1.0  0.273700041739751  0.38840836884251223  0.3137724149848181  1.0000
  C   C50       1.0  0.7263003411748129  0.11159189977249892  0.8137728173001901  1.0000
  C   C51       1.0  0.7262982239058076  0.6115907534155909  0.686226702989259  1.0000
  C   C52       1.0  0.2737024654745071  0.8884099595591338  0.18622796760076443  1.0000
  C   C53       1.0  0.3639267532026622  0.33579212580675494  0.26504831036831417  1.0000
  C   C54       1.0  0.6360679759408541  0.16420670298706602  0.7650486150618432  1.0000
  C   C55       1.0  0.6360681066933295  0.6642049436469437  0.7349508076027005  1.0000
  C   C56       1.0  0.36392943073386874  0.8357937752282468  0.2349516141938962  1.0000
  C   C57       1.0  0.49275165775731006  0.37549289186448936  0.23843210266566922  1.0000
  C   C58       1.0  0.5072441600871328  0.1245072692037468  0.7384321988091497  1.0000
  C   C59       1.0  0.5072433863271115  0.6245055377399994  0.7615686822286845  1.0000
  C   C60       1.0  0.4927561918783851  0.8754918614418374  0.2615685860892184  1.0000
  C   C61       1.0  0.5732068171790914  0.32726224805021803  0.19113376700215665  1.0000
  C   C62       1.0  0.4267888463876233  0.17273853610588935  0.6911343325320727  1.0000
  C   C63       1.0  0.42679040530865103  0.6727368700146386  0.8088653509711673  1.0000
  C   C64       1.0  0.573209511354321  0.8272612662281065  0.3088664523650734  1.0000
  C   C65       1.0  0.5268984879044751  0.23831616774891984  0.1683629859452864  1.0000
  C   C66       1.0  0.47309791602038587  0.26168323301404683  0.6683614488650419  1.0000
  C   C67       1.0  0.4731007288111897  0.7616822786285341  0.8316377989520657  1.0000
  C   C68       1.0  0.5269012085945519  0.7383145332865055  0.33163600218644257  1.0000
  C   C69       1.0  0.39960575113833124  0.1978806838988305  0.19733733464474304  1.0000
  C   C70       1.0  0.6003938410950411  0.30211808427943515  0.6973371156463697  1.0000
  C   C71       1.0  0.600395459799465  0.8021170907898708  0.8026628946129006  1.0000
  C   C72       1.0  0.3996075540239515  0.6978810505583796  0.3026620023299528  1.0000
  C   C73       1.0  0.3204132602167035  0.2459118126688722  0.2454007887179087  1.0000
  C   C74       1.0  0.6795855392154876  0.25408700922537264  0.7454006542840685  1.0000
  C   C75       1.0  0.6795848212462161  0.7540859494397767  0.754598884896559  1.0000
  C   C76       1.0  0.32041490483629076  0.7459128014937663  0.2545979080508474  1.0000
  C   C77       1.0  0.7818097690446278  0.18391695813784992  0.017403289676238394  1.0000
  C   C78       1.0  0.21818508166209938  0.31608429677151406  0.5173991974591914  1.0000
  C   C79       1.0  0.2181915339924458  0.8160814966274188  0.9825997177863496  1.0000
  C   C80       1.0  0.7818066487575664  0.6839127601017979  0.4825988092277098  1.0000
  C   C81       1.0  0.7117817922652988  0.2332117949929469  0.06881559860133277  1.0000
  C   C82       1.0  0.28821722260267524  0.26678749841009625  0.5688137996194482  1.0000
  C   C83       1.0  0.2882174244532649  0.766786651385168  0.9311862975778804  1.0000
  C   C84       1.0  0.7117838041452487  0.733208916127481  0.4311842070739259  1.0000
  C   C85       1.0  0.6076596401883733  0.1887497709809054  0.1146197709154606  1.0000
  C   C86       1.0  0.3923354406311148  0.31124956083502303  0.6146159253820754  1.0000
  C   C87       1.0  0.39233730602902733  0.811247306860615  0.8853815696207901  1.0000
  C   C88       1.0  0.6076604624125608  0.6887475128095772  0.3853793031031571  1.0000
  C   C89       1.0  0.5804853749766677  0.09431722960881218  0.10481488309198987  1.0000
  C   C90       1.0  0.41951382740624854  0.40568210716773484  0.6048128003196779  1.0000
  C   C91       1.0  0.41951270648769406  0.9056805325001704  0.8951853461634156  1.0000
  C   C92       1.0  0.580485297208689  0.5943156591328176  0.3951846507318065  1.0000
  C   C93       1.0  0.654017268038423  0.05038711201407861  0.05159896782484449  1.0000
  C   C94       1.0  0.34598184133345455  0.44961352079511846  0.5515968061301064  1.0000
  C   C95       1.0  0.34598299183360837  0.9496113385562808  0.948401261432323  1.0000
  C   C96       1.0  0.6540131106516823  0.5503842287328099  0.448401200559317  1.0000
  N   N1        1.0  0.010862843038651699  0.9468306739264564  0.8365421659934567  1.0000
  N   N2        1.0  0.9891386293120873  0.5531702201547121  0.3365420314610929  1.0000
  N   N3        1.0  0.9891397794251303  0.0531698252550541  0.16345806326602025  1.0000
  N   N4        1.0  0.010864177340124603  0.44683163917758856  0.66345986472173  1.0000
  N   N5        1.0  0.7536809146854253  0.09362202084886918  0.008492428676383699  1.0000
  N   N6        1.0  0.24631597592742335  0.406379231712137  0.5084906537353858  1.0000
  N   N7        1.0  0.24631934519094753  0.9063764297224852  0.9915094675035827  1.0000
  N   N8        1.0  0.753676705560906  0.5936171492801922  0.49150846423385974  1.0000
  O   O1        1.0  0.2526082755228316  0.6215453074512994  0.4564816204335356  1.0000
  O   O2        1.0  0.7474010315874294  0.8784550804159114  0.9564805468269097  1.0000
  O   O3        1.0  0.7474006979784206  0.37845589696420484  0.5435180531897713  1.0000
  O   O4        1.0  0.25261097929376314  0.12154545650409433  0.043518571157442  1.0000
  O   O5        1.0  0.3193454982487154  0.4697261744804636  0.3314951953915467  1.0000
  O   O6        1.0  0.6806538417328412  0.03027343121993911  0.8314960389389652  1.0000
  O   O7        1.0  0.6806526753062412  0.5302722677030759  0.668504478223191  1.0000
  O   O8        1.0  0.3193478296680681  0.9697277438438975  0.16850530160190394  1.0000
  O   O9        1.0  0.1561126429505606  0.3505743807853251  0.3359296128143895  1.0000
  O   O10       1.0  0.8438857690643429  0.14942590613971166  0.8359307620901003  1.0000
  O   O11       1.0  0.8438835363750313  0.6494247330852901  0.6640678382353895  1.0000
  O   O12       1.0  0.15611599442716792  0.8505759489986816  0.16407002281010105  1.0000
  O   O13       1.0  0.0685986351914281  0.5999258301503758  0.5331349269867045  1.0000
  O   O14       1.0  0.9314067488253457  0.9000767595644703  0.03313880818053858  1.0000
  O   O15       1.0  0.9314060735749476  0.4000746774146081  0.4668603015058748  1.0000
  O   O16       1.0  0.0686001383718562  0.09992443646723362  0.966865310568735  1.0000
