data_image0
_chemical_formula_structural       Zn2H39C37N11O11
_chemical_formula_sum              "Zn2 H39 C37 N11 O11"
_cell_length_a       10.807834381355944
_cell_length_b       15.94175664793009
_cell_length_c       17.028367841876815
_cell_angle_alpha    87.93283967266177
_cell_angle_beta     89.53251822766212
_cell_angle_gamma    87.20287309775127

_space_group_name_H-M_alt    "P 1"
_space_group_IT_number       1

loop_
  _space_group_symop_operation_xyz
  'x, y, z'

loop_
  _atom_site_type_symbol
  _atom_site_label
  _atom_site_symmetry_multiplicity
  _atom_site_fract_x
  _atom_site_fract_y
  _atom_site_fract_z
  _atom_site_occupancy
  Zn  Zn1       1.0  0.4913409151683936  0.5891150798609813  0.49785213997335387  1.0000
  Zn  Zn2       1.0  0.5071297851990907  0.4127052589604147  0.4988088307400815  1.0000
  H   H1        1.0  0.9051910368418205  0.5798895510378299  0.6026687130236611  1.0000
  H   H2        1.0  0.09334436831642991  0.4128201713514413  0.4168179440712549  1.0000
  H   H3        1.0  0.9102184563592104  0.3732443443255561  0.5100965503288037  1.0000
  H   H4        1.0  0.1162452833955285  0.3707492438457792  0.550934764705751  1.0000
  H   H5        1.0  0.3929272298006552  0.6113548105413072  0.7415686432772759  1.0000
  H   H6        1.0  0.3545655684692761  0.6021330437569146  0.8879872294260167  1.0000
  H   H7        1.0  0.44378332569386447  0.6504272919753261  0.10176421361266111  1.0000
  H   H8        1.0  0.4918835619745323  0.643605118409667  0.2471077822088716  1.0000
  H   H9        1.0  0.5468053830556131  0.3582783375691534  0.7483597572729935  1.0000
  H   H10       1.0  0.5097859540806838  0.34881197106713563  0.8952062537068246  1.0000
  H   H11       1.0  0.8795263027522111  0.6425628148811242  0.5167014299554324  1.0000
  H   H12       1.0  0.38483731878531546  0.3879044562058596  0.2606500318339116  1.0000
  H   H13       1.0  0.6509741737389804  0.721325887242095  0.44744155352356074  1.0000
  H   H14       1.0  0.6756609156825562  0.12149024697720281  0.40519575078003817  1.0000
  H   H15       1.0  0.2990852228545933  0.7196353475846207  0.5465617595421791  1.0000
  H   H16       1.0  0.2858351885188882  0.8790643894079436  0.5493592326982794  1.0000
  H   H17       1.0  0.3911619622577548  0.27609681429301247  0.579532484193237  1.0000
  H   H18       1.0  0.08482913215101462  0.6299633699124954  0.4747575761496847  1.0000
  H   H19       1.0  0.08381126976325962  0.4437515077453682  0.6234302268288658  1.0000
  H   H20       1.0  0.8932752755275715  0.4466532052139272  0.3900415640990715  1.0000
  H   H21       1.0  0.45834799091850453  0.3090745820422782  0.0673069155502404  1.0000
  H   H22       1.0  0.31431389824786743  0.26036098228636456  0.0874892634544651  1.0000
  H   H23       1.0  0.4134485702712993  0.28294198869168946  0.1672034498858039  1.0000
  H   H24       1.0  0.6710270965463607  0.9506533417378475  0.4410243640771228  1.0000
  H   H25       1.0  0.7474284144086597  0.852454002114882  0.4176958035429834  1.0000
  H   H26       1.0  0.7092543232947081  0.3488173426608938  0.420918693105726  1.0000
  H   H27       1.0  0.7601732555240377  0.25748598513820287  0.3740329800096234  1.0000
  H   H28       1.0  0.19186674592125288  0.07639415833863691  0.613378332750699  1.0000
  H   H29       1.0  0.24701527496203823  0.0598171406788026  0.5149628820600327  1.0000
  H   H30       1.0  0.19807467455725458  0.16420873758708152  0.5446362267731573  1.0000
  H   H31       1.0  0.11205529299213172  0.5447613204504262  0.6833277718006414  1.0000
  H   H32       1.0  0.010409707014488807  0.6371661321447987  0.6848547900326594  1.0000
  H   H33       1.0  0.17237994497292422  0.6438857360821045  0.7013578104848577  1.0000
  H   H34       1.0  0.8766440368197052  0.4534736602660772  0.6614994033983095  1.0000
  H   H35       1.0  0.7708262460299694  0.4035390511168088  0.6150336707798445  1.0000
  H   H36       1.0  0.8157949183149856  0.5851890759424662  0.35734097697169187  1.0000
  H   H37       1.0  0.9559607219771636  0.5748832247540675  0.318212134167041  1.0000
  H   H38       1.0  0.22488749698352714  0.4884769804134591  0.34594908245481554  1.0000
  H   H39       1.0  0.1603918045036963  0.5801234325971621  0.3651140567213674  1.0000
  C   C1        1.0  0.4799659686985649  0.5080003829370126  0.3464038861273906  1.0000
  C   C2        1.0  0.12182180749504572  0.4999963680452382  0.5076337928973587  1.0000
  C   C3        1.0  0.06746926829605832  0.4313887750746801  0.5614636948749521  1.0000
  C   C4        1.0  0.0775746866637022  0.4811709380344026  0.4216381289229362  1.0000
  C   C5        1.0  0.44706952642427217  0.5140039797061886  0.26094622593533506  1.0000
  C   C6        1.0  0.39990129928850143  0.44468428615363115  0.22493906613895118  1.0000
  C   C7        1.0  0.37194935439521964  0.4479701320084145  0.1451548688705415  1.0000
  C   C8        1.0  0.3954214521743823  0.5219431678692671  0.0997789074910429  1.0000
  C   C9        1.0  0.4321332149224019  0.5933949018254123  0.13784051346433301  1.0000
  C   C10       1.0  0.4595832101067927  0.5894869998468479  0.21741372686068422  1.0000
  C   C11       1.0  0.39597622201651467  0.549295212905079  0.8566337342310535  1.0000
  C   C12       1.0  0.7399981583412087  0.5104411672205558  0.49597749164433946  1.0000
  C   C13       1.0  0.4174106502463459  0.5543268413839968  0.7763064635487069  1.0000
  C   C14       1.0  0.43111064281909967  0.47482460418614636  0.8993809587130741  1.0000
  C   C15       1.0  0.4727469847221286  0.48569178904575944  0.7372037917955865  1.0000
  C   C16       1.0  0.504765410909002  0.4109816763956218  0.7796409751644973  1.0000
  C   C17       1.0  0.48388659738744616  0.40558224108515617  0.8603468990690217  1.0000
  C   C18       1.0  0.4521359574860143  0.23986367359526636  0.5405957744438509  1.0000
  C   C19       1.0  0.4437391105166455  0.15334104917310748  0.5393359612199404  1.0000
  C   C20       1.0  0.5260681221061391  0.10925326429590848  0.48746330333808163  1.0000
  C   C21       1.0  0.6103080485737921  0.15517840873160077  0.4432878173470129  1.0000
  C   C22       1.0  0.6126312140669513  0.2430735219738338  0.447913737621306  1.0000
  C   C23       1.0  0.4953456069861631  0.4928545833255952  0.650387129392449  1.0000
  C   C24       1.0  0.5736535827561583  0.847703877542024  0.46726916980138367  1.0000
  C   C25       1.0  0.5712281770375043  0.7590278272923072  0.4686512350610386  1.0000
  C   C26       1.0  0.4663461133120919  0.8922755471308932  0.4976666151651089  1.0000
  C   C27       1.0  0.3735381251797207  0.7584858629866105  0.5250731140624795  1.0000
  C   C28       1.0  0.3671846710048073  0.845157661789706  0.5259881764083049  1.0000
  C   C29       1.0  0.2624061912501148  0.4966091390935006  0.5061486819495968  1.0000
  C   C30       1.0  0.9279250738956224  0.5850618429382096  0.5396280824027784  1.0000
  C   C31       1.0  0.06789777159112018  0.5890886368644886  0.5266107364114418  1.0000
  C   C32       1.0  0.9268581661789173  0.4261736375162144  0.5479271933112457  1.0000
  C   C33       1.0  0.9346185524388063  0.5012893798142243  0.4163710741875519  1.0000
  C   C34       1.0  0.8804822800723004  0.5077032176396656  0.5006297806049105  1.0000
  C   C35       1.0  0.3798361589155235  0.30464516406982506  0.10867032568265962  1.0000
  C   C36       1.0  0.2432856160878032  0.10347721353701901  0.5636470604693643  1.0000
  C   C37       1.0  0.10344931544845083  0.6123758674904848  0.6674913989045947  1.0000
  N   N1        1.0  0.39049723786313706  0.5306212446187928  0.0173266296309862  1.0000
  N   N2        1.0  0.42421585884836344  0.4644743986358648  0.9821174937507706  1.0000
  N   N3        1.0  0.5313109044699118  0.2842979978902632  0.49604675782882884  1.0000
  N   N4        1.0  0.5401576762798399  0.0219272019377783  0.4792884240824479  1.0000
  N   N5        1.0  0.4490650131611957  0.9789169835675509  0.5026794277075695  1.0000
  N   N6        1.0  0.476059339751167  0.7171711282990074  0.4964379360108495  1.0000
  N   N7        1.0  0.6735926842737427  0.8865872317518464  0.4384883940627163  1.0000
  N   N8        1.0  0.6936135425019074  0.2885935455628044  0.4050414612474214  1.0000
  N   N9        1.0  0.864162300531376  0.4077240351687834  0.6222618092431276  1.0000
  N   N10       1.0  0.9080565138029967  0.5792178715266514  0.3700935719043201  1.0000
  N   N11       1.0  0.14144264702284912  0.5193649943903224  0.35487492473782123  1.0000
  O   O1        1.0  0.5202168986563507  0.5729922211674463  0.3770421529827247  1.0000
  O   O2        1.0  0.4634225830983922  0.4376771130795305  0.3823693004562401  1.0000
  O   O3        1.0  0.6795704866164273  0.5773724756191854  0.5133510600812059  1.0000
  O   O4        1.0  0.6905303991770778  0.4435483823355924  0.4745727584839728  1.0000
  O   O5        1.0  0.4652984817473609  0.5631005742949141  0.6163496008214651  1.0000
  O   O6        1.0  0.541963137247116  0.4280452287719072  0.6166641378712114  1.0000
  O   O7        1.0  0.31230759037079286  0.5631325291942842  0.480854921883072  1.0000
  O   O8        1.0  0.3206371040700731  0.42761020966126745  0.5256826782052357  1.0000
  O   O9        1.0  0.3129468043424738  0.3842581734835377  0.1112094372036552  1.0000
  O   O10       1.0  0.36588024726064816  0.1152904998410733  0.5921237245061164  1.0000
  O   O11       1.0  0.13126953410983336  0.6311849946772482  0.58711506883229  1.0000
