data_image0
_chemical_formula_structural       Cu12H96C120O60
_chemical_formula_sum              "Cu12 H96 C120 O60"
_cell_length_a       8.680811748002048
_cell_length_b       21.907928244103225
_cell_length_c       21.907871693239887
_cell_angle_alpha    120.00001240781923
_cell_angle_beta     89.99999439946677
_cell_angle_gamma    89.99993541878807

_space_group_name_H-M_alt    "P 1"
_space_group_IT_number       1

loop_
  _space_group_symop_operation_xyz
  'x, y, z'

loop_
  _atom_site_type_symbol
  _atom_site_label
  _atom_site_symmetry_multiplicity
  _atom_site_fract_x
  _atom_site_fract_y
  _atom_site_fract_z
  _atom_site_occupancy
  Cu  Cu1       1.0  0.6055468203367128  0.9466714566674809  0.4161779767252085  1.0000
  Cu  Cu2       1.0  0.6055475350149848  0.469503184329497  0.053331596242216554  1.0000
  Cu  Cu3       1.0  0.6055427173983503  0.5838266240240769  0.5304944682480226  1.0000
  Cu  Cu4       1.0  0.8944600072410938  0.053332557599446793  0.46950788077840855  1.0000
  Cu  Cu5       1.0  0.894450228203759  0.41617115543774436  0.9466671806282108  1.0000
  Cu  Cu6       1.0  0.8944512533428366  0.5304964454092768  0.5838238668518159  1.0000
  Cu  Cu7       1.0  0.39445721672320394  0.05333173744709539  0.5838260174361951  1.0000
  Cu  Cu8       1.0  0.3944518941878671  0.5304955158390854  0.9466668498232168  1.0000
  Cu  Cu9       1.0  0.39445210393631674  0.41617502672105633  0.46950376597355614  1.0000
  Cu  Cu10      1.0  0.10554633374908214  0.9466718835739485  0.5304957792318278  1.0000
  Cu  Cu11      1.0  0.10554689706327744  0.5838299493203394  0.05333525124298426  1.0000
  Cu  Cu12      1.0  0.10554471995887131  0.469504485344956  0.41617417444859234  1.0000
  H   H1        1.0  0.11179261955707895  0.7488881099651863  0.07706071301122112  1.0000
  H   H2        1.0  0.11179435288379122  0.32817185380559977  0.2511130997058757  1.0000
  H   H3        1.0  0.11180037698042612  0.9229409228200325  0.6718285984027972  1.0000
  H   H4        1.0  0.38820524109497273  0.25111125874709467  0.3281721305126269  1.0000
  H   H5        1.0  0.38820544718022637  0.07705956466497099  0.7488852871866956  1.0000
  H   H6        1.0  0.38820458383437284  0.6718270719094689  0.9229390449071319  1.0000
  H   H7        1.0  0.8882033537477627  0.25111059020447607  0.9229377330548305  1.0000
  H   H8        1.0  0.8882039243558354  0.6718249499262186  0.7488845040610033  1.0000
  H   H9        1.0  0.8882082679452311  0.07706109484652764  0.3281747463799861  1.0000
  H   H10       1.0  0.6117918841751688  0.7488879684912034  0.671825788481499  1.0000
  H   H11       1.0  0.611800893815854  0.9229410319385564  0.25111400117624794  1.0000
  H   H12       1.0  0.6117948453688201  0.3281713647246108  0.07705966469415425  1.0000
  H   H13       1.0  0.7200664429536588  0.6981099109650656  0.16453897916796478  1.0000
  H   H14       1.0  0.7200679109668614  0.4664291704201488  0.3018912116868648  1.0000
  H   H15       1.0  0.7200742748750032  0.8354624808032083  0.5335715579893403  1.0000
  H   H16       1.0  0.7799334979799469  0.30189047473294284  0.4664289014983468  1.0000
  H   H17       1.0  0.7799371264140122  0.16453807843377166  0.6981080593742136  1.0000
  H   H18       1.0  0.7799308280110254  0.5335696941234788  0.8354594833421489  1.0000
  H   H19       1.0  0.27993183427971513  0.301891142097027  0.8354607656532524  1.0000
  H   H20       1.0  0.2799303662724171  0.5335678262332093  0.698107112072698  1.0000
  H   H21       1.0  0.2799366739847359  0.16453823810746118  0.4664294338940067  1.0000
  H   H22       1.0  0.22006247532176815  0.6981103147953716  0.5335711068591422  1.0000
  H   H23       1.0  0.2200749744124266  0.8354621134075445  0.3018934595806401  1.0000
  H   H24       1.0  0.22006975315817104  0.4664287425102387  0.1645392262589311  1.0000
  H   H25       1.0  0.8570755564739374  0.6691515435854997  0.20585282313302858  1.0000
  H   H26       1.0  0.8570803404327522  0.5367004860143538  0.3308524375466746  1.0000
  H   H27       1.0  0.857084568951045  0.7941515449239346  0.46330066359718103  1.0000
  H   H28       1.0  0.6429209175462419  0.33084845297273086  0.5366992485128392  1.0000
  H   H29       1.0  0.6429268421320202  0.20585055085338394  0.6691499229208304  1.0000
  H   H30       1.0  0.6429195517314881  0.463297739281117  0.7941462408553336  1.0000
  H   H31       1.0  0.14292041682882944  0.3308484553393285  0.7941479758320399  1.0000
  H   H32       1.0  0.14292024073680662  0.46329754585895705  0.6691485026473531  1.0000
  H   H33       1.0  0.14292868383374474  0.2058539503852899  0.5367019422683726  1.0000
  H   H34       1.0  0.3570727518265998  0.669150247197649  0.4632991975536171  1.0000
  H   H35       1.0  0.35708410672494756  0.7941518526555384  0.3308548618469018  1.0000
  H   H36       1.0  0.3570810294387457  0.536700118587973  0.20585030876769386  1.0000
  H   H37       1.0  0.09390687743359652  0.9598701185031403  0.2575968368490535  1.0000
  H   H38       1.0  0.09390668895395043  0.2977263525393852  0.04013103301591058  1.0000
  H   H39       1.0  0.09390483898405931  0.7424052229587872  0.7022737602976791  1.0000
  H   H40       1.0  0.40609557626375903  0.04013019114132989  0.2977256316636101  1.0000
  H   H41       1.0  0.40609635347778555  0.2575954214078989  0.9598677023674825  1.0000
  H   H42       1.0  0.40608883051658046  0.7022737059474764  0.7424035047675944  1.0000
  H   H43       1.0  0.9060925517692555  0.04012851105248663  0.7424025927449165  1.0000
  H   H44       1.0  0.906095044178116  0.7022742440655916  0.9598682553478639  1.0000
  H   H45       1.0  0.9060922862833111  0.25759575949071223  0.2977269680522951  1.0000
  H   H46       1.0  0.5939073088356963  0.9598695631641619  0.7022717602577659  1.0000
  H   H47       1.0  0.5939042276868918  0.742406158722467  0.040131515381602804  1.0000
  H   H48       1.0  0.5939059908215684  0.297725450678584  0.2575953977554875  1.0000
  H   H49       1.0  0.21934118133506084  0.8452332093282421  0.06723021304854623  1.0000
  H   H50       1.0  0.2193432113267235  0.22199486792446516  0.15476581607286732  1.0000
  H   H51       1.0  0.21934329056007584  0.9327700212592942  0.7780062722926572  1.0000
  H   H52       1.0  0.2806589947034581  0.15476489700321133  0.22199519094119322  1.0000
  H   H53       1.0  0.2806579057437162  0.06722970320159753  0.8452322280691221  1.0000
  H   H54       1.0  0.280655733932278  0.7780043090677323  0.9327700145248486  1.0000
  H   H55       1.0  0.7806536400044808  0.15476496377278445  0.932768760089431  1.0000
  H   H56       1.0  0.7806573698421247  0.7780038322437546  0.8452326299923527  1.0000
  H   H57       1.0  0.7806572906056674  0.06723048581575604  0.22199767017818323  1.0000
  H   H58       1.0  0.7193415864671312  0.845232697331383  0.778001622217694  1.0000
  H   H59       1.0  0.7193415234563432  0.932771034630008  0.15476509323797652  1.0000
  H   H60       1.0  0.7193425433042223  0.22199458402274533  0.06722915153347495  1.0000
  H   H61       1.0  0.3341011117541869  0.892374291923936  0.14380618856355193  1.0000
  H   H62       1.0  0.3340997232504677  0.2514307237336766  0.10762467389423591  1.0000
  H   H63       1.0  0.33410110352367184  0.8561933091887469  0.7485701299871936  1.0000
  H   H64       1.0  0.16590135774875855  0.1076250078276999  0.2514312151460558  1.0000
  H   H65       1.0  0.16590124299666806  0.14380751990952217  0.8923732564745492  1.0000
  H   H66       1.0  0.16589808225608493  0.7485686493193169  0.856193602581719  1.0000
  H   H67       1.0  0.6658971654823135  0.10762467177950429  0.8561919939662204  1.0000
  H   H68       1.0  0.6659008579190768  0.7485675199785006  0.8923733157141599  1.0000
  H   H69       1.0  0.6658994776427606  0.14380674143026076  0.2514333560268156  1.0000
  H   H70       1.0  0.8341015273531341  0.8923729723492567  0.7485670379977805  1.0000
  H   H71       1.0  0.8340993381669648  0.8561948508243448  0.1076251706669638  1.0000
  H   H72       1.0  0.8341013469464188  0.2514302437708054  0.14380556347639134  1.0000
  H   H73       1.0  0.17174642162429885  0.93387115580272  0.13089621776740046  1.0000
  H   H74       1.0  0.17174632434848291  0.19702414062739848  0.0661280479508761  1.0000
  H   H75       1.0  0.17174414348716743  0.8691025315681883  0.8029756378573937  1.0000
  H   H76       1.0  0.32825375059278633  0.06612789458417007  0.197023979705186  1.0000
  H   H77       1.0  0.3282547376687006  0.13089732138937657  0.9338704688928916  1.0000
  H   H78       1.0  0.32825033201377357  0.8029755450211268  0.8691038015611597  1.0000
  H   H79       1.0  0.8282507036465462  0.06612754436658008  0.869102228298445  1.0000
  H   H80       1.0  0.8282531048550583  0.802974103085141  0.9338699416577257  1.0000
  H   H81       1.0  0.828251829816992  0.1308964132186432  0.19702621525110692  1.0000
  H   H82       1.0  0.6717479825424065  0.9338706126621474  0.8029737463671438  1.0000
  H   H83       1.0  0.6717446915310178  0.8691036093637763  0.06612757240689159  1.0000
  H   H84       1.0  0.6717479452213411  0.19702426098143627  0.1308962774108124  1.0000
  H   H85       1.0  0.8473573912975995  0.7918465866650308  0.26086796739426166  1.0000
  H   H86       1.0  0.8473543998813968  0.46902024671611275  0.20815642926439176  1.0000
  H   H87       1.0  0.8473585915854684  0.7391373479595131  0.5309800222631013  1.0000
  H   H88       1.0  0.6526448437993652  0.20815574798451303  0.4690214578374495  1.0000
  H   H89       1.0  0.6526435849751381  0.2608649404393331  0.7918424088499877  1.0000
  H   H90       1.0  0.6526409019612914  0.5309791184346861  0.739133032034445  1.0000
  H   H91       1.0  0.15264664576718456  0.20815334164431215  0.7391338150979011  1.0000
  H   H92       1.0  0.1526404214584929  0.5309776628504109  0.7918428074094379  1.0000
  H   H93       1.0  0.15264544547234493  0.26086749797501335  0.46902140715460666  1.0000
  H   H94       1.0  0.34734997753426466  0.7918464815252407  0.530978936362189  1.0000
  H   H95       1.0  0.347361604053198  0.7391367619981822  0.2081585124195016  1.0000
  H   H96       1.0  0.34735622330955357  0.4690195817346137  0.2608654140314003  1.0000
  C   C1        1.0  0.07409447337304441  0.7865070062651397  0.13036160685072656  1.0000
  C   C2        1.0  0.0740962468850981  0.34385360956130745  0.21349484168842284  1.0000
  C   C3        1.0  0.07410121498743649  0.869641939084005  0.6561470887512826  1.0000
  C   C4        1.0  0.42590453243403914  0.21349294568407373  0.3438532664029452  1.0000
  C   C5        1.0  0.4259069109393892  0.13035868830730363  0.786503096815494  1.0000
  C   C6        1.0  0.42590269880917486  0.656145120078449  0.8696384461451246  1.0000
  C   C7        1.0  0.9259026518971114  0.21349215036019573  0.8696372956719429  1.0000
  C   C8        1.0  0.9259020303524467  0.6561445635386319  0.7865041314489291  1.0000
  C   C9        1.0  0.9259062779711726  0.13036086918641127  0.34385546542412737  1.0000
  C   C10       1.0  0.5740937448021058  0.7865063521668176  0.6561436690624234  1.0000
  C   C11       1.0  0.5741017339879948  0.8696423647515489  0.21349664800386142  1.0000
  C   C12       1.0  0.574097882360718  0.3438528600992328  0.13035980699912386  1.0000
  C   C13       1.0  0.8964839312966008  0.928744263981919  0.33525739697468293  1.0000
  C   C14       1.0  0.8964893081961096  0.4065091811088307  0.07125606962856071  1.0000
  C   C15       1.0  0.8964888892503141  0.6647468266054445  0.5934902247467236  1.0000
  C   C16       1.0  0.6035067829761402  0.07125224683324652  0.40650848876747864  1.0000
  C   C17       1.0  0.6035075077976587  0.33525279259512064  0.9287420347530569  1.0000
  C   C18       1.0  0.6035060145069766  0.5934893172030371  0.664744594803672  1.0000
  C   C19       1.0  0.10351664987017982  0.07125552310259307  0.6647463525751932  1.0000
  C   C20       1.0  0.1035078170737052  0.5934900978250964  0.928744536415337  1.0000
  C   C21       1.0  0.10350478011731211  0.33525554413058956  0.40650820239603297  1.0000
  C   C22       1.0  0.3964891903269675  0.9287475591700342  0.5934915902049056  1.0000
  C   C23       1.0  0.396488465505108  0.6647472769426627  0.07125778068346719  1.0000
  C   C24       1.0  0.39648419896681736  0.4065101029589612  0.33525404418437427  1.0000
  C   C25       1.0  0.8251949056854643  0.6667821039176615  0.15586568981481716  1.0000
  C   C26       1.0  0.825195140988484  0.48908062179478407  0.333219355745193  1.0000
  C   C27       1.0  0.82520268207319  0.8441392458618109  0.5109197900808767  1.0000
  C   C28       1.0  0.6748038819027543  0.3332178111709893  0.4890812193533236  1.0000
  C   C29       1.0  0.674811028475041  0.15586258625900493  0.666780616020546  1.0000
  C   C30       1.0  0.6748001381453363  0.5109160521896497  0.8441338232523777  1.0000
  C   C31       1.0  0.17480221958434336  0.3332171750162658  0.8441349162290807  1.0000
  C   C32       1.0  0.1748042882181977  0.5109153913331781  0.666779038629052  1.0000
  C   C33       1.0  0.17480596284829633  0.15586565176690922  0.48908432638577193  1.0000
  C   C34       1.0  0.32519093943400185  0.6667823289801119  0.51091761255487  1.0000
  C   C35       1.0  0.32519876841905676  0.8441377278916206  0.33322260645594776  1.0000
  C   C36       1.0  0.32519698712689404  0.4890817350675718  0.15586370989981194  1.0000
  C   C37       1.0  0.06315177101378572  0.9041503572834626  0.23106141350295664  1.0000
  C   C38       1.0  0.06315375755576721  0.3269097083657542  0.09585139613813712  1.0000
  C   C39       1.0  0.06315191973269661  0.7689423066221648  0.673090013560703  1.0000
  C   C40       1.0  0.4368506824218771  0.09585006340142846  0.3269102239448927  1.0000
  C   C41       1.0  0.4368504330768844  0.2310586089710752  0.9041464105070744  1.0000
  C   C42       1.0  0.4368452096937717  0.6730892478621513  0.7689388183857703  1.0000
  C   C43       1.0  0.9368476581876808  0.09584918518424235  0.7689389290046692  1.0000
  C   C44       1.0  0.9368502795121361  0.6730882011978849  0.9041478405340442  1.0000
  C   C45       1.0  0.9368475094649401  0.23105985227319786  0.32691136416664796  1.0000
  C   C46       1.0  0.5631522026775857  0.9041496202911077  0.6730881515050201  1.0000
  C   C47       1.0  0.5631513000537965  0.7689429711589353  0.09585280724180473  1.0000
  C   C48       1.0  0.5631530675430767  0.3269094523067864  0.231059627679862  1.0000
  C   C49       1.0  0.9805350807614135  0.7619036032353463  0.16580008082693354  1.0000
  C   C50       1.0  0.9805367349216498  0.4038943376051094  0.2380997691803159  1.0000
  C   C51       1.0  0.9805406952470864  0.8342059741534766  0.596106464129079  1.0000
  C   C52       1.0  0.5194648662198916  0.23809776197289523  0.40389468932440314  1.0000
  C   C53       1.0  0.5194683896376803  0.16579523522380404  0.7618989728588519  1.0000
  C   C54       1.0  0.5194620104787121  0.5961041254309194  0.834201553167283  1.0000
  C   C55       1.0  0.019464348437964008  0.23809723798751756  0.8342026145797095  1.0000
  C   C56       1.0  0.019463846249294602  0.5961027813561158  0.761900258100056  1.0000
  C   C57       1.0  0.019465645743785807  0.16579801056387566  0.40389673942433296  1.0000
  C   C58       1.0  0.4805311070842535  0.7619014652657583  0.5961032296699287  1.0000
  C   C59       1.0  0.4805402552911034  0.8342047636970518  0.23810182610394287  1.0000
  C   C60       1.0  0.48053741872482914  0.40389411828161303  0.16579643644131895  1.0000
  C   C61       1.0  0.21514450898943954  0.8836163993707729  0.1239022986429532  1.0000
  C   C62       1.0  0.21514657695220765  0.24028429165449688  0.11638303593764479  1.0000
  C   C63       1.0  0.215145608881997  0.8760979384987236  0.75971644202577  1.0000
  C   C64       1.0  0.28485565964813736  0.11638208545701187  0.24028402161206944  1.0000
  C   C65       1.0  0.2848555854375904  0.12390211418597355  0.8836159070766173  1.0000
  C   C66       1.0  0.2848535296554999  0.759715882132781  0.8760981519600436  1.0000
  C   C67       1.0  0.7848503123497538  0.11638203726474931  0.8760964109591641  1.0000
  C   C68       1.0  0.7848540042162925  0.7597146720482187  0.8836151465917157  1.0000
  C   C69       1.0  0.784853820318425  0.12390218273360176  0.24028606045990844  1.0000
  C   C70       1.0  0.7151472254537553  0.8836159653329003  0.7597132480032229  1.0000
  C   C71       1.0  0.7151438437614318  0.8760992024102663  0.11638357420853386  1.0000
  C   C72       1.0  0.7151470515112666  0.24028418740356022  0.12390166347565673  1.0000
  C   C73       1.0  0.9248708589071273  0.8083412917855313  0.23290692370741084  1.0000
  C   C74       1.0  0.9248714089705958  0.4245639733172553  0.1916611962080381  1.0000
  C   C75       1.0  0.9248720357328539  0.7670983869582598  0.5754358007352636  1.0000
  C   C76       1.0  0.5751290794081997  0.19166034048625855  0.4245643780383547  1.0000
  C   C77       1.0  0.5751301348123621  0.23290261960506325  0.8083368712308358  1.0000
  C   C78       1.0  0.5751273476399775  0.5754341808541809  0.7670929525257366  1.0000
  C   C79       1.0  0.07513087422634612  0.19165818006848667  0.7670944023283398  1.0000
  C   C80       1.0  0.07512686826764542  0.5754336727136931  0.8083383040010335  1.0000
  C   C81       1.0  0.07513084936104521  0.2329050189955523  0.424565242840707  1.0000
  C   C82       1.0  0.42486804585951893  0.8083405196546565  0.5754346467903915  1.0000
  C   C83       1.0  0.4248750542170257  0.7670983628419137  0.19166385711768189  1.0000
  C   C84       1.0  0.4248720815639119  0.42456386993681855  0.2329043170901812  1.0000
  C   C85       1.0  0.9664302317484829  0.8796274933328405  0.2651294003334073  1.0000
  C   C86       1.0  0.9664286450875041  0.3855026508878012  0.12037681101931946  1.0000
  C   C87       1.0  0.9664269472945082  0.7348758923043234  0.6144980021075739  1.0000
  C   C88       1.0  0.5335789229661003  0.12037687389442192  0.3855032572509032  1.0000
  C   C89       1.0  0.5335717564590254  0.26512500618665064  0.8796215796424819  1.0000
  C   C90       1.0  0.5335678178055119  0.6144983021762798  0.7348718625234697  1.0000
  C   C91       1.0  0.03357495728160841  0.12037289143218284  0.7348728386153739  1.0000
  C   C92       1.0  0.033570784113607005  0.6144971551143998  0.8796232679524396  1.0000
  C   C93       1.0  0.033572481904172904  0.26512561721345657  0.3855021991702614  1.0000
  C   C94       1.0  0.46642396213023574  0.8796248991567734  0.6144966804904614  1.0000
  C   C95       1.0  0.4664288247070517  0.7348755198057262  0.12037869225003564  1.0000
  C   C96       1.0  0.4664293074649848  0.3855006615275157  0.265126320006516  1.0000
  C   C97       1.0  0.11612269682304088  0.8574827542658313  0.16254032728859613  1.0000
  C   C98       1.0  0.11612463669020202  0.3050564703323175  0.14252049537814318  1.0000
  C   C99       1.0  0.11612612864029612  0.8374642037406373  0.69494360486636  1.0000
  C   C100      1.0  0.3838786135661181  0.14251944697898014  0.305057312953288  1.0000
  C   C101      1.0  0.3838785305520389  0.1625360714890505  0.857477685069405  1.0000
  C   C102      1.0  0.38387431918597076  0.6949432938316065  0.8374623798320543  1.0000
  C   C103      1.0  0.8838732764772887  0.1425188775616133  0.8374615775110925  1.0000
  C   C104      1.0  0.8838782484106532  0.6949422298351846  0.8574779506866649  1.0000
  C   C105      1.0  0.8838767564563955  0.16253716455014455  0.305058563467945  1.0000
  C   C106      1.0  0.6161231195662966  0.8574809567044567  0.6949412554177955  1.0000
  C   C107      1.0  0.6161243545449865  0.8374652451061023  0.14252179621512784  1.0000
  C   C108      1.0  0.6161251100161922  0.3050557921800561  0.16253750621874022  1.0000
  C   C109      1.0  0.7911475130263526  0.5900595224028535  0.1018491822579151  1.0000
  C   C110      1.0  0.7911510498684039  0.5117845925986018  0.409941794325846  1.0000
  C   C111      1.0  0.7911412767335194  0.8981542886103567  0.4882129128206217  1.0000
  C   C112      1.0  0.7088547335506661  0.4099405867429128  0.5117872794586164  1.0000
  C   C113      1.0  0.7088505562808366  0.10184467581644428  0.5900574607780342  1.0000
  C   C114      1.0  0.7088465202927239  0.4882103644715911  0.8981516906317425  1.0000
  C   C115      1.0  0.20885076420806575  0.40994066944278984  0.8981523366994255  1.0000
  C   C116      1.0  0.20884607540661904  0.4882112276085449  0.5900558800561342  1.0000
  C   C117      1.0  0.20886391228788176  0.10185190777460199  0.5117935565456692  1.0000
  C   C118      1.0  0.2911354799227723  0.590059167566544  0.48821011246503343  1.0000
  C   C119      1.0  0.29115348078151027  0.8981569560084781  0.40994444402019786  1.0000
  C   C120      1.0  0.2911494530149028  0.5117864392609519  0.10184591313554134  1.0000
  O   O1        1.0  0.7788474989248402  0.9052713993219044  0.3516115279038631  1.0000
  O   O2        1.0  0.7788424173698233  0.44633767049961653  0.09473171289673832  1.0000
  O   O3        1.0  0.7788351728042644  0.6483951241921699  0.5536585280309153  1.0000
  O   O4        1.0  0.7211697050075474  0.09473324562124924  0.44633980727125794  1.0000
  O   O5        1.0  0.7211577745942038  0.35160547009090937  0.9052666502672154  1.0000
  O   O6        1.0  0.721152904626095  0.5536637138165189  0.6483904559140187  1.0000
  O   O7        1.0  0.22115999403726513  0.09472877360352784  0.6483936616301379  1.0000
  O   O8        1.0  0.22115470790207334  0.5536601684532342  0.9052685073052232  1.0000
  O   O9        1.0  0.22116310442874013  0.3516065454692026  0.4463360356117222  1.0000
  O   O10       1.0  0.27883318009018154  0.9052675439049054  0.5536602010849876  1.0000
  O   O11       1.0  0.2788416546072696  0.6483938605379292  0.09473664282604229  1.0000
  O   O12       1.0  0.27884306867387926  0.44633839338429476  0.3516082347641857  1.0000
  O   O13       1.0  0.9469104490450351  0.6913341473294067  0.13027912669789293  1.0000
  O   O14       1.0  0.9469084865734558  0.4389427363627263  0.3086691069114806  1.0000
  O   O15       1.0  0.9469147605853581  0.8697270628930625  0.5610580986661873  1.0000
  O   O16       1.0  0.5530918019157269  0.308666778251144  0.4389413671664784  1.0000
  O   O17       1.0  0.5530977906252659  0.13027354533590327  0.6913291257002996  1.0000
  O   O18       1.0  0.5530867924570658  0.5610545557813464  0.8697214385314282  1.0000
  O   O19       1.0  0.053090132121738506  0.3086657809810232  0.8697226557948954  1.0000
  O   O20       1.0  0.05308979066548151  0.5610544532121791  0.6913299368407593  1.0000
  O   O21       1.0  0.05309273237116941  0.13027704413251937  0.4389468084082467  1.0000
  O   O22       1.0  0.4469053233544146  0.6913325196001097  0.5610555682990963  1.0000
  O   O23       1.0  0.4469143102025654  0.8697256629803717  0.3086724638694491  1.0000
  O   O24       1.0  0.4469114847815093  0.4389430385539724  0.13027537462787106  1.0000
  O   O25       1.0  0.660591778872032  0.5692553639322212  0.11088877402067246  1.0000
  O   O26       1.0  0.6605825708697426  0.54162929246678  0.4307446283830885  1.0000
  O   O27       1.0  0.6605982013063851  0.8891146415537036  0.4583734373978815  1.0000
  O   O28       1.0  0.8394047040371433  0.43074419741812153  0.5416302077455413  1.0000
  O   O29       1.0  0.8394212838854004  0.11088864916410995  0.5692550283029405  1.0000
  O   O30       1.0  0.8394057824033043  0.4583648883745963  0.8891107196254708  1.0000
  O   O31       1.0  0.3394041944317722  0.43074398561502364  0.8891108484948873  1.0000
  O   O32       1.0  0.33941225047536255  0.4583650877600148  0.5692526601573675  1.0000
  O   O33       1.0  0.339406987714682  0.1108915359139288  0.5416367025467252  1.0000
  O   O34       1.0  0.16058666139987574  0.5692571191806407  0.45836927354106655  1.0000
  O   O35       1.0  0.16058044924458412  0.8891133168089809  0.4307456294313141  1.0000
  O   O36       1.0  0.1605890389407563  0.5416301412297743  0.11088774536449356  1.0000
  O   O37       1.0  0.9567547025153477  0.9894433652263858  0.37202443347867137  1.0000
  O   O38       1.0  0.9567532976406314  0.3825791149945488  0.010561727182938822  1.0000
  O   O39       1.0  0.9567459768024806  0.6279833724741195  0.6174173380262927  1.0000
  O   O40       1.0  0.5432532899622871  0.010565141568456183  0.38258604129417517  1.0000
  O   O41       1.0  0.543245804025915  0.3720173098265602  0.9894356220199754  1.0000
  O   O42       1.0  0.5432385787853206  0.6174199334419156  0.6279782966973713  1.0000
  O   O43       1.0  0.043251638478651  0.01055838890639638  0.6279791748403838  1.0000
  O   O44       1.0  0.043249587459186514  0.617420093324618  0.9894398623884655  1.0000
  O   O45       1.0  0.0432430847014871  0.3720186641158988  0.3825823361816916  1.0000
  O   O46       1.0  0.4567472912017082  0.9894366125661307  0.6174175670259104  1.0000
  O   O47       1.0  0.4567455614124897  0.6279830232471608  0.010563929881520578  1.0000
  O   O48       1.0  0.45675163468847313  0.3825795573330452  0.37201935876213105  1.0000
  O   O49       1.0  0.8870326138913996  0.5520666538652819  0.05419979680431198  1.0000
  O   O50       1.0  0.8870234303385518  0.5021285265060697  0.4479329256884199  1.0000
  O   O51       1.0  0.8870343138536968  0.9458091566184951  0.4978723950204725  1.0000
  O   O52       1.0  0.6129650304795363  0.4479332698193303  0.5021285972737247  1.0000
  O   O53       1.0  0.6129817132323866  0.05419771852130138  0.5520668730292045  1.0000
  O   O54       1.0  0.6129660676033809  0.49786820641159596  0.9458002733700469  1.0000
  O   O55       1.0  0.11296681530868112  0.44793366028859066  0.9458034256740505  1.0000
  O   O56       1.0  0.11297369493298964  0.4978696465942322  0.552066047449138  1.0000
  O   O57       1.0  0.11296972319927082  0.0541986726694503  0.5021351801806446  1.0000
  O   O58       1.0  0.38702633496372846  0.5520639386750686  0.4978667759014428  1.0000
  O   O59       1.0  0.387020019899346  0.9458028591663491  0.4479360859128791  1.0000
  O   O60       1.0  0.3870276017708393  0.5021296514596614  0.05419627625422414  1.0000
