data_image0
_chemical_formula_structural       Zn2H32C28S4N12
_chemical_formula_sum              "Zn2 H32 C28 S4 N12"
_cell_length_a       8.012541039885058
_cell_length_b       8.782724523575535
_cell_length_c       12.073562332030445
_cell_angle_alpha    89.99994405342773
_cell_angle_beta     90.00025399418868
_cell_angle_gamma    99.79290508345991

_space_group_name_H-M_alt    "P 1"
_space_group_IT_number       1

loop_
  _space_group_symop_operation_xyz
  'x, y, z'

loop_
  _atom_site_type_symbol
  _atom_site_label
  _atom_site_symmetry_multiplicity
  _atom_site_fract_x
  _atom_site_fract_y
  _atom_site_fract_z
  _atom_site_occupancy
  Zn  Zn1       1.0  3.1458587486000005e-06  1.0719960670000003e-06  0.4999990751735837  1.0000
  Zn  Zn2       1.0  0.49999912382291  0.4999985536728956  5.493400080999999e-07  1.0000
  H   H1        1.0  0.9650284813815376  0.6660323208881564  0.6021167474438442  1.0000
  H   H2        1.0  0.5349748607415491  0.8339689953165887  0.10211615944375299  1.0000
  H   H3        1.0  0.03497116527380939  0.33397389995326426  0.3978833298297175  1.0000
  H   H4        1.0  0.4650252684745053  0.16602681201106148  0.8978830895782365  1.0000
  H   H5        1.0  0.7960108748976465  0.4025807628214011  0.5780607290405156  1.0000
  H   H6        1.0  0.7039841165184059  0.09742133405642049  0.0780550023047795  1.0000
  H   H7        1.0  0.2039810685382903  0.5974243470537388  0.4219434895020625  1.0000
  H   H8        1.0  0.296010449744621  0.902577976542176  0.921942590195961  1.0000
  H   H9        1.0  0.5893911322043408  0.35495830104459714  0.41960265601871777  1.0000
  H   H10       1.0  0.9105996920522444  0.14504257362122527  0.9195956464144356  1.0000
  H   H11       1.0  0.41059956459753266  0.6450468162379721  0.5804023907780048  1.0000
  H   H12       1.0  0.08939385098063471  0.8549578997961547  0.08040028957248069  1.0000
  H   H13       1.0  0.7295900847770084  0.8353400286100198  0.3346476469900281  1.0000
  H   H14       1.0  0.7704106293316642  0.6646589282987206  0.8346493267870941  1.0000
  H   H15       1.0  0.27041387817509144  0.16466269636887887  0.6653482890112343  1.0000
  H   H16       1.0  0.22959368662495896  0.3353391676279712  0.1653515787521016  1.0000
  H   H17       1.0  0.41266975355106444  0.4962849237715474  0.2840433520548231  1.0000
  H   H18       1.0  0.08732853994253281  0.0037100235262740996  0.7840413008328325  1.0000
  H   H19       1.0  0.5873333157687171  0.5037131795626948  0.7159575534825535  1.0000
  H   H20       1.0  0.9126707894639523  0.9962881020307535  0.2159587764431379  1.0000
  H   H21       1.0  0.5048374580397379  0.6806430725892769  0.2356376573572518  1.0000
  H   H22       1.0  0.9951534190856891  0.8193536554529359  0.7356357394158907  1.0000
  H   H23       1.0  0.49515915467248556  0.31935391237225735  0.7643599351472828  1.0000
  H   H24       1.0  0.0048461337247119  0.18064562551544583  0.2643618530921046  1.0000
  H   H25       1.0  0.6073528149706604  0.38095225047991477  0.1862879375725797  1.0000
  H   H26       1.0  0.8926472182396382  0.11904631763001557  0.6862850354914158  1.0000
  H   H27       1.0  0.39265003093964873  0.6190446974432219  0.8137137962208453  1.0000
  H   H28       1.0  0.10735482784166094  0.8809529485233867  0.3137117287642468  1.0000
  H   H29       1.0  0.7319614819736486  0.5432865058415999  0.15742251252041936  1.0000
  H   H30       1.0  0.7680372443179593  0.9567148231793183  0.6574181804701738  1.0000
  H   H31       1.0  0.2680390940696711  0.45671161230787766  0.84257756475737  1.0000
  H   H32       1.0  0.2319677418531896  0.0432867389813083  0.34257609902105907  1.0000
  C   C1        1.0  0.680339443811988  0.10027550063692561  0.3755959826800606  1.0000
  C   C2        1.0  0.8196571891527427  0.3997311348289471  0.8756150322640294  1.0000
  C   C3        1.0  0.31967359861362604  0.8997225434363756  0.624408235895686  1.0000
  C   C4        1.0  0.1803490436885582  0.6002704199226088  0.12438918630057567  1.0000
  C   C5        1.0  0.8706504986005754  0.6427828211514708  0.5365551894935335  1.0000
  C   C6        1.0  0.6293482173100101  0.857216226386747  0.03655403106699849  1.0000
  C   C7        1.0  0.1293459845443579  0.35721994827212467  0.4634448877766529  1.0000
  C   C8        1.0  0.37065066526642443  0.1427795883485814  0.9634443896972159  1.0000
  C   C9        1.0  0.7777976748150123  0.495042995411218  0.5215131503941706  1.0000
  C   C10       1.0  0.7221981841912141  0.0049591112509404  0.021509198696755  1.0000
  C   C11       1.0  0.22219800852867172  0.5049620922413781  0.47849023989788725  1.0000
  C   C12       1.0  0.27779615866234764  0.9950390439365578  0.9784892220600337  1.0000
  C   C13       1.0  0.6643518674248056  0.4690774178480124  0.4336615412102134  1.0000
  C   C14       1.0  0.8356402977139439  0.030923445135705704  0.9336560511796179  1.0000
  C   C15       1.0  0.33564256928203656  0.5309276772121407  0.5663418490800253  1.0000
  C   C16       1.0  0.16435302190947004  0.9690758728705762  0.0663407130633402  1.0000
  C   C17       1.0  0.6477214107203082  0.5910189822453378  0.36218464067017203  1.0000
  C   C18       1.0  0.8522761948760548  0.9089822993365644  0.8621822438468172  1.0000
  C   C19       1.0  0.35227801252280244  0.4089860831851055  0.637815436603475  1.0000
  C   C20       1.0  0.1477233579343391  0.09101698163182449  0.13781534866117787  1.0000
  C   C21       1.0  0.7426752469292526  0.7357792883212753  0.3858214960111113  1.0000
  C   C22       1.0  0.7573245635678206  0.7642196604369005  0.8858214106402754  1.0000
  C   C23       1.0  0.2573274693943334  0.26422344406480397  0.6141769247562223  1.0000
  C   C24       1.0  0.24267578906047757  0.2357773023017272  0.1141778383816359  1.0000
  C   C25       1.0  0.5338051580951984  0.5686363073353107  0.2622206143241925  1.0000
  C   C26       1.0  0.9661896371352087  0.9313603904021264  0.7622193609961627  1.0000
  C   C27       1.0  0.4661956413575865  0.43136296622526527  0.7377786346975483  1.0000
  C   C28       1.0  0.0338088924505939  0.06864005338478311  0.23777823150993524  1.0000
  S   S1        1.0  0.5341188413596996  0.10303678440220657  0.28253541392159315  1.0000
  S   S2        1.0  0.9658821543204892  0.3969698497277179  0.7825474361835845  1.0000
  S   S3        1.0  0.4658887676774057  0.8969589784801145  0.717463835111282  1.0000
  S   S4        1.0  0.03411659870531031  0.6030317494689115  0.217458438882062  1.0000
  N   N1        1.0  0.7888871430781704  0.0987930193929856  0.44239912568423984  1.0000
  N   N2        1.0  0.7111250268847941  0.4012077224104402  0.9424128891919634  1.0000
  N   N3        1.0  0.21111659646168593  0.9012085501749353  0.5575968103171007  1.0000
  N   N4        1.0  0.2888743025494449  0.5987904031453297  0.0575954706436406  1.0000
  N   N5        1.0  0.8519742355402187  0.762470490295236  0.4709729844705492  1.0000
  N   N6        1.0  0.6480273923900555  0.7375284251665661  0.9709742568495086  1.0000
  N   N7        1.0  0.14802701073151067  0.23753109408754366  0.5290246080390872  1.0000
  N   N8        1.0  0.35197420687508435  0.2624685301645044  0.0290249921742145  1.0000
  N   N9        1.0  0.606485113579943  0.49501645180732357  0.16733988418472015  1.0000
  N   N10       1.0  0.8935150160293264  0.0049832774743449985  0.6673370655332461  1.0000
  N   N11       1.0  0.3935167091029967  0.5049816589344688  0.8326610213508443  1.0000
  N   N12       1.0  0.10648850010661451  0.9950171366822219  0.3326613552360769  1.0000
