data_image0
_chemical_formula_structural       Cu2H18C14N14
_chemical_formula_sum              "Cu2 H18 C14 N14"
_cell_length_a       5.741200640140264
_cell_length_b       9.802717297262971
_cell_length_c       10.251887804168897
_cell_angle_alpha    109.7450411420045
_cell_angle_beta     106.08469177448679
_cell_angle_gamma    90.13682862556718

_space_group_name_H-M_alt    "P 1"
_space_group_IT_number       1

loop_
  _space_group_symop_operation_xyz
  'x, y, z'

loop_
  _atom_site_type_symbol
  _atom_site_label
  _atom_site_symmetry_multiplicity
  _atom_site_fract_x
  _atom_site_fract_y
  _atom_site_fract_z
  _atom_site_occupancy
  Cu  Cu1       1.0  0.2126984166343533  0.024322153479879212  0.9361356988108371  1.0000
  Cu  Cu2       1.0  0.787287900144797  0.975679989472582  0.06386289600752107  1.0000
  H   H1        1.0  0.9632768111416966  0.26067628543097504  0.5576632339773157  1.0000
  H   H2        1.0  0.03672997814366852  0.7393291239970667  0.44233750087784085  1.0000
  H   H3        1.0  0.6603386627887391  0.43574348731561946  0.8790433908305104  1.0000
  H   H4        1.0  0.3396742255767862  0.564244542543449  0.1209557769191251  1.0000
  H   H5        1.0  0.5782748064944699  0.26493170710205055  0.9987814638384692  1.0000
  H   H6        1.0  0.42171689161167353  0.7350595623363676  0.0012155300856023367  1.0000
  H   H7        1.0  0.7173707350965587  0.07939868970755982  0.5804910406075551  1.0000
  H   H8        1.0  0.28261562020169617  0.9206143188813914  0.4195089909990985  1.0000
  H   H9        1.0  0.7792748968172986  0.06459471038164111  0.7554571819742792  1.0000
  H   H10       1.0  0.22071631112284257  0.9354150206435965  0.24454158259358405  1.0000
  H   H11       1.0  0.9037781858012437  0.9475268807988826  0.6243012882502512  1.0000
  H   H12       1.0  0.09619396509870631  0.05247739106464172  0.375693890759898  1.0000
  H   H13       1.0  0.33926924902795014  0.5751059834273209  0.6965594155467303  1.0000
  H   H14       1.0  0.6607532916714193  0.4248853440666738  0.3034432037472713  1.0000
  H   H15       1.0  0.21863230807979764  0.43586787988068937  0.5237967596694448  1.0000
  H   H16       1.0  0.7813931411103283  0.5641299586860455  0.476206371962178  1.0000
  H   H17       1.0  0.5372073056431291  0.46128559079060255  0.6158616013247241  1.0000
  H   H18       1.0  0.46282271565178246  0.5387068674428902  0.3841444444574976  1.0000
  C   C1        1.0  0.07727115061280193  0.16740733831459662  0.7230104467308041  1.0000
  C   C2        1.0  0.9227258363102708  0.8325937143916279  0.2769884355268815  1.0000
  C   C3        1.0  0.10887802924955993  0.262929925298181  0.6531550386277021  1.0000
  C   C4        1.0  0.8911258320252387  0.7370689576528735  0.34684420059424786  1.0000
  C   C5        1.0  0.319038683698416  0.3607319376376879  0.7047811912145863  1.0000
  C   C6        1.0  0.680971921419463  0.639263731875559  0.29522098721410134  1.0000
  C   C7        1.0  0.4931715310546991  0.36135134394022833  0.8317979530839353  1.0000
  C   C8        1.0  0.50683709139296  0.6386432485729827  0.16820456793286812  1.0000
  C   C9        1.0  0.451111542368004  0.26618678799868434  0.8985258296502824  1.0000
  C   C10       1.0  0.548883990569948  0.7338055917571824  0.10147306134003746  1.0000
  C   C11       1.0  0.8568801686562325  0.05936693961949402  0.6675087095419202  1.0000
  C   C12       1.0  0.14311232424128664  0.9406395550369739  0.33249119174750774  1.0000
  C   C13       1.0  0.35472714298467883  0.46298020377454235  0.6301827789067435  1.0000
  C   C14       1.0  0.645294073717693  0.537014329279714  0.3698167370745226  1.0000
  N   N1        1.0  0.4363228399040935  0.8904788976050713  0.855820289857107  1.0000
  N   N2        1.0  0.5636762272882478  0.10952330912245865  0.14418316629038233  1.0000
  N   N3        1.0  0.43391336128301833  0.8509710792147448  0.7300777453773792  1.0000
  N   N4        1.0  0.5660832999333253  0.14902877576633244  0.2699138861669539  1.0000
  N   N5        1.0  0.4377594067056877  0.8087880727574943  0.6098982673605493  1.0000
  N   N6        1.0  0.5622347883249575  0.19121739612949548  0.390105472530145  1.0000
  N   N7        1.0  0.0036095679899475425  0.8632036303303041  0.9490819926121719  1.0000
  N   N8        1.0  0.9963693657927029  0.1367974589039065  0.050918092195892925  1.0000
  N   N9        1.0  0.9832887108587941  0.7315861028244798  0.8909344532682156  1.0000
  N   N10       1.0  0.01670002528614841  0.26841934313155497  0.10906748413730584  1.0000
  N   N11       1.0  0.9656123242300159  0.6055254839494922  0.8371254901631817  1.0000
  N   N12       1.0  0.03438500178957332  0.39447771773901513  0.16287216079187067  1.0000
  N   N13       1.0  0.250241832726438  0.1697834137661688  0.8447060575318589  1.0000
  N   N14       1.0  0.7497543784045534  0.8302132639542494  0.1552903708531802  1.0000
