data_image0
_chemical_formula_structural       Ag8H16C24N32
_chemical_formula_sum              "Ag8 H16 C24 N32"
_cell_length_a       3.6243233500194187
_cell_length_b       12.70243782310894
_cell_length_c       19.826747157236
_cell_angle_alpha    89.99953603982982
_cell_angle_beta     89.99967135313914
_cell_angle_gamma    89.99987699336678

_space_group_name_H-M_alt    "P 1"
_space_group_IT_number       1

loop_
  _space_group_symop_operation_xyz
  'x, y, z'

loop_
  _atom_site_type_symbol
  _atom_site_label
  _atom_site_symmetry_multiplicity
  _atom_site_fract_x
  _atom_site_fract_y
  _atom_site_fract_z
  _atom_site_occupancy
  Ag  Ag1       1.0  0.8056843224342458  0.8484707152385127  0.7446303433554816  1.0000
  Ag  Ag2       1.0  0.1942859547026714  0.15153071373627822  0.24463115627108312  1.0000
  Ag  Ag3       1.0  0.6943050321051205  0.3484698832959978  0.7446332157586397  1.0000
  Ag  Ag4       1.0  0.3057149094770467  0.651530758410047  0.24462828384265825  1.0000
  Ag  Ag5       1.0  0.6722823886948247  0.641273442644149  0.6336238397049953  1.0000
  Ag  Ag6       1.0  0.3277325882881216  0.358723090197124  0.13362544756119377  1.0000
  Ag  Ag7       1.0  0.8277004855357647  0.14127723595984784  0.6336250522731033  1.0000
  Ag  Ag8       1.0  0.172292418359973  0.8587248076491322  0.1336232262525812  1.0000
  H   H1        1.0  0.22288641632213313  0.5562871209384711  0.9524103367602519  1.0000
  H   H2        1.0  0.7771107695974993  0.44371483299656234  0.45241050472086636  1.0000
  H   H3        1.0  0.2771187290391381  0.05628622799942211  0.9524141268298222  1.0000
  H   H4        1.0  0.7228812159579265  0.9437125769040975  0.45241125398048604  1.0000
  H   H5        1.0  0.3528243809702759  0.6475743906171872  0.06130117116955349  1.0000
  H   H6        1.0  0.6471706812667081  0.35242699184161114  0.5613026037832326  1.0000
  H   H7        1.0  0.14719301457715525  0.1475767423837482  0.0613045997641279  1.0000
  H   H8        1.0  0.8528158432979825  0.8524230655499423  0.5613022014001812  1.0000
  H   H9        1.0  0.8901816742000012  0.925403953376069  0.9931156384876303  1.0000
  H   H10       1.0  0.10980877864211891  0.07459748648730623  0.4931174481448508  1.0000
  H   H11       1.0  0.6098246352694832  0.42540475818021417  0.9931160819638761  1.0000
  H   H12       1.0  0.3901878906903919  0.574593532682755  0.493115491557134  1.0000
  H   H13       1.0  0.764808462337875  0.8502278064614117  0.8798920851829379  1.0000
  H   H14       1.0  0.2351826103560626  0.149773488797905  0.379892862254195  1.0000
  H   H15       1.0  0.7351851224418838  0.3502253699254538  0.8798923907857057  1.0000
  H   H16       1.0  0.2648169868368343  0.6497719890902474  0.3798905391789091  1.0000
  C   C1        1.0  0.9815579499344624  0.6952132177665717  0.9068292126634175  1.0000
  C   C2        1.0  0.018440596283959103  0.3047869500564389  0.4068294232571787  1.0000
  C   C3        1.0  0.5184440385916248  0.19520621735450316  0.9068322785062789  1.0000
  C   C4        1.0  0.4815545075934511  0.8047900141971027  0.4068293836395539  1.0000
  C   C5        1.0  0.14949581621104366  0.6386610565079066  0.9592489048396683  1.0000
  C   C6        1.0  0.8504984064571418  0.36134159830324114  0.4592509328907397  1.0000
  C   C7        1.0  0.3505196672557247  0.1386632585082523  0.9592531185476926  1.0000
  C   C8        1.0  0.6494911101411633  0.8613378217576654  0.45925277160773686  1.0000
  C   C9        1.0  0.21976003478975778  0.6888620505336862  0.020028103637194795  1.0000
  C   C10       1.0  0.7802390183348323  0.31113827866588656  0.5200280911689672  1.0000
  C   C11       1.0  0.2802583447368079  0.1888595807924958  0.020030881526764695  1.0000
  C   C12       1.0  0.7197489857794396  0.8111383866431012  0.5200268263884951  1.0000
  C   C13       1.0  0.9698935268074467  0.8448541078175822  0.9810467539075345  1.0000
  C   C14       1.0  0.030105563639828907  0.15514669721751773  0.48104722426345586  1.0000
  C   C15       1.0  0.5301191445040488  0.34485024782478757  0.981047789430839  1.0000
  C   C16       1.0  0.469888223380032  0.6551481954654509  0.48104467563422293  1.0000
  C   C17       1.0  0.897525225407698  0.8014959256564894  0.9181056688493353  1.0000
  C   C18       1.0  0.10246470684246131  0.1985056742487501  0.41810785196887673  1.0000
  C   C19       1.0  0.6024840661612388  0.301499097607028  0.9181081378711156  1.0000
  C   C20       1.0  0.39752793914411205  0.698500140522782  0.418107904786936  1.0000
  C   C21       1.0  0.8877015271881777  0.6412145644938506  0.8441776749488098  1.0000
  C   C22       1.0  0.11229612960320881  0.35878796904417243  0.3441790150479491  1.0000
  C   C23       1.0  0.6122943777137027  0.1412137929646207  0.8441796288146431  1.0000
  C   C24       1.0  0.38770051992883486  0.8587855915630345  0.34417857429931326  1.0000
  N   N1        1.0  0.8058442400073178  0.6870510541860569  0.7846156369879437  1.0000
  N   N2        1.0  0.19415243518253794  0.31294986980389444  0.28461712505411896  1.0000
  N   N3        1.0  0.6941531673522052  0.18704943511109212  0.7846180051954262  1.0000
  N   N4        1.0  0.3058490260987483  0.8129499143695472  0.2846157655860253  1.0000
  N   N5        1.0  0.7299964713041549  0.608030298818939  0.7420592307860473  1.0000
  N   N6        1.0  0.270006992199086  0.3919703753655739  0.2420597207706976  1.0000
  N   N7        1.0  0.7699944029016879  0.1080294111379416  0.74206050683744  1.0000
  N   N8        1.0  0.22999802405116307  0.8919712630474522  0.24205894909454878  1.0000
  N   N9        1.0  0.7625402507627188  0.5171364994685989  0.7755031597578607  1.0000
  N   N10       1.0  0.23747601034989438  0.4828629651029744  0.2755032135943694  1.0000
  N   N11       1.0  0.7374584482377319  0.0171372102587668  0.7755039672241678  1.0000
  N   N12       1.0  0.2625274623796443  0.9828630415744473  0.2755024061427065  1.0000
  N   N13       1.0  0.8614652987567128  0.5356789590337101  0.8390560944387244  1.0000
  N   N14       1.0  0.13854630656921788  0.4643228519323658  0.33905685771709665  1.0000
  N   N15       1.0  0.6385341514683065  0.0356773809317446  0.8390575150802062  1.0000
  N   N16       1.0  0.36145262163057623  0.9643212810352682  0.33905644583578  1.0000
  N   N17       1.0  0.1266359684903762  0.7899119057351527  0.031659149933773285  1.0000
  N   N18       1.0  0.873357219222875  0.2100914255718891  0.531660568447748  1.0000
  N   N19       1.0  0.37338697579588864  0.2899140909145573  0.0316603122808345  1.0000
  N   N20       1.0  0.6266282850177095  0.7100868786361688  0.5316589017255069  1.0000
  N   N21       1.0  0.2898319902223605  0.8521337065756783  0.6635104021231795  1.0000
  N   N22       1.0  0.7101434669421283  0.1478679596038148  0.16351117107485888  1.0000
  N   N23       1.0  0.2101662058142182  0.35213365020760534  0.6635127527154692  1.0000
  N   N24       1.0  0.7898589157993572  0.6478609306931062  0.1635098292119892  1.0000
  N   N25       1.0  0.30595111610369946  0.9308739121493942  0.6305854738183285  1.0000
  N   N26       1.0  0.6940336010240743  0.06913210607602592  0.13058767805336657  1.0000
  N   N27       1.0  0.19404207172985374  0.4308738676587963  0.6305873377724253  1.0000
  N   N28       1.0  0.8059729958899101  0.5691274270463182  0.1305868228331875  1.0000
  N   N29       1.0  0.32278787505268275  0.0077064427131361  0.5969479506777873  1.0000
  N   N30       1.0  0.6772088825288307  0.992295276827903  0.09694739766177209  1.0000
  N   N31       1.0  0.1772060969985247  0.5077057947640855  0.5969487501690693  1.0000
  N   N32       1.0  0.8228044563101237  0.4922872650263912  0.09694508507787698  1.0000
