data_image0
_chemical_formula_structural       Ca4H16C28N8O32
_chemical_formula_sum              "Ca4 H16 C28 N8 O32"
_cell_length_a       6.718444233049861
_cell_length_b       12.440639146780132
_cell_length_c       12.473915146175397
_cell_angle_alpha    111.57903321169441
_cell_angle_beta     90.00005196979302
_cell_angle_gamma    89.99957335935605

_space_group_name_H-M_alt    "P 1"
_space_group_IT_number       1

loop_
  _space_group_symop_operation_xyz
  'x, y, z'

loop_
  _atom_site_type_symbol
  _atom_site_label
  _atom_site_symmetry_multiplicity
  _atom_site_fract_x
  _atom_site_fract_y
  _atom_site_fract_z
  _atom_site_occupancy
  Ca  Ca1       1.0  0.9910305745906743  0.8454709577478141  0.4872668456398088  1.0000
  Ca  Ca2       1.0  0.49103520538648854  0.6545311058551918  0.5127348506604718  1.0000
  Ca  Ca3       1.0  0.008973180433585502  0.1545306967098625  0.5127327712073964  1.0000
  Ca  Ca4       1.0  0.5089655727581148  0.3454705486091071  0.4872647661884598  1.0000
  H   H1        1.0  0.672777203875782  0.18475957775716267  0.8083266043466253  1.0000
  H   H2        1.0  0.17277608681011003  0.3152400941371454  0.19167125299190957  1.0000
  H   H3        1.0  0.32722803957518226  0.8152448018634998  0.19167956976500017  1.0000
  H   H4        1.0  0.8272261797629243  0.6847632887131709  0.8083289627031646  1.0000
  H   H5        1.0  0.21330740211778487  0.035366168507017896  0.9528072804020835  1.0000
  H   H6        1.0  0.7133033448811975  0.46463599157075214  0.0471946621411519  1.0000
  H   H7        1.0  0.7866918876029562  0.9646328554959427  0.04718982132155271  1.0000
  H   H8        1.0  0.2866929679593114  0.5353630134984967  0.952801631156383  1.0000
  H   H9        1.0  0.15958186190340484  0.6465553970197176  0.3103197235408288  1.0000
  H   H10       1.0  0.6595804473470255  0.8534456042184145  0.689683882324516  1.0000
  H   H11       1.0  0.8404174278059389  0.35344535537256416  0.6896779770298095  1.0000
  H   H12       1.0  0.34041884238168774  0.1465526313512129  0.31031615368691934  1.0000
  H   H13       1.0  0.987563489290807  0.6720590717514694  0.23638295621641692  1.0000
  H   H14       1.0  0.48756169576427083  0.8279412599483535  0.763617336814356  1.0000
  H   H15       1.0  0.0124313351053118  0.3279408353964044  0.7636152533611237  1.0000
  H   H16       1.0  0.512439082404839  0.17205699455828946  0.23638350762404767  1.0000
  C   C1        1.0  0.22701409034579006  0.053324486105125905  0.68592448168215  1.0000
  C   C2        1.0  0.7270211605340721  0.4466794171683901  0.3140812775930896  1.0000
  C   C3        1.0  0.772992641570106  0.9466754588969482  0.3140753447441682  1.0000
  C   C4        1.0  0.27297812919351133  0.55331878052057  0.6859171415626975  1.0000
  C   C5        1.0  0.41409270429502243  0.11493207874358549  0.7013980658339561  1.0000
  C   C6        1.0  0.9140946438130727  0.3850744686421591  0.29860948364529344  1.0000
  C   C7        1.0  0.5859110507201067  0.8850713798647404  0.29860538357154803  1.0000
  C   C8        1.0  0.08590464588599642  0.6149280500201044  0.7013904326279956  1.0000
  C   C9        1.0  0.533289869779587  0.1377265424581395  0.7988914771311355  1.0000
  C   C10       1.0  0.033292585562044515  0.3622712516065647  0.20110968506608629  1.0000
  C   C11       1.0  0.46671239681395355  0.8622743614501687  0.20111269086038416  1.0000
  C   C12       1.0  0.9667096810406338  0.6377278481511083  0.7988906503671344  1.0000
  C   C13       1.0  0.4578426204314284  0.1086215384154272  0.8875569792132721  1.0000
  C   C14       1.0  0.9578426632038559  0.3913769799206647  0.11244539967719898  1.0000
  C   C15       1.0  0.5421551808608528  0.8913768107994855  0.11244790736596853  1.0000
  C   C16       1.0  0.04215513809302962  0.6086194136209642  0.8875491869211486  1.0000
  C   C17       1.0  0.27302491223263564  0.052927362885689895  0.8795360292004233  1.0000
  C   C18       1.0  0.7730256890273567  0.4470736675252027  0.1204655449922782  1.0000
  C   C19       1.0  0.7269758659364742  0.9470708916209528  0.12046481523798026  1.0000
  C   C20       1.0  0.22697360070819173  0.5529237417304245  0.8795358084513081  1.0000
  C   C21       1.0  0.1622940603950909  0.019885960526266896  0.7788146417523193  1.0000
  C   C22       1.0  0.6623005090309562  0.48011387159377955  0.2211880782481329  1.0000
  C   C23       1.0  0.8377126715333462  0.9801122939671456  0.2211862026826451  1.0000
  C   C24       1.0  0.33769282695440245  0.5198817335244357  0.7788094426405933  1.0000
  C   C25       1.0  0.9730050917558375  0.9504239098961589  0.7739184800687225  1.0000
  C   C26       1.0  0.4730047217980555  0.5495703424524905  0.22607569166049757  1.0000
  C   C27       1.0  0.027000151723093804  0.0495750762129177  0.22607700479583304  1.0000
  C   C28       1.0  0.5269960563984314  0.4504235532001958  0.7739220388047555  1.0000
  N   N1        1.0  0.5700514824518452  0.1439802703596271  0.9945507923033714  1.0000
  N   N2        1.0  0.07005543525421842  0.3560138845674316  0.005448321342114992  1.0000
  N   N3        1.0  0.42995078414682564  0.8560197504136934  0.005452267836822956  1.0000
  N   N4        1.0  0.9299483198167952  0.6439808942136266  0.9945505169727439  1.0000
  N   N5        1.0  0.48676843064888  0.15109046544284874  0.6134491793278939  1.0000
  N   N6        1.0  0.9867695323349682  0.34890967163701  0.3865545734514484  1.0000
  N   N7        1.0  0.5132353243725165  0.8489121479111362  0.3865547790819406  1.0000
  N   N8        1.0  0.013226780478170504  0.651093692286203  0.61344483381923  1.0000
  O   O1        1.0  0.13053500487805544  0.027411810067633297  0.5900152850331111  1.0000
  O   O2        1.0  0.6305448600273282  0.47259515254156526  0.4099931007200651  1.0000
  O   O3        1.0  0.86946577327452  0.9725890559633186  0.40998726610361996  1.0000
  O   O4        1.0  0.3694588950066376  0.5274047167058029  0.5900034919966686  1.0000
  O   O5        1.0  0.8882089305104801  0.9007161579647657  0.6732272961443186  1.0000
  O   O6        1.0  0.38821846773722524  0.5992821174870855  0.3267762554207252  1.0000
  O   O7        1.0  0.11179631295761545  0.0992845754739591  0.32676959599506006  1.0000
  O   O8        1.0  0.6117867757337055  0.4007187106532868  0.6732246788577783  1.0000
  O   O9        1.0  0.9112989758080804  0.9422486112458514  0.864010092156235  1.0000
  O   O10       1.0  0.41130429138248564  0.5577409953882081  0.13599367223767433  1.0000
  O   O11       1.0  0.08869584859943563  0.057749567512701105  0.1359875185743036  1.0000
  O   O12       1.0  0.5886964868151382  0.4422529381451311  0.8640056750832271  1.0000
  O   O13       1.0  0.7393880342434686  0.18356671814328257  0.9969891797784809  1.0000
  O   O14       1.0  0.23938806357632816  0.3164266651025756  0.003008929998046008  1.0000
  O   O15       1.0  0.2606053017407249  0.8164299026922277  0.003015107956336706  1.0000
  O   O16       1.0  0.7606067607804406  0.6835793103482573  0.9969921839718194  1.0000
  O   O17       1.0  0.4864078973755995  0.1321996316812033  0.07912092151754989  1.0000
  O   O18       1.0  0.9864066838491471  0.367800469125811  0.920881214823602  1.0000
  O   O19       1.0  0.5135854385920524  0.8677996006786232  0.9208850729156026  1.0000
  O   O20       1.0  0.013586652154487004  0.632191527691127  0.0791086409485189  1.0000
  O   O21       1.0  0.6693970086983826  0.1506877531347186  0.5959116096557721  1.0000
  O   O22       1.0  0.16939727672822616  0.34931030009477837  0.40408969487540247  1.0000
  O   O23       1.0  0.3306037694473575  0.8493139392102407  0.40408962404880805  1.0000
  O   O24       1.0  0.8305975476074323  0.6506991889556841  0.5959150420719296  1.0000
  O   O25       1.0  0.36667783169962587  0.18674202594154113  0.5548148572419009  1.0000
  O   O26       1.0  0.8666765494786478  0.3132585502791585  0.44518499200482603  1.0000
  O   O27       1.0  0.6333259233217706  0.8132605874124507  0.44518910116793353  1.0000
  O   O28       1.0  0.13332125177832677  0.6867438926250955  0.5548116905580187  1.0000
  O   O29       1.0  0.022911586185657005  0.6823561655838546  0.3160426941854908  1.0000
  O   O30       1.0  0.5229076786966689  0.8176463073930904  0.6839613688457077  1.0000
  O   O31       1.0  0.977089191965213  0.31764464362611033  0.683957431667764  1.0000
  O   O32       1.0  0.4770930994610369  0.1823536755028741  0.316040074439691  1.0000
