data_image0
_chemical_formula_structural       Zn2H10C32S3N6Cl8O11
_chemical_formula_sum              "Zn2 H10 C32 S3 N6 Cl8 O11"
_cell_length_a       12.686218021917705
_cell_length_b       16.149325202289052
_cell_length_c       17.251758411410446
_cell_angle_alpha    95.61186102672465
_cell_angle_beta     93.15436729667931
_cell_angle_gamma    94.66071817158932

_space_group_name_H-M_alt    "P 1"
_space_group_IT_number       1

loop_
  _space_group_symop_operation_xyz
  'x, y, z'

loop_
  _atom_site_type_symbol
  _atom_site_label
  _atom_site_symmetry_multiplicity
  _atom_site_fract_x
  _atom_site_fract_y
  _atom_site_fract_z
  _atom_site_occupancy
  Zn  Zn1       1.0  0.4974186249477484  0.4060004437319833  0.49370545682154415  1.0000
  Zn  Zn2       1.0  0.5157127921744975  0.5872317206515519  0.5034093532568205  1.0000
  H   H1        1.0  0.38926789856330396  0.7061527621611889  0.43908793587338807  1.0000
  H   H2        1.0  0.3836762636817285  0.8623089933392691  0.434298557936607  1.0000
  H   H3        1.0  0.35444265350317045  0.10107636561100719  0.38701699531414124  1.0000
  H   H4        1.0  0.5933632403450275  0.11637445496674559  0.5773611586057893  1.0000
  H   H5        1.0  0.4524132843713744  0.6071346888358207  0.2593634388756809  1.0000
  H   H6        1.0  0.4477576403575015  0.6062159125828331  0.11309026607774089  1.0000
  H   H7        1.0  0.47030796820064324  0.6583295034287389  0.8882318632234951  1.0000
  H   H8        1.0  0.48679267307262103  0.39396738126704617  0.8919914488942449  1.0000
  H   H9        1.0  0.8783371160851773  0.6332116825447044  0.48657727457217675  1.0000
  H   H10       1.0  0.0543481214530814  0.27370093827097014  0.4132683945000648  1.0000
  C   C1        1.0  0.5085153985968276  0.49442897274249725  0.3483683321890111  1.0000
  C   C2        1.0  0.30276359882189047  0.4997982885714479  0.4955909965044254  1.0000
  C   C3        1.0  0.4941269078731167  0.4992423703974325  0.6463459271397338  1.0000
  C   C4        1.0  0.7097861558094535  0.5058670534528673  0.5008997708404477  1.0000
  C   C5        1.0  0.4476284686222698  0.7515525097452241  0.4717744498829715  1.0000
  C   C6        1.0  0.4445198811650997  0.8365939558732619  0.46944857476732665  1.0000
  C   C7        1.0  0.5228563448787753  0.8908990915081247  0.5132139791359618  1.0000
  C   C8        1.0  0.6011022006778575  0.8571431677580251  0.5587531798996463  1.0000
  C   C9        1.0  0.5979770062983009  0.7692426406369536  0.5575353749054981  1.0000
  C   C10       1.0  0.4111349436371441  0.13676961437894872  0.4296284751163737  1.0000
  C   C11       1.0  0.4719556922106277  0.0974583424228257  0.48239690167574145  1.0000
  C   C12       1.0  0.5445050882811842  0.14551397587503354  0.5359634671952447  1.0000
  C   C13       1.0  0.5533526229466759  0.23159128913641064  0.534276386975264  1.0000
  C   C14       1.0  0.4267274486754573  0.22367168777923743  0.43177787656138356  1.0000
  C   C15       1.0  0.5145056843810139  0.48836781507162635  0.2607820675572795  1.0000
  C   C16       1.0  0.4787985297403878  0.5550533245319613  0.22264104585251218  1.0000
  C   C17       1.0  0.4763028522419575  0.554855742767238  0.14246172505055194  1.0000
  C   C18       1.0  0.5096982873376987  0.4863885791174524  0.09648461385749124  1.0000
  C   C19       1.0  0.5475898662096839  0.4191259173044415  0.13327131296052386  1.0000
  C   C20       1.0  0.5511306666179294  0.42016717601576664  0.21528732188289  1.0000
  C   C21       1.0  0.4748728704110902  0.5968206721155199  0.8571977338017046  1.0000
  C   C22       1.0  0.4831868731762298  0.5276456694300861  0.8991499844285253  1.0000
  C   C23       1.0  0.4838617592796409  0.44801726979339657  0.8592273069044718  1.0000
  C   C24       1.0  0.4812318427774898  0.4384719974939557  0.7783121542555659  1.0000
  C   C25       1.0  0.48108694486325027  0.5078660218732409  0.7332985298090473  1.0000
  C   C26       1.0  0.4731760226038091  0.5866353363601108  0.775913681150264  1.0000
  C   C27       1.0  0.11063333857791237  0.43282763242844163  0.5116623670536382  1.0000
  C   C28       1.0  0.9002606554845655  0.5709255169580487  0.49538710546481457  1.0000
  C   C29       1.0  0.18626555985902374  0.4979803864152005  0.5024545329643002  1.0000
  C   C30       1.0  0.8262406241488662  0.5051687799365965  0.5031129895105761  1.0000
  C   C31       1.0  0.0039025956048987934  0.5446798059883804  0.49997764161746244  1.0000
  C   C32       1.0  0.006362729751074883  0.4594443060065386  0.5108619613391949  1.0000
  S   S1        1.0  0.13005628745249004  0.5914271143122678  0.4948382706293087  1.0000
  S   S2        1.0  0.880941078627963  0.4121169957362553  0.5173740484055924  1.0000
  S   S3        1.0  0.1286911672758535  0.3268739337192343  0.5226067245489998  1.0000
  N   N1        1.0  0.5233082515044316  0.7186669076944057  0.5146684041220835  1.0000
  N   N2        1.0  0.5319019741849971  0.9785127089310138  0.514037749675779  1.0000
  N   N3        1.0  0.45666446204543837  0.0088895781651601  0.478594012673838  1.0000
  N   N4        1.0  0.494625172804774  0.27170727341506756  0.4840636950180295  1.0000
  N   N5        1.0  0.5049516911171992  0.4776599118876136  0.014706618523931105  1.0000
  N   N6        1.0  0.48954444785272944  0.5428222497976093  0.9817741613681998  1.0000
  Cl  Cl1       1.0  0.6910160325381015  0.7261347751454822  0.6115946479174779  1.0000
  Cl  Cl2       1.0  0.6970538733082565  0.9198098141877294  0.6141477216988559  1.0000
  Cl  Cl3       1.0  0.35781911621724294  0.27099461523469864  0.3637958519031199  1.0000
  Cl  Cl4       1.0  0.64596959552928  0.28856675682789057  0.597597821590419  1.0000
  Cl  Cl5       1.0  0.6032838119857828  0.3375022377327426  0.2549323559861277  1.0000
  Cl  Cl6       1.0  0.5910183877937102  0.336567910395047  0.07696796584718867  1.0000
  Cl  Cl7       1.0  0.4549225219800094  0.6763223652966913  0.7309242325019338  1.0000
  Cl  Cl8       1.0  0.4786050317512505  0.3361826903219978  0.7374213442325581  1.0000
  O   O1        1.0  0.5221149569802535  0.42914083496997085  0.3815295987389786  1.0000
  O   O2        1.0  0.4886931680815394  0.564867104989226  0.3820638420083141  1.0000
  O   O3        1.0  0.35405123484485307  0.5714129768184648  0.5133401442565596  1.0000
  O   O4        1.0  0.3398668312805242  0.4324261021743254  0.47163688649313656  1.0000
  O   O5        1.0  0.537306018334526  0.5624947904519999  0.618182376078799  1.0000
  O   O6        1.0  0.4636749848337304  0.4294968884182424  0.6079175471739187  1.0000
  O   O7        1.0  0.6583740229735043  0.43832915342016315  0.5146442466344678  1.0000
  O   O8        1.0  0.67116956511785  0.5732430719515166  0.48566012132923914  1.0000
  O   O9        1.0  0.1285726836818384  0.2863316650220469  0.4324824333562985  1.0000
  O   O10       1.0  0.2303510931047015  0.3152560277425067  0.5574662591268758  1.0000
  O   O11       1.0  0.03223340087026828  0.2933187389083187  0.5530912147435101  1.0000
