data_image0
_chemical_formula_structural       Cu2H16C18S2N10O4
_chemical_formula_sum              "Cu2 H16 C18 S2 N10 O4"
_cell_length_a       5.796249132608769
_cell_length_b       5.796229811440613
_cell_length_c       17.01938421681638
_cell_angle_alpha    89.99878576196272
_cell_angle_beta     90.00077536740804
_cell_angle_gamma    101.67150673400499

_space_group_name_H-M_alt    "P 1"
_space_group_IT_number       1

loop_
  _space_group_symop_operation_xyz
  'x, y, z'

loop_
  _atom_site_type_symbol
  _atom_site_label
  _atom_site_symmetry_multiplicity
  _atom_site_fract_x
  _atom_site_fract_y
  _atom_site_fract_z
  _atom_site_occupancy
  Cu  Cu1       1.0  0.792575569434625  0.18618358120816947  0.24999919966691653  1.0000
  Cu  Cu2       1.0  0.1861842464986623  0.79256941860757  0.7500052424690579  1.0000
  H   H1        1.0  0.779515046858421  0.800375866762451  0.12757514982699547  1.0000
  H   H2        1.0  0.8003887325824622  0.7795094207562201  0.8724154109067823  1.0000
  H   H3        1.0  0.8003613277760664  0.7794700613827247  0.6275822285760313  1.0000
  H   H4        1.0  0.7795011765109693  0.8003708076977105  0.372414795413924  1.0000
  H   H5        1.0  0.6855949510978263  0.0394271669540487  0.9623318920425843  1.0000
  H   H6        1.0  0.039439692486489264  0.6855983982517911  0.0376633041451626  1.0000
  H   H7        1.0  0.03942407799740982  0.685583156739618  0.46233319280909757  1.0000
  H   H8        1.0  0.685576498947796  0.0394086193597971  0.5376661163556518  1.0000
  H   H9        1.0  0.5352235528703843  0.3259282238943157  0.07407074521729838  1.0000
  H   H10       1.0  0.3259315324280935  0.5352482425494215  0.9259278930395066  1.0000
  H   H11       1.0  0.3258992681198336  0.5352345866008504  0.5740796754475281  1.0000
  H   H12       1.0  0.5352265562897571  0.32591517659641767  0.4259348270808231  1.0000
  H   H13       1.0  0.23914428053857514  0.4404390077951775  0.16610142723445154  1.0000
  H   H14       1.0  0.4404482922900002  0.2391570184606664  0.8338955593760742  1.0000
  H   H15       1.0  0.44040974837998453  0.23914531650501653  0.6661092302611208  1.0000
  H   H16       1.0  0.2391576955347929  0.44042756976237746  0.33389539470613977  1.0000
  C   C1        1.0  0.5981203024710878  0.6389037261693885  0.2499973552463145  1.0000
  C   C2        1.0  0.6389009177713945  0.59817089502139  0.7500010531382841  1.0000
  C   C3        1.0  0.9483946753957753  0.9191557726789201  0.11811838017995768  1.0000
  C   C4        1.0  0.9191943562768613  0.9483923606940508  0.8818778804494299  1.0000
  C   C5        1.0  0.9191482743383617  0.9484007578957686  0.6181221566110152  1.0000
  C   C6        1.0  0.9483929239994282  0.9191679158781839  0.38187762917005585  1.0000
  C   C7        1.0  0.3194554447883037  0.9801891159104487  0.0504667115136499  1.0000
  C   C8        1.0  0.9802122508655273  0.319436498786935  0.9495316589549958  1.0000
  C   C9        1.0  0.9801499473661224  0.3194308104653416  0.5504802058028346  1.0000
  C   C10       1.0  0.31941952208162416  0.9801954283662012  0.4495381415572481  1.0000
  C   C11       1.0  0.36829092454294  0.20765756289829804  0.0869236469134975  1.0000
  C   C12       1.0  0.2076452047843063  0.3682872632498046  0.9130716403397938  1.0000
  C   C13       1.0  0.2076442529952587  0.3682644811956378  0.58692764311413  1.0000
  C   C14       1.0  0.36828969863807265  0.207632861974453  0.4130793956255445  1.0000
  C   C15       1.0  0.20612046571334736  0.2688689821828802  0.1372272707867523  1.0000
  C   C16       1.0  0.2688836326321463  0.20610490274331278  0.86277219127129  1.0000
  C   C17       1.0  0.2688533249062885  0.20611244263448472  0.6372411172025138  1.0000
  C   C18       1.0  0.20612133248017273  0.2688698907171058  0.3627736214226046  1.0000
  S   S1        1.0  0.47047026136354486  0.8659815588942054  0.24999779780569747  1.0000
  S   S2        1.0  0.8659447358457796  0.47048894968200716  0.7500029000780157  1.0000
  N   N1        1.0  0.6901463666714349  0.4737601271163854  0.24999654993563772  1.0000
  N   N2        1.0  0.473781458449352  0.6901619131348368  0.7499989655335353  1.0000
  N   N3        1.0  0.9952067158329639  0.12289493538373363  0.15548436592644774  1.0000
  N   N4        1.0  0.12291524217703653  0.9951838289361346  0.8445023642088854  1.0000
  N   N5        1.0  0.12289670228642544  0.9951606308307458  0.6554967010973768  1.0000
  N   N6        1.0  0.9951932101268497  0.1228949135750739  0.3445029554598875  1.0000
  N   N7        1.0  0.0978739736670776  0.8472299945707891  0.06790954942012208  1.0000
  N   N8        1.0  0.8472210667273786  0.09786871513580311  0.9320837495107666  1.0000
  N   N9        1.0  0.8472263041885882  0.09788043463641567  0.5679042984902977  1.0000
  N   N10       1.0  0.09786431235992413  0.8472041625972083  0.43208723778550956  1.0000
  O   O1        1.0  0.4517541524709401  0.8940341734832767  0.0052008715620814995  1.0000
  O   O2        1.0  0.8940064723213155  0.4517719891328936  0.9947933574299128  1.0000
  O   O3        1.0  0.8940099833092104  0.4517185486006382  0.505204551485761  1.0000
  O   O4        1.0  0.45174969938580023  0.8940014761036322  0.4948043669757069  1.0000
