data_image0
_chemical_formula_structural       Zn2H28C46N2O12
_chemical_formula_sum              "Zn2 H28 C46 N2 O12"
_cell_length_a       11.83511579510855
_cell_length_b       14.979226834703624
_cell_length_c       15.677167599421175
_cell_angle_alpha    80.85416083083213
_cell_angle_beta     89.97612959431629
_cell_angle_gamma    75.36147448525107

_space_group_name_H-M_alt    "P 1"
_space_group_IT_number       1

loop_
  _space_group_symop_operation_xyz
  'x, y, z'

loop_
  _atom_site_type_symbol
  _atom_site_label
  _atom_site_symmetry_multiplicity
  _atom_site_fract_x
  _atom_site_fract_y
  _atom_site_fract_z
  _atom_site_occupancy
  Zn  Zn1       1.0  0.47544349700734045  0.5953675447439011  0.5179291387729847  1.0000
  Zn  Zn2       1.0  0.5192604833125215  0.4057571512992198  0.48314900900965085  1.0000
  H   H1        1.0  0.2619368456665752  0.7190597210012231  0.9488673414322263  1.0000
  H   H2        1.0  0.15924450911888482  0.7846449067934106  0.35082040058328795  1.0000
  H   H3        1.0  0.2157345552909716  0.6609981714256605  0.36008891922048036  1.0000
  H   H4        1.0  0.10814862807278296  0.7231932319891641  0.2754893933294653  1.0000
  H   H5        1.0  0.23819585937185633  0.763175102806777  0.0963226390638283  1.0000
  H   H6        1.0  0.6614712955955396  0.20560611563809775  0.9125649731468924  1.0000
  H   H7        1.0  0.3504377266944657  0.6071608753823982  0.8545828423938602  1.0000
  H   H8        1.0  0.5426711142238145  0.3600322495723773  0.15310780084709558  1.0000
  H   H9        1.0  0.7710003812438372  0.9746144671390908  0.3793078087680968  1.0000
  H   H10       1.0  0.33289338589464973  0.9963456457723299  0.6965747034279559  1.0000
  H   H11       1.0  0.4149502288243523  0.790823242463411  0.34835986565767735  1.0000
  H   H12       1.0  0.621962216406061  0.24530382195816713  0.05926005005665759  1.0000
  H   H13       1.0  0.46627579876999875  0.8932272450326267  0.3586847755737351  1.0000
  H   H14       1.0  0.5556299817910568  0.7991934601998028  0.31168133357351724  1.0000
  H   H15       1.0  0.29158302010743137  0.19402782311340872  0.4549895533805071  1.0000
  H   H16       1.0  0.30556735269995267  0.3102812622619737  0.4119281217551602  1.0000
  H   H17       1.0  0.2315541959780773  0.2917998910220947  0.5097102070206956  1.0000
  H   H18       1.0  0.3594268685144114  0.677849054541291  0.6625375794953711  1.0000
  H   H19       1.0  0.7014622801033851  0.305282596797923  0.379885939767334  1.0000
  H   H20       1.0  0.7800675005463519  0.1406115378034016  0.3509235220237485  1.0000
  H   H21       1.0  0.31329460498345413  0.8329292212288523  0.7154480114112047  1.0000
  H   H22       1.0  0.6711682189263327  0.8551865525402393  0.4403971489686995  1.0000
  H   H23       1.0  0.404613502854616  0.12374319031538758  0.6151608976558265  1.0000
  H   H24       1.0  0.45186134160703517  0.527377462270927  0.7796726191817951  1.0000
  H   H25       1.0  0.5053085910024888  0.4602368077072044  0.22376410305468397  1.0000
  H   H26       1.0  0.7208661800595807  0.3063072748610766  0.6427938480732749  1.0000
  H   H27       1.0  0.7754427951359942  0.18223496890368557  0.6641292245488515  1.0000
  H   H28       1.0  0.8222735051293171  0.2519676934922401  0.7331856719015873  1.0000
  C   C1        1.0  0.44782407026331567  0.5626405432488183  0.3401845710939497  1.0000
  C   C2        1.0  0.5745072689001345  0.3163518248136441  0.031057763161129508  1.0000
  C   C3        1.0  0.704396607655191  0.1585402903630922  0.3903162942443998  1.0000
  C   C4        1.0  0.3660877192924018  0.8216987522732638  0.6593036340169149  1.0000
  C   C5        1.0  0.6613556421190481  0.2488504833334062  0.4043692786611359  1.0000
  C   C6        1.0  0.3899193655103942  0.7371054713074019  0.6308328977089132  1.0000
  C   C7        1.0  0.5092198805334505  0.2098218604322213  0.4845348208381708  1.0000
  C   C8        1.0  0.49331921886477637  0.7902498065049741  0.5148945690261542  1.0000
  C   C9        1.0  0.5526942243220816  0.11263946410356603  0.4810143006622951  1.0000
  C   C10       1.0  0.48333552353378895  0.8776882137997221  0.5436145077440457  1.0000
  C   C11       1.0  0.6509464147459383  0.08831000186874152  0.4285143582224649  1.0000
  C   C12       1.0  0.5293354478945602  0.4293700031358797  0.662286070936581  1.0000
  C   C13       1.0  0.4108368330787895  0.8945574640513316  0.6152179981547404  1.0000
  C   C14       1.0  0.5033593013277836  0.03994502689960911  0.5258428981964088  1.0000
  C   C15       1.0  0.5399958054138092  0.9483519248864881  0.5045672361588059  1.0000
  C   C16       1.0  0.7210817763226626  0.4872659232277103  0.49760357735006266  1.0000
  C   C17       1.0  0.2741065593663662  0.5154481384215475  0.5167109496900365  1.0000
  C   C18       1.0  0.6378907872758288  0.927018781497232  0.45096063727164176  1.0000
  C   C19       1.0  0.42655216946535995  0.055197391686725425  0.5956139688245513  1.0000
  C   C20       1.0  0.6933539667258227  0.9935193930564599  0.4167630281219842  1.0000
  C   C21       1.0  0.38616105782415383  0.9843433514971808  0.6406635324376992  1.0000
  C   C22       1.0  0.8432756670874609  0.486074222942591  0.5058887774803367  1.0000
  C   C23       1.0  0.344679142258144  0.6311894033514774  0.06757629837217394  1.0000
  C   C24       1.0  0.15356419189951248  0.5109857560467361  0.5227068400850357  1.0000
  C   C25       1.0  0.9435342802122904  0.4928671145453905  0.5140711710328603  1.0000
  C   C26       1.0  0.053790571667050674  0.5016526786577915  0.5199729653169385  1.0000
  C   C27       1.0  0.4028426287085479  0.5899903410157846  0.2476587201282143  1.0000
  C   C28       1.0  0.5459094295765895  0.39392690262726393  0.7575047130089914  1.0000
  C   C29       1.0  0.2973296317778561  0.695823879975393  0.12295858890961849  1.0000
  C   C30       1.0  0.612948772602607  0.27639750862748974  0.8845728650151727  1.0000
  C   C31       1.0  0.3237257406099373  0.67678238678441  0.21114802055934942  1.0000
  C   C32       1.0  0.6054826952303995  0.30067775692585036  0.7952636181559924  1.0000
  C   C33       1.0  0.4455951703368156  0.5253136510579424  0.19326562399274388  1.0000
  C   C34       1.0  0.5618727731448839  0.3405788080298466  0.9392520816071367  1.0000
  C   C35       1.0  0.4950134295960566  0.4568666024612541  0.811407832707502  1.0000
  C   C36       1.0  0.418556707021885  0.5419971851516082  0.1039134985649568  1.0000
  C   C37       1.0  0.4987354394435073  0.4332490844939443  0.9020728319904591  1.0000
  C   C38       1.0  0.7483634492360025  0.24531121639107317  0.6940488791781618  1.0000
  C   C39       1.0  0.18419258858075668  0.7263998989194465  0.3143884201800162  1.0000
  C   C40       1.0  0.49102498978228226  0.8171212851896072  0.3602812641366028  1.0000
  C   C41       1.0  0.3028777165010012  0.26036677348840004  0.470819281657718  1.0000
  C   C42       1.0  0.46519603140797  0.47380749799423694  0.0485947873221519  1.0000
  C   C43       1.0  0.445039068985423  0.49908989780239926  0.9577852551895701  1.0000
  C   C44       1.0  0.37046272492158744  0.5889123804929002  0.9239846958218578  1.0000
  C   C45       1.0  0.5300240828674417  0.3808673971464032  0.0832664173930624  1.0000
  C   C46       1.0  0.3206136827649713  0.6518055622539267  0.97646535332985  1.0000
  N   N1        1.0  0.5637647154348427  0.2736626436934913  0.44991997199645073  1.0000
  N   N2        1.0  0.44985552869527345  0.7231762714319175  0.5580220848352297  1.0000
  O   O1        1.0  0.4208810891597563  0.6225632769130415  0.39100030884456055  1.0000
  O   O2        1.0  0.27452015910193217  0.7460636421583191  0.2585453865363192  1.0000
  O   O3        1.0  0.5487406716434148  0.7685289295899339  0.442522654933896  1.0000
  O   O4        1.0  0.4088830565995137  0.24391294697294805  0.5238380041910489  1.0000
  O   O5        1.0  0.5176373641918558  0.37205867478704147  0.6131088909474798  1.0000
  O   O6        1.0  0.5118092684782807  0.4794739549023462  0.3617264759749332  1.0000
  O   O7        1.0  0.5257414630383294  0.5154002237827982  0.638094357809301  1.0000
  O   O8        1.0  0.6507619636655376  0.5677492672328627  0.49138965054223854  1.0000
  O   O9        1.0  0.33753633200262795  0.4533578240379017  0.47800770749478966  1.0000
  O   O10       1.0  0.6962496560686232  0.4093096950448398  0.49784065589134485  1.0000
  O   O11       1.0  0.30470286774799843  0.5795574470864793  0.547655111050119  1.0000
  O   O12       1.0  0.6548592833167389  0.23106925707830336  0.7489224322827539  1.0000
