data_image0
_chemical_formula_structural       Cd2H30C50N4O14
_chemical_formula_sum              "Cd2 H30 C50 N4 O14"
_cell_length_a       9.08339904974929
_cell_length_b       11.445051581996912
_cell_length_c       11.635781896262007
_cell_angle_alpha    93.6044528709455
_cell_angle_beta     102.03723974329394
_cell_angle_gamma    103.87123609421994

_space_group_name_H-M_alt    "P 1"
_space_group_IT_number       1

loop_
  _space_group_symop_operation_xyz
  'x, y, z'

loop_
  _atom_site_type_symbol
  _atom_site_label
  _atom_site_symmetry_multiplicity
  _atom_site_fract_x
  _atom_site_fract_y
  _atom_site_fract_z
  _atom_site_occupancy
  Cd  Cd1       1.0  0.030090620112773105  0.09489539377519662  0.2940028647405768  1.0000
  Cd  Cd2       1.0  0.969883571800807  0.9051597676085947  0.7060373257103905  1.0000
  H   H1        1.0  0.15266184804818295  0.7001901757602766  0.1571065718383338  1.0000
  H   H2        1.0  0.847314460432493  0.299854106053921  0.8429144042250343  1.0000
  H   H3        1.0  0.2405142789257227  0.5136579425966162  0.20999800064843305  1.0000
  H   H4        1.0  0.7594770163019221  0.4863909939414697  0.7900239523012972  1.0000
  H   H5        1.0  0.2435081383945388  0.4505427307897348  0.41175002936896726  1.0000
  H   H6        1.0  0.756489595379854  0.5494981366513514  0.5882733408598355  1.0000
  H   H7        1.0  0.4377140490075107  0.7024079897489345  0.5859439010821603  1.0000
  H   H8        1.0  0.5622776497973305  0.2976455453120721  0.41410417382763154  1.0000
  H   H9        1.0  0.6389590112182759  0.6028492052463365  0.9206107806411836  1.0000
  H   H10       1.0  0.3610179714987467  0.3970983448927185  0.0793873489068702  1.0000
  H   H11       1.0  0.3756411257014848  0.47060495513282774  0.928686824877417  1.0000
  H   H12       1.0  0.6243290710328965  0.5293180284574178  0.07127350877227909  1.0000
  H   H13       1.0  0.1465279419014323  0.45330009436556656  0.7616143296399472  1.0000
  H   H14       1.0  0.8534523414317121  0.5466545984354526  0.23834522485535814  1.0000
  H   H15       1.0  0.8434034143200861  0.9212861332277741  0.04909509330917665  1.0000
  H   H16       1.0  0.15661947014840655  0.07874870807912521  0.9509526020777201  1.0000
  H   H17       1.0  0.6474553741459276  0.9264068351165308  0.8645531492568141  1.0000
  H   H18       1.0  0.3525883264562424  0.07359107306636048  0.1354682016037927  1.0000
  H   H19       1.0  0.647052525009144  0.2841278773741536  0.00833183374835037  1.0000
  H   H20       1.0  0.3528727019202194  0.7158552691598034  0.9916403000085836  1.0000
  H   H21       1.0  0.8373589632613232  0.26241273853401026  0.18571758512891276  1.0000
  H   H22       1.0  0.16253584773693325  0.7376018592759978  0.8142893304147166  1.0000
  H   H23       1.0  0.5687160163694145  0.9785884489846383  0.6970622027149105  1.0000
  H   H24       1.0  0.43141440555884  0.021392125373751  0.30294460640156734  1.0000
  H   H25       1.0  0.3814349894902449  0.006932262634308  0.5174782636623974  1.0000
  H   H26       1.0  0.6187169102560475  0.9929887714579738  0.4824932251197468  1.0000
  H   H27       1.0  0.25823697175532345  0.2766387196731444  0.6982377239552164  1.0000
  H   H28       1.0  0.7417453119249374  0.7232452290061886  0.30162339923352033  1.0000
  H   H29       1.0  0.42932668393024187  0.2556065879161268  0.8892877926159385  1.0000
  H   H30       1.0  0.5706333127103989  0.7443414165663641  0.1106105083813418  1.0000
  C   C1        1.0  0.06467769082004088  0.8545388701012586  0.293833711714676  1.0000
  C   C2        1.0  0.9352795439127277  0.14549162086901649  0.7061644571724629  1.0000
  C   C3        1.0  0.06929727956955388  0.7730906897350425  0.538096669658728  1.0000
  C   C4        1.0  0.9307499772341786  0.2269678173789131  0.46193660255483593  1.0000
  C   C5        1.0  0.11058183295916284  0.7051113259757857  0.4405329153805013  1.0000
  C   C6        1.0  0.8894016075360653  0.29494117116875884  0.5594948578016172  1.0000
  C   C7        1.0  0.11000006417560113  0.7409857290191295  0.3270377982505366  1.0000
  C   C8        1.0  0.8899855019962786  0.2590487107916388  0.6729875225571291  1.0000
  C   C9        1.0  0.1567697772879981  0.6715126482623788  0.245029798015608  1.0000
  C   C10       1.0  0.8432177480122007  0.32852449027885916  0.7549856867273875  1.0000
  C   C11       1.0  0.20724593088819898  0.5686207056137464  0.2749639371232178  1.0000
  C   C12       1.0  0.7927408015510409  0.43142455542316344  0.7250510445008588  1.0000
  C   C13       1.0  0.21053804877426782  0.53270345703816  0.3874388333797611  1.0000
  C   C14       1.0  0.7894655744825769  0.46733833141253467  0.6125726507272446  1.0000
  C   C15       1.0  0.16024522827885332  0.6006691850762068  0.46779843290228484  1.0000
  C   C16       1.0  0.8397345019014041  0.39937875122998173  0.5322258914184418  1.0000
  C   C17       1.0  0.2807063675905396  0.5727258073971128  0.6628886337497306  1.0000
  C   C18       1.0  0.7192874620918844  0.4272887748183365  0.3371179292863076  1.0000
  C   C19       1.0  0.42475622244473504  0.6485475203146295  0.6588400923520368  1.0000
  C   C20       1.0  0.5752397469161323  0.35148069513106617  0.341187395438844  1.0000
  C   C21       1.0  0.5520786723927459  0.6584248596512128  0.7530046351535022  1.0000
  C   C22       1.0  0.4479100263800788  0.34157705660617677  0.247011517361976  1.0000
  C   C23       1.0  0.5359110312273144  0.5930858833839351  0.8495539555881706  1.0000
  C   C24       1.0  0.4640635312218393  0.4068788125778085  0.1504448056121817  1.0000
  C   C25       1.0  0.3901747685039042  0.5200060876968138  0.8531999236742465  1.0000
  C   C26       1.0  0.6098010312934932  0.4799414052799947  0.1467825419786095  1.0000
  C   C27       1.0  0.26147171077479214  0.5092275782257476  0.7603273306584272  1.0000
  C   C28       1.0  0.7385079572596  0.490746168988359  0.23966162147841175  1.0000
  C   C29       1.0  0.7073284360424524  0.740477036967285  0.7513779469608579  1.0000
  C   C30       1.0  0.29265858339950773  0.2595158936476523  0.24865974388207954  1.0000
  C   C31       1.0  0.793986017142956  0.9988226483924554  0.03605627577516662  1.0000
  C   C32       1.0  0.20601640712528987  0.0012011049148696995  0.9639702687016581  1.0000
  C   C33       1.0  0.6851298281435447  0.0028274705563334  0.9337023524660638  1.0000
  C   C34       1.0  0.3148851501688839  0.9971828012691047  0.06630994436764581  1.0000
  C   C35       1.0  0.627980278149039  0.1057882949958895  0.9194430896231793  1.0000
  C   C36       1.0  0.3720237876907789  0.8942055472197127  0.0805458407603368  1.0000
  C   C37       1.0  0.6841837476063405  0.20052819676633502  0.012858632154539957  1.0000
  C   C38       1.0  0.31576698549602616  0.7994678518610671  0.9871218241036033  1.0000
  C   C39       1.0  0.7919163783145962  0.18969912259091612  0.11266322918311292  1.0000
  C   C40       1.0  0.20801789728068348  0.8103122084804897  0.8873412653068588  1.0000
  C   C41       1.0  0.5178100846879232  0.11670761719897628  0.8099430016427789  1.0000
  C   C42       1.0  0.48223015317581996  0.8832621081978972  0.19002970146363649  1.0000
  C   C43       1.0  0.5026125727212545  0.045980083448839096  0.7030732145784953  1.0000
  C   C44       1.0  0.49748833656094865  0.9539857079311107  0.2969124815057214  1.0000
  C   C45       1.0  0.39983097643457904  0.062374959503017614  0.6015563516402693  1.0000
  C   C46       1.0  0.6002687434689096  0.9375554978509445  0.39839954448509474  1.0000
  C   C47       1.0  0.32947564162834203  0.21180707927833003  0.7026696760825145  1.0000
  C   C48       1.0  0.6705384606330966  0.7880989005679594  0.2972125049116414  1.0000
  C   C49       1.0  0.42685437258253245  0.20045735949405952  0.8087376812851943  1.0000
  C   C50       1.0  0.5731494285622887  0.7994902042166174  0.1911839906794768  1.0000
  N   N1        1.0  0.846659345554052  0.09067748973951952  0.12450443367252721  1.0000
  N   N2        1.0  0.15330869893281834  0.9093513779709782  0.8755228842169416  1.0000
  N   N3        1.0  0.3180167940926708  0.1444626192610841  0.6020149088144606  1.0000
  N   N4        1.0  0.6820373786004836  0.855431152804883  0.3978944956491262  1.0000
  O   O1        1.0  0.03206480674289491  0.8709414189043944  0.18631534211916553  1.0000
  O   O2        1.0  0.9679067854363054  0.1290810906388487  0.8136898241665804  1.0000
  O   O3        1.0  0.06565981436973804  0.9308465515289727  0.3799347906369093  1.0000
  O   O4        1.0  0.9342644778285489  0.0691863949002922  0.6200771164008289  1.0000
  O   O5        1.0  0.9272702278656552  0.7575877250991566  0.5420932912120193  1.0000
  O   O6        1.0  0.07280246461348838  0.2424829662743022  0.4580109872104714  1.0000
  O   O7        1.0  0.18013316402482366  0.8375341810745028  0.6188583379463708  1.0000
  O   O8        1.0  0.8199222136444321  0.1625252451672736  0.38115567327786704  1.0000
  O   O9        1.0  0.7071672171179486  0.8338874927082643  0.6960143331927641  1.0000
  O   O10       1.0  0.2928375843121245  0.16610829906524321  0.3040203815292557  1.0000
  O   O11       1.0  0.829481393759508  0.7143079008792483  0.8038741622519724  1.0000
  O   O12       1.0  0.17051022888061598  0.28568514734312334  0.1961892016319666  1.0000
  O   O13       1.0  0.14834907283497503  0.5635678934768437  0.577338607926464  1.0000
  O   O14       1.0  0.8516388156326614  0.43647740148105646  0.422684297061231  1.0000
