data_image0
_chemical_formula_structural       MnH8C10N8O2
_chemical_formula_sum              "Mn1 H8 C10 N8 O2"
_cell_length_a       6.367279342123639
_cell_length_b       7.080513738424497
_cell_length_c       7.600342702432518
_cell_angle_alpha    70.5309893839068
_cell_angle_beta     80.53346080294322
_cell_angle_gamma    87.19846159801985

_space_group_name_H-M_alt    "P 1"
_space_group_IT_number       1

loop_
  _space_group_symop_operation_xyz
  'x, y, z'

loop_
  _atom_site_type_symbol
  _atom_site_label
  _atom_site_symmetry_multiplicity
  _atom_site_fract_x
  _atom_site_fract_y
  _atom_site_fract_z
  _atom_site_occupancy
  Mn  Mn1       1.0  3.1503406745994114e-06  0.9999911341136068  1.161366412820517e-05  1.0000
  H   H1        1.0  0.6683376835396189  0.373780148088663  0.9194687466646769  1.0000
  H   H2        1.0  0.33168878842854355  0.6262281597934702  0.08050422240476246  1.0000
  H   H3        1.0  0.5857903119551651  0.6199588800812206  0.791735529485429  1.0000
  H   H4        1.0  0.4142344693023859  0.3800303499186981  0.2082779780095052  1.0000
  H   H5        1.0  0.8086541519902328  0.584988300169023  0.915328109665154  1.0000
  H   H6        1.0  0.19137227714586663  0.4149944813667687  0.08464775947768291  1.0000
  H   H7        1.0  0.3224892678890185  0.30256188520568367  0.5494239058670445  1.0000
  H   H8        1.0  0.6775068914849883  0.697426961144764  0.4505712642032407  1.0000
  C   C1        1.0  0.8644430590968925  0.5161749255334696  0.6580253409282902  1.0000
  C   C2        1.0  0.135486364536014  0.48386129366194547  0.3419401192398865  1.0000
  C   C3        1.0  0.7231919512408496  0.5254515773008848  0.8304093707889352  1.0000
  C   C4        1.0  0.2767563636736057  0.47455430156382045  0.16965136412647303  1.0000
  C   C5        1.0  0.1792056858509526  0.390484723748166  0.5225536273650988  1.0000
  C   C6        1.0  0.820795448083935  0.6095483539998057  0.47736488571887037  1.0000
  C   C7        1.0  0.26160299787781593  0.8762880857923107  0.6428195361175782  1.0000
  C   C8        1.0  0.7384201860440812  0.12370876611615958  0.3572035959973832  1.0000
  C   C9        1.0  0.28395108926931567  0.9111046492599969  0.3278570389367133  1.0000
  C   C10       1.0  0.7160577528537433  0.08887855277173877  0.6721632031592434  1.0000
  N   N1        1.0  0.0480961750849431  0.40506322515140875  0.6784648708136557  1.0000
  N   N2        1.0  0.9519111834580728  0.5949237840602422  0.3214964619528544  1.0000
  N   N3        1.0  0.20424214486341444  0.9031006719422408  0.7881474392053747  1.0000
  N   N4        1.0  0.7957810832528835  0.09691562194981881  0.21186684221471808  1.0000
  N   N5        1.0  0.3409459111814216  0.8332598486778761  0.49272040695705505  1.0000
  N   N6        1.0  0.6590661140602876  0.16672945115919904  0.507305346592311  1.0000
  N   N7        1.0  0.24471335951524517  0.9697608086674379  0.17226012304491428  1.0000
  N   N8        1.0  0.755285952106725  0.0302358651668015  0.8277597469666205  1.0000
  O   O1        1.0  0.095751549138086  0.31118968511956524  0.8471153712734676  1.0000
  O   O2        1.0  0.9042365848126368  0.6887934913390552  0.1529129701059659  1.0000
