data_image0
_chemical_formula_structural       Co2H28C40N4O10
_chemical_formula_sum              "Co2 H28 C40 N4 O10"
_cell_length_a       8.972120882011586
_cell_length_b       10.140053619732766
_cell_length_c       11.28823074022701
_cell_angle_alpha    111.95454534476897
_cell_angle_beta     95.24642462833384
_cell_angle_gamma    114.82103628631283

_space_group_name_H-M_alt    "P 1"
_space_group_IT_number       1

loop_
  _space_group_symop_operation_xyz
  'x, y, z'

loop_
  _atom_site_type_symbol
  _atom_site_label
  _atom_site_symmetry_multiplicity
  _atom_site_fract_x
  _atom_site_fract_y
  _atom_site_fract_z
  _atom_site_occupancy
  Co  Co1       1.0  0.45937927537204376  0.8387377802299484  0.691286475235813  1.0000
  Co  Co2       1.0  0.5406492571809524  0.16133786915320067  0.30871839627751285  1.0000
  H   H1        1.0  0.3797105347257672  0.8093415607714435  0.4069382079606639  1.0000
  H   H2        1.0  0.6202331964667283  0.19058033209376654  0.5929971193569159  1.0000
  H   H3        1.0  0.4581463889039485  0.6795017541222634  0.2057672682830613  1.0000
  H   H4        1.0  0.5419087250192904  0.3205160502243985  0.7942116414448107  1.0000
  H   H5        1.0  0.6489804525311131  0.5606561137903869  0.22008310666648603  1.0000
  H   H6        1.0  0.3510385906584263  0.4393390397782684  0.7799137905022632  1.0000
  H   H7        1.0  0.8287583146049757  0.5059097404362518  0.37349771825752487  1.0000
  H   H8        1.0  0.1712063277895198  0.49405109758712484  0.6264622358241069  1.0000
  H   H9        1.0  0.9396711491956894  0.5460831839742397  0.6002440081914883  1.0000
  H   H10       1.0  0.060281574061825494  0.45387619399194534  0.39972256633087255  1.0000
  H   H11       1.0  0.9535349566244522  0.6650389221612516  0.852064463780806  1.0000
  H   H12       1.0  0.04640339226049413  0.33485039411419854  0.14784067558139916  1.0000
  H   H13       1.0  0.8454958005579345  0.8094428565637132  0.027055351453178392  1.0000
  H   H14       1.0  0.15439507104140668  0.19032843371864064  0.9728758110195769  1.0000
  H   H15       1.0  0.6304172529852965  0.8804007985161848  0.9627473154178998  1.0000
  H   H16       1.0  0.3695948669449437  0.11952109792746063  0.0372495946927529  1.0000
  H   H17       1.0  0.9552296879757096  0.2844824080717601  0.7790468944050986  1.0000
  H   H18       1.0  0.044870088058950215  0.7156408084200482  0.2210219404788418  1.0000
  H   H19       1.0  0.7780092663915712  0.4438560840291004  0.11752537875143788  1.0000
  H   H20       1.0  0.22209585712927568  0.5562621925099267  0.8825527707162235  1.0000
  H   H21       1.0  0.20205184506710347  0.9110254058763304  0.4095409419308352  1.0000
  H   H22       1.0  0.7979481073301997  0.0890487456402909  0.5905464229578428  1.0000
  H   H23       1.0  0.9809456870202029  0.03826326464366051  0.7273840546416608  1.0000
  H   H24       1.0  0.01903562717837581  0.9618094473363217  0.272702370661129  1.0000
  H   H25       1.0  0.2669708865108904  0.870855607122721  0.8121877664780612  1.0000
  H   H26       1.0  0.7330280803438428  0.1291087656760581  0.18781217618710136  1.0000
  H   H27       1.0  0.36247762606035394  0.813262830446888  0.8996359957238481  1.0000
  H   H28       1.0  0.6375308090117787  0.18673137791211766  0.1003314695891504  1.0000
  C   C1        1.0  0.4613715805340777  0.7557284277636641  0.41136254444509035  1.0000
  C   C2        1.0  0.5386276616672847  0.24424987226954914  0.5886005673973358  1.0000
  C   C3        1.0  0.5067472784131085  0.6822815429087825  0.2990712016339215  1.0000
  C   C4        1.0  0.49325183190100585  0.31769427937489075  0.7008945926798518  1.0000
  C   C5        1.0  0.6133615856019718  0.6169888295321828  0.3072107384663241  1.0000
  C   C6        1.0  0.3866164633042218  0.38297188175229013  0.6927705054190838  1.0000
  C   C7        1.0  0.6766075470479082  0.6261058348214094  0.43082154595050765  1.0000
  C   C8        1.0  0.32331117138165416  0.3738019326346204  0.5691425765344249  1.0000
  C   C9        1.0  0.7907223303561611  0.5679093165715943  0.45660081475716646  1.0000
  C   C10       1.0  0.20920840538268254  0.4320244184404417  0.5433482870112909  1.0000
  C   C11       1.0  0.8515344440340018  0.5893946639261998  0.5821486180189694  1.0000
  C   C12       1.0  0.14841300052842862  0.4105587799073761  0.41780136480310387  1.0000
  C   C13       1.0  0.801280617087244  0.6679524337476793  0.6926797880785428  1.0000
  C   C14       1.0  0.1986779903648  0.33199875930966277  0.30726667420996984  1.0000
  C   C15       1.0  0.860961678970277  0.7003205564936651  0.8260325148598893  1.0000
  C   C16       1.0  0.13901015714973408  0.2996126064946339  0.1739069215630451  1.0000
  C   C17       1.0  0.8011529252632031  0.7787674231539867  0.9223614181715617  1.0000
  C   C18       1.0  0.198773718274012  0.2210810107587449  0.07757932851375665  1.0000
  C   C19       1.0  0.6795285447508166  0.8213849288450419  0.8874849420348665  1.0000
  C   C20       1.0  0.32041412893085675  0.1784950143341746  0.11248461400139577  1.0000
  C   C21       1.0  0.6826571071004824  0.718327235894755  0.6666900607506463  1.0000
  C   C22       1.0  0.31727903470473257  0.2816148987568852  0.3332738316396798  1.0000
  C   C23       1.0  0.6238853638777687  0.7009803428935516  0.5384405019933567  1.0000
  C   C24       1.0  0.3760578565232038  0.2989691065458473  0.46152995415300774  1.0000
  C   C25       1.0  0.6874845354885722  0.1826550658392208  0.8824135055340534  1.0000
  C   C26       1.0  0.31259929181643314  0.8174236813125122  0.11759372077982273  1.0000
  C   C27       1.0  0.8487691921843634  0.34674605945845366  0.9416195898147632  1.0000
  C   C28       1.0  0.15131837984756688  0.6533906852381225  0.05842999054565466  1.0000
  C   C29       1.0  0.9750324122291618  0.3790575661657984  0.8758090873442582  1.0000
  C   C30       1.0  0.02507658933963355  0.6210705866260612  0.12426387503718665  1.0000
  C   C31       1.0  0.8757683617777307  0.4698692092137051  0.06631039209287336  1.0000
  C   C32       1.0  0.12433301799521258  0.5302637965116261  0.9337574930418028  1.0000
  C   C33       1.0  0.20611055758399052  0.9370391869530368  0.6610297626748787  1.0000
  C   C34       1.0  0.7938695914123531  0.06299598333855272  0.3390365858353448  1.0000
  C   C35       1.0  0.10178942650000543  0.970268378549257  0.5770981079277461  1.0000
  C   C36       1.0  0.8981713235342784  0.02976162912971601  0.42297128229668596  1.0000
  C   C37       1.0  0.11189348495398137  0.9477335122201184  0.44860771600970384  1.0000
  C   C38       1.0  0.8881013351075852  0.052339342356894705  0.5514806084523015  1.0000
  C   C39       1.0  0.9893223821903093  0.023056746830782508  0.6279143855907278  1.0000
  C   C40       1.0  0.010670413788204772  0.9770209394983881  0.37217545544433495  1.0000
  N   N1        1.0  0.5175952689671067  0.7643981083476137  0.5297530669028133  1.0000
  N   N2        1.0  0.48241375315841856  0.23562147331779937  0.4702320224866768  1.0000
  N   N3        1.0  0.6186117360382543  0.7895858273215242  0.7611648816188676  1.0000
  N   N4        1.0  0.3813630039369117  0.21037715160701254  0.23882576485470958  1.0000
  O   O1        1.0  0.6602790559930938  0.0817297303458773  0.762389831760025  1.0000
  O   O2        1.0  0.33982370507912685  0.9184129211153903  0.23759907708998887  1.0000
  O   O3        1.0  0.5878740643747308  0.1536255953217207  0.9529835529012728  1.0000
  O   O4        1.0  0.41221548795952884  0.8463849921403721  0.04701925436422968  1.0000
  O   O5        1.0  0.29887450495274964  0.8780132677025635  0.6052398661718994  1.0000
  O   O6        1.0  0.7011925502325553  0.12212938368671193  0.39480496452554087  1.0000
  O   O7        1.0  0.19492645189734512  0.9650304784774875  0.777933449101091  1.0000
  O   O8        1.0  0.8050428936885724  0.03494367388331201  0.2221262118823333  1.0000
  O   O9        1.0  0.3183935977288076  0.7951038935434983  0.8056499905437987  1.0000
  O   O10       1.0  0.6816277921532647  0.20487836248580044  0.19431163285473468  1.0000
