data_image0
_chemical_formula_structural       Cu4H44C48N8O24
_chemical_formula_sum              "Cu4 H44 C48 N8 O24"
_cell_length_a       8.600474661698307
_cell_length_b       13.212787463425595
_cell_length_c       15.259549262690948
_cell_angle_alpha    115.6450866376653
_cell_angle_beta     95.83172522894634
_cell_angle_gamma    90.00173644337472

_space_group_name_H-M_alt    "P 1"
_space_group_IT_number       1

loop_
  _space_group_symop_operation_xyz
  'x, y, z'

loop_
  _atom_site_type_symbol
  _atom_site_label
  _atom_site_symmetry_multiplicity
  _atom_site_fract_x
  _atom_site_fract_y
  _atom_site_fract_z
  _atom_site_occupancy
  Cu  Cu1       1.0  0.46252284669632354  0.9953126568141922  0.5788593533004444  1.0000
  Cu  Cu2       1.0  0.03744874534216789  0.41647240118336265  0.4211190824883814  1.0000
  Cu  Cu3       1.0  0.5374759596144614  0.0046897125138017  0.4211436122173423  1.0000
  Cu  Cu4       1.0  0.9625610522671195  0.5835198825903305  0.578876138159309  1.0000
  H   H1        1.0  0.0527330565953079  0.8617280863051064  0.289826740288902  1.0000
  H   H2        1.0  0.4471135857097651  0.5717356210042722  0.7101848024127192  1.0000
  H   H3        1.0  0.9472648248504923  0.1382776556375873  0.710180051209143  1.0000
  H   H4        1.0  0.5528802742213372  0.42826253624934923  0.2898163287065429  1.0000
  H   H5        1.0  0.9744962764260378  0.9694049603931915  0.3895257206089226  1.0000
  H   H6        1.0  0.5254783455419128  0.5798961114658425  0.6105660800674428  1.0000
  H   H7        1.0  0.0255098888283456  0.030602475794879097  0.6104814937861107  1.0000
  H   H8        1.0  0.47452398809734586  0.42010627443480775  0.38943904839538124  1.0000
  H   H9        1.0  0.1725875382853488  0.132117521909386  0.89491428359495  1.0000
  H   H10       1.0  0.32744174388960795  0.23741157081065012  0.10499262627846662  1.0000
  H   H11       1.0  0.8274069826413707  0.8678730631824365  0.10508210037059484  1.0000
  H   H12       1.0  0.6725626217430757  0.7625874161008283  0.8950028281803171  1.0000
  H   H13       1.0  0.2146603637736462  0.7459416719094775  0.4128458579713338  1.0000
  H   H14       1.0  0.28532240376801343  0.3330774377864643  0.5871720243379527  1.0000
  H   H15       1.0  0.7853466317816  0.2540607169488426  0.5871582130149305  1.0000
  H   H16       1.0  0.7146673143497396  0.6669299274422471  0.4128264101146613  1.0000
  H   H17       1.0  0.09694804649110009  0.6648422122125197  0.3016044440751884  1.0000
  H   H18       1.0  0.40301056632397797  0.3631843445953534  0.6984076817027967  1.0000
  H   H19       1.0  0.9030497937660796  0.3351635105909523  0.698398406019578  1.0000
  H   H20       1.0  0.5969773949033764  0.6368129604391158  0.3015928133959989  1.0000
  H   H21       1.0  0.9801060551196557  0.8552854938385366  0.4814508293195487  1.0000
  H   H22       1.0  0.5198565164183789  0.37383959861730176  0.5185557367737202  1.0000
  H   H23       1.0  0.0199035558572831  0.144721105615325  0.5185556048035309  1.0000
  H   H24       1.0  0.48014707383160277  0.6261644611428849  0.48144811629820333  1.0000
  H   H25       1.0  0.8698752297817194  0.7844492481372428  0.3657525957779981  1.0000
  H   H26       1.0  0.6301099369559111  0.4186262932753166  0.6342381793442371  1.0000
  H   H27       1.0  0.1301239692864158  0.2155590114022418  0.634253892844491  1.0000
  H   H28       1.0  0.36988275483514593  0.5813710466155159  0.36576782728345597  1.0000
  H   H29       1.0  0.32810289790827335  0.1482836300400621  0.7697049335138217  1.0000
  H   H30       1.0  0.17183949071590376  0.37871503380037547  0.23016463784053798  1.0000
  H   H31       1.0  0.671896583127669  0.8517111735058692  0.23029459865135493  1.0000
  H   H32       1.0  0.8281636793176544  0.621283122988835  0.7698330645245051  1.0000
  H   H33       1.0  0.3749629488886939  0.8049944094206084  0.6323647876214693  1.0000
  H   H34       1.0  0.1247503253558975  0.17268011007440986  0.367459615976891  1.0000
  H   H35       1.0  0.6250482143963155  0.1950004142789652  0.3676347284544832  1.0000
  H   H36       1.0  0.8752669532201837  0.8273189280338897  0.6325417985787282  1.0000
  H   H37       1.0  0.22102955809677377  0.7728550288990235  0.748835376473231  1.0000
  H   H38       1.0  0.27886798365759796  0.0241832963750142  0.2510614667950293  1.0000
  H   H39       1.0  0.7789757606313188  0.22713978312879146  0.2511638191970604  1.0000
  H   H40       1.0  0.7211397804155836  0.9758140164447298  0.7489335486775558  1.0000
  H   H41       1.0  0.0864277488938541  0.8485404180222175  0.8967163276415704  1.0000
  H   H42       1.0  0.4133257332424591  0.9519871314520922  0.10329597083097741  1.0000
  H   H43       1.0  0.9135670290374662  0.1514543634268293  0.10328032059688749  1.0000
  H   H44       1.0  0.5866761115326541  0.0480093195788882  0.8966964379195088  1.0000
  C   C1        1.0  0.05382503805079611  0.6342779956149515  0.42342401425175064  1.0000
  C   C2        1.0  0.44613251225646183  0.2108156276365492  0.5766035157962789  1.0000
  C   C3        1.0  0.9461792742064006  0.3657193357206977  0.5765760641818075  1.0000
  C   C4        1.0  0.5538531515654056  0.7891825068968713  0.4233958529539592  1.0000
  C   C5        1.0  0.051719412122160704  0.8981967825327218  0.3695516111514933  1.0000
  C   C6        1.0  0.44823506593957063  0.5285641284334375  0.630468499173979  1.0000
  C   C7        1.0  0.9482839348527604  0.1018030872499693  0.6304532914486102  1.0000
  C   C8        1.0  0.5517697069513403  0.4714399400408383  0.3695367317801654  1.0000
  C   C9        1.0  0.21561923763709956  0.0580827190952675  0.8374710568371382  1.0000
  C   C10       1.0  0.2843393053668208  0.22079011117190106  0.162427575881587  1.0000
  C   C11       1.0  0.7843813108813364  0.9419104088801049  0.16252856508011604  1.0000
  C   C12       1.0  0.715668493030215  0.7792072175971895  0.8375707240937302  1.0000
  C   C13       1.0  0.2164130802144868  0.9438863103582733  0.41774218173474503  1.0000
  C   C14       1.0  0.2835653275278389  0.5260842111506747  0.5822384758719892  1.0000
  C   C15       1.0  0.7835834157326218  0.0561160670604934  0.5822632832229715  1.0000
  C   C16       1.0  0.7164345119415928  0.4739164666573996  0.41776129489514346  1.0000
  C   C17       1.0  0.0938801765673105  0.7140609688509869  0.3805147409946414  1.0000
  C   C18       1.0  0.406084609675851  0.33349500032000623  0.6195028436886858  1.0000
  C   C19       1.0  0.9061211437362785  0.28594393316762995  0.6194906133309104  1.0000
  C   C20       1.0  0.5939001285097021  0.6665073218565496  0.38049541145223736  1.0000
  C   C21       1.0  0.9887810568920372  0.8133894906761014  0.4025650669175888  1.0000
  C   C22       1.0  0.5111949581800275  0.41079183237226863  0.5974420178332734  1.0000
  C   C23       1.0  0.011221263017674205  0.1866128888448132  0.5974387477441424  1.0000
  C   C24       1.0  0.48879661807513486  0.5892071607600401  0.402559300738524  1.0000
  C   C25       1.0  0.30249066758891263  0.0671613768848331  0.7692210703809932  1.0000
  C   C26       1.0  0.19743632479939072  0.2980821769552833  0.2306602051570223  1.0000
  C   C27       1.0  0.6975133464750555  0.9328317389543627  0.23077480237638065  1.0000
  C   C28       1.0  0.8025668993809988  0.701916820381321  0.7693378128228191  1.0000
  C   C29       1.0  0.32878356224065897  0.8752333112998445  0.6920253808758687  1.0000
  C   C30       1.0  0.17106326400079297  0.18333187679919397  0.3078576099872521  1.0000
  C   C31       1.0  0.6712229253988155  0.12476150306233083  0.3079738788755506  1.0000
  C   C32       1.0  0.828944527531476  0.8166654487800286  0.6921400330875185  1.0000
  C   C33       1.0  0.24305255306985882  0.8580758419211351  0.7574503096179869  1.0000
  C   C34       1.0  0.2568347771969925  0.1007931404571778  0.24245302898210497  1.0000
  C   C35       1.0  0.756951359565221  0.1419155960131491  0.24254558881033006  1.0000
  C   C36       1.0  0.7431740474939161  0.8992024936021322  0.7575414193420115  1.0000
  C   C37       1.0  0.18524714062493086  0.9510879750354493  0.8324877297634002  1.0000
  C   C38       1.0  0.31466252145683177  0.11878200955808178  0.16742627430900106  1.0000
  C   C39       1.0  0.8147547323806066  0.0489076737265819  0.1675122461788376  1.0000
  C   C40       1.0  0.6853464794041031  0.8812161525231446  0.832570434660603  1.0000
  C   C41       1.0  0.09863311664945941  0.9339865596793544  0.9025321383759675  1.0000
  C   C42       1.0  0.40131498762471546  0.03161367774819011  0.09746228927615157  1.0000
  C   C43       1.0  0.9013683971512448  0.06600402984896192  0.09746265937473453  1.0000
  C   C44       1.0  0.5986918378539413  0.9683870013065106  0.9025352383755987  1.0000
  C   C45       1.0  0.6630032749153685  0.2744639714721089  0.8303160243220447  1.0000
  C   C46       1.0  0.8368398785667422  0.44447846714982103  0.16985062996667466  1.0000
  C   C47       1.0  0.3369805727290469  0.7255417392685005  0.16968934130186145  1.0000
  C   C48       1.0  0.16314413606892228  0.5555322135081369  0.8301415206334681  1.0000
  N   N1        1.0  0.3599776574057287  0.9777871374152624  0.69786679324676  1.0000
  N   N2        1.0  0.139862939296016  0.2800330875090538  0.30199201042855606  1.0000
  N   N3        1.0  0.6400290605506099  0.022211045516222303  0.30213504276495934  1.0000
  N   N4        1.0  0.8601484062524563  0.7199650824307401  0.6980054836038647  1.0000
  N   N5        1.0  0.0378646680895827  0.0171051343044368  0.9702493979957082  1.0000
  N   N6        1.0  0.46219054272225424  0.0469030669620309  0.0297066597483209  1.0000
  N   N7        1.0  0.9621290629535507  0.9828913322847866  0.029749131192311002  1.0000
  N   N8        1.0  0.5378304995925802  0.9531001745065453  0.9702952113235951  1.0000
  O   O1        1.0  0.010277739116936913  0.6764877974835316  0.5089054700147955  1.0000
  O   O2        1.0  0.4898277850046924  0.1676112691858975  0.4911539445498505  1.0000
  O   O3        1.0  0.9897605600410841  0.3235104580450496  0.4911000668891319  1.0000
  O   O4        1.0  0.5101583722320768  0.8323952484923682  0.5088439820445672  1.0000
  O   O5        1.0  0.2464871552826224  0.9606895284447745  0.5064133146854316  1.0000
  O   O6        1.0  0.2535045109040368  0.45424151883565145  0.493560841179537  1.0000
  O   O7        1.0  0.7535192532468216  0.03932209772077751  0.49359285018141447  1.0000
  O   O8        1.0  0.7465089903856139  0.5457734197281852  0.5064338326223776  1.0000
  O   O9        1.0  0.0723146501797416  0.530253154117858  0.3705865623142088  1.0000
  O   O10       1.0  0.4275170352860016  0.15957903329852738  0.6293976241647313  1.0000
  O   O11       1.0  0.9276601876103356  0.469741555748513  0.6294024275395316  1.0000
  O   O12       1.0  0.5724744250393954  0.8404190905775621  0.37059746668734317  1.0000
  O   O13       1.0  0.3121370045974531  0.959843459829742  0.36577225592780854  1.0000
  O   O14       1.0  0.18782603526373978  0.5939652321602723  0.6342197079885068  1.0000
  O   O15       1.0  0.6878533074108759  0.0401546712816057  0.6342247415447771  1.0000
  O   O16       1.0  0.8121680883548733  0.40601701444488475  0.3657873147405084  1.0000
  O   O17       1.0  0.6754260213980459  0.34404292493724853  0.8024688282731843  1.0000
  O   O18       1.0  0.8242624173187493  0.5418855803254345  0.19779838307818653  1.0000
  O   O19       1.0  0.3245474280671132  0.6559644522687265  0.19753790565123105  1.0000
  O   O20       1.0  0.17569436610845196  0.45812080881690775  0.8021834896758975  1.0000
  O   O21       1.0  0.6520010278276089  0.2071742101438403  0.8607267061754555  1.0000
  O   O22       1.0  0.8479294551279253  0.34677935892393214  0.13930409638234661  1.0000
  O   O23       1.0  0.3479940147444225  0.7928239558238772  0.1392758028260275  1.0000
  O   O24       1.0  0.1520794597582125  0.6532356117708104  0.8606988608021453  1.0000
