data_image0
_chemical_formula_structural       Zn3H32C16S2N6O16
_chemical_formula_sum              "Zn3 H32 C16 S2 N6 O16"
_cell_length_a       8.417064074735045
_cell_length_b       9.465282327804578
_cell_length_c       9.578892632363827
_cell_angle_alpha    107.89691319754901
_cell_angle_beta     115.81269917766129
_cell_angle_gamma    90.2666972971755

_space_group_name_H-M_alt    "P 1"
_space_group_IT_number       1

loop_
  _space_group_symop_operation_xyz
  'x, y, z'

loop_
  _atom_site_type_symbol
  _atom_site_label
  _atom_site_symmetry_multiplicity
  _atom_site_fract_x
  _atom_site_fract_y
  _atom_site_fract_z
  _atom_site_occupancy
  Zn  Zn1       1.0  0.19274668587993918  0.5152947489645143  0.8286733903853046  1.0000
  Zn  Zn2       1.0  0.8072541888274926  0.4847046769163086  0.17132318856984344  1.0000
  Zn  Zn3       1.0  0.49999832471235806  1.9297229557006075e-06  0.4999982911136626  1.0000
  H   H1        1.0  0.5083339669631926  0.0563482112338463  0.1807361227541548  1.0000
  H   H2        1.0  0.4916662424842855  0.943654571120689  0.819264372396205  1.0000
  H   H3        1.0  0.3424292834134732  0.0405777742641007  0.9791749044296337  1.0000
  H   H4        1.0  0.6575698245242164  0.9594261272843453  0.02082656095634406  1.0000
  H   H5        1.0  0.11211615450118728  0.0829500660158189  0.07300918906730658  1.0000
  H   H6        1.0  0.8878838394365188  0.9170515849995836  0.9269919181345329  1.0000
  H   H7        1.0  0.21439803237604585  0.9254214150475446  0.11514443949239699  1.0000
  H   H8        1.0  0.7856019615616603  0.07458023596785779  0.8848566677094425  1.0000
  H   H9        1.0  0.4601988524278936  0.45800643233726374  0.34522259816086615  1.0000
  H   H10       1.0  0.5397958642786023  0.5419952145445776  0.6547775405799638  1.0000
  H   H11       1.0  0.590824683933576  0.3215224489103504  0.4060229444323937  1.0000
  H   H12       1.0  0.40917222098455136  0.6784836910259242  0.5939804614248414  1.0000
  H   H13       1.0  0.36274967864291335  0.33526737969301473  0.5039594296117754  1.0000
  H   H14       1.0  0.6372465745156147  0.6647353916243262  0.49604164233736725  1.0000
  H   H15       1.0  0.19122547727383216  0.32448545445565447  0.30599083785885733  1.0000
  H   H16       1.0  0.8087731983367519  0.675516190764142  0.6940108091144593  1.0000
  H   H17       1.0  0.002992625480679592  0.10327414830592116  0.25566301784693474  1.0000
  H   H18       1.0  0.9970082544570429  0.8967252521764306  0.7443377311707662  1.0000
  H   H19       1.0  0.14893021589146116  0.16482031760797608  0.47049211766362475  1.0000
  H   H20       1.0  0.8510667051421734  0.8351790845364205  0.5295071231215902  1.0000
  H   H21       1.0  0.9864143922506726  0.8981558324216151  0.3563950045260565  1.0000
  H   H22       1.0  0.013582313273189995  0.10184243838364175  0.6436048483106447  1.0000
  H   H23       1.0  0.10009875723171287  0.8437230912349134  0.2370910799321065  1.0000
  H   H24       1.0  0.8998983806192554  0.15627743589899973  0.7629085913172557  1.0000
  H   H25       1.0  0.5143407593861724  0.2863926400800239  0.12677442440586614  1.0000
  H   H26       1.0  0.48566077492628756  0.713610116322023  0.8732307435512038  1.0000
  H   H27       1.0  0.30113473814605374  0.29184074006297317  0.07498286189898096  1.0000
  H   H28       1.0  0.6988665741187745  0.7081609167480348  0.9250177055313812  1.0000
  H   H29       1.0  0.2582124521076494  0.8021663881812982  0.4844167010641413  1.0000
  H   H30       1.0  0.7417877599549668  0.19783638147400492  0.5155858791174879  1.0000
  H   H31       1.0  0.27037663979799476  0.9780296279838294  0.5999945567183856  1.0000
  H   H32       1.0  0.7296213640147611  0.021975405457766297  0.40000579387194773  1.0000
  C   C1        1.0  0.0405573454175254  0.43025096919889444  0.016015797041099115  1.0000
  C   C2        1.0  0.9594573712832213  0.5697451899123536  0.9839662554258979  1.0000
  C   C3        1.0  0.9388844130911523  0.42734103288876907  0.47997832820746567  1.0000
  C   C4        1.0  0.061118937220513175  0.5726436897168694  0.5200271758780131  1.0000
  C   C5        1.0  0.3822722017184219  0.09108093187054317  0.1111914596994125  1.0000
  C   C6        1.0  0.617726690709503  0.9089218383387702  0.888810617738052  1.0000
  C   C7        1.0  0.23643134764311205  0.048063515638311585  0.14894077919436197  1.0000
  C   C8        1.0  0.7635668943327898  0.9519358796024514  0.8510600068506516  1.0000
  C   C9        1.0  0.45630141810498503  0.3381414333062621  0.3291521705650949  1.0000
  C   C10       1.0  0.5436948389762647  0.6618613189622238  0.670852028930966  1.0000
  C   C11       1.0  0.31721501190925483  0.2854925293527088  0.3706026032544754  1.0000
  C   C12       1.0  0.6827823453741999  0.714509110071482  0.6293995834903183  1.0000
  C   C13       1.0  0.12733194931028177  0.08489803742682507  0.35041611868649614  1.0000
  C   C14       1.0  0.8726654066656038  0.915103608346982  0.649585025542656  1.0000
  C   C15       1.0  0.1096187884552221  0.9260884481502952  0.35073660402204576  1.0000
  C   C16       1.0  0.8903768142512902  0.0739109481984954  0.6492631765346458  1.0000
  S   S1        1.0  0.46366469487811907  0.26595899511605836  0.8144664909283463  1.0000
  S   S2        1.0  0.5363383693485132  0.7340449174695818  0.18553439765884844  1.0000
  N   N1        1.0  0.41387442287434334  0.2570168561692299  0.15403695012601298  1.0000
  N   N2        1.0  0.5861271101305404  0.7429859065824401  0.8459671753154222  1.0000
  N   N3        1.0  0.2822990590840462  0.12009959275526681  0.3249259892541474  1.0000
  N   N4        1.0  0.7176978658723029  0.8798997903402748  0.6750763790779785  1.0000
  N   N5        1.0  0.27018881514803883  0.9121233273850817  0.49153372261584827  1.0000
  N   N6        1.0  0.729809860462545  0.0878783178347149  0.5084679243574683  1.0000
  O   O1        1.0  0.3852764284621557  0.4005775447244416  0.7795742920513503  1.0000
  O   O2        1.0  0.6147288492446278  0.5994240786764279  0.2204329961896859  1.0000
  O   O3        1.0  0.5554005320634872  0.21086594691026758  0.7104540116703078  1.0000
  O   O4        1.0  0.444605150086737  0.7891447277577012  0.28954787741468363  1.0000
  O   O5        1.0  0.3234368942081928  0.1485413143670442  0.7824636758640579  1.0000
  O   O6        1.0  0.676573002432349  0.8514569762965536  0.21753703435170726  1.0000
  O   O7        1.0  0.6001698417612076  0.309048635381714  0.9933821994379668  1.0000
  O   O8        1.0  0.39983718398465845  0.6909552628426496  0.006622282412983723  1.0000
  O   O9        1.0  0.9875713091866771  0.3649865386682975  0.08799898635128046  1.0000
  O   O10       1.0  0.012428941644827792  0.6350027236551552  0.9120004762644952  1.0000
  O   O11       1.0  0.1571595790523332  0.39097171234836026  0.9662450264988678  1.0000
  O   O12       1.0  0.8428397844715787  0.6090198068577591  0.03375375178541147  1.0000
  O   O13       1.0  0.9630068018110548  0.3833997923717476  0.599178987501574  1.0000
  O   O14       1.0  0.03699144320462717  0.6165929285733254  0.4008072083150365  1.0000
  O   O15       1.0  0.8232317024984325  0.3632384665572984  0.3308242639472423  1.0000
  O   O16       1.0  0.17675360567922374  0.6367418585367302  0.6691573448729569  1.0000
