data_image0
_chemical_formula_structural       Co3H78C126N18
_chemical_formula_sum              "Co3 H78 C126 N18"
_cell_length_a       9.34987752666419
_cell_length_b       19.104510119134762
_cell_length_c       19.10921752486643
_cell_angle_alpha    117.40437010377462
_cell_angle_beta     99.40810241174147
_cell_angle_gamma    99.3769998218897

_space_group_name_H-M_alt    "P 1"
_space_group_IT_number       1

loop_
  _space_group_symop_operation_xyz
  'x, y, z'

loop_
  _atom_site_type_symbol
  _atom_site_label
  _atom_site_symmetry_multiplicity
  _atom_site_fract_x
  _atom_site_fract_y
  _atom_site_fract_z
  _atom_site_occupancy
  Co  Co1       1.0  4.559146659998818e-07  3.7607976964000128e-06  0.5000003678901663  1.0000
  Co  Co2       1.0  0.5000010936368255  0.49999806219210535  0.5000024134083249  1.0000
  Co  Co3       1.0  2.7570625036485717e-06  0.4999980280856634  0.9999967275901512  1.0000
  H   H1        1.0  0.1618481883783076  0.0261960609828193  0.23149469740550901  1.0000
  H   H2        1.0  0.9311451297960999  0.7687923342040506  0.7948015659866742  1.0000
  H   H3        1.0  0.1359202171597929  0.2052060161987441  0.9738975575506147  1.0000
  H   H4        1.0  0.838154387320948  0.9738117036898188  0.7685071447490018  1.0000
  H   H5        1.0  0.06885580828976148  0.2312056282478494  0.20520400725808233  1.0000
  H   H6        1.0  0.864089386596703  0.7947919457509657  0.026103472777983028  1.0000
  H   H7        1.0  0.5699118666850254  0.14604267727322906  0.5025501071321159  1.0000
  H   H8        1.0  0.06765575080383719  0.4974608622728952  0.6434720039206568  1.0000
  H   H9        1.0  0.42370541135112927  0.3567968443931804  0.8543214470216187  1.0000
  H   H10       1.0  0.43009070973932506  0.8539650874501562  0.4974522584113004  1.0000
  H   H11       1.0  0.9323456616025538  0.5025358750033249  0.35653513647043417  1.0000
  H   H12       1.0  0.5762916464669487  0.6431998916116941  0.14567226316053467  1.0000
  H   H13       1.0  0.7515045578439797  0.23156325626443675  0.6579300729899558  1.0000
  H   H14       1.0  0.0940503686285794  0.34209381537284855  0.5736669612431058  1.0000
  H   H15       1.0  0.5198318735798892  0.4262637302690564  0.7685577697199194  1.0000
  H   H16       1.0  0.24849601614766215  0.768442670440031  0.34207181039943907  1.0000
  H   H17       1.0  0.9059496518648658  0.6579023091115345  0.4263387396081342  1.0000
  H   H18       1.0  0.480165043688345  0.5737305550285471  0.23143532466099273  1.0000
  H   H19       1.0  0.8250945847120903  0.18348347757301298  0.7844848948472674  1.0000
  H   H20       1.0  0.0405026536517425  0.21564891248885942  0.39899565798845066  1.0000
  H   H21       1.0  0.6413006145402919  0.6010410432849868  0.8166351220932884  1.0000
  H   H22       1.0  0.17489672238479415  0.8165169345652289  0.2155100490762508  1.0000
  H   H23       1.0  0.9595038159615402  0.7843557890939865  0.6010087477942182  1.0000
  H   H24       1.0  0.3586986136834938  0.3989556928734502  0.18336033099877377  1.0000
  H   H25       1.0  0.8503141934040813  0.31295870656523317  0.9138740427436218  1.0000
  H   H26       1.0  0.9359902759187053  0.0862752556590181  0.39900660521903575  1.0000
  H   H27       1.0  0.5374488274120993  0.6011199071491548  0.6872235527083391  1.0000
  H   H28       1.0  0.14967958754564142  0.6870423182132583  0.08612085692465148  1.0000
  H   H29       1.0  0.06400999825129353  0.9137300588125116  0.6009996822800263  1.0000
  H   H30       1.0  0.4625425316306674  0.3988719276408759  0.31277058756889187  1.0000
  H   H31       1.0  0.19623988278041793  0.44258900559430703  0.8740624816921072  1.0000
  H   H32       1.0  0.3218371414919901  0.12584583912092742  0.568357457315827  1.0000
  H   H33       1.0  0.7537706024265488  0.4315864785945749  0.5576515220495893  1.0000
  H   H34       1.0  0.8037540632418966  0.5574101811158415  0.12593158517645978  1.0000
  H   H35       1.0  0.6781600475802919  0.8741576374325177  0.43164930843541804  1.0000
  H   H36       1.0  0.24621967105081682  0.5684053560932939  0.442341485078238  1.0000
  H   H37       1.0  0.1854482950289835  0.3189252289367914  0.7430435563976661  1.0000
  H   H38       1.0  0.4423330449540259  0.2568659580081416  0.5758602876072275  1.0000
  H   H39       1.0  0.8664446970083121  0.4241587220516081  0.6812857332434278  1.0000
  H   H40       1.0  0.8145475143263994  0.6810733451865119  0.2569514236014784  1.0000
  H   H41       1.0  0.5576692583467279  0.743136905858947  0.42414660361161804  1.0000
  H   H42       1.0  0.13355592167821578  0.5758386267971572  0.31871011261068105  1.0000
  H   H43       1.0  0.24812958353602  0.2117951384350363  0.8109348472535984  1.0000
  H   H44       1.0  0.43748561904729394  0.18903223454148588  0.4009543738624047  1.0000
  H   H45       1.0  0.03562436144527226  0.5993338974732154  0.7883721754139686  1.0000
  H   H46       1.0  0.7518658755020411  0.7882114009050413  0.18906638727929714  1.0000
  H   H47       1.0  0.5625151561412736  0.810967566130998  0.5990536023487537  1.0000
  H   H48       1.0  0.9643748667785135  0.40066283868522135  0.21162327767809336  1.0000
  H   H49       1.0  0.4329639087218453  0.11384833200717989  0.7686878772242736  1.0000
  H   H50       1.0  0.6643449532310228  0.23128358159055304  0.34516712545163847  1.0000
  H   H51       1.0  0.31857212965277176  0.6550439988255051  0.8861934355027759  1.0000
  H   H52       1.0  0.5670329415040529  0.8861588200739733  0.23131427345956743  1.0000
  H   H53       1.0  0.3356524254365922  0.7687137681189428  0.6548373588989522  1.0000
  H   H54       1.0  0.6814250917876948  0.3449508990095255  0.11379839510187406  1.0000
  H   H55       1.0  0.6406672008536775  0.053558327480224904  0.2809432786467738  1.0000
  H   H56       1.0  0.3603522603370308  0.7191514613548547  0.7726654813809617  1.0000
  H   H57       1.0  0.587333288727443  0.2274330468788577  0.9465315176500938  1.0000
  H   H58       1.0  0.35933829559580494  0.9464531132295874  0.7190594414441663  1.0000
  H   H59       1.0  0.6396489833712665  0.280847113735966  0.22733987486532942  1.0000
  H   H60       1.0  0.4126692141893927  0.7725594003537141  0.053461175789145506  1.0000
  H   H61       1.0  0.4077155875842707  0.06051047392369921  0.20344561851474202  1.0000
  H   H62       1.0  0.2051129871215168  0.7968236468720138  0.8571289949299017  1.0000
  H   H63       1.0  0.34759517744008417  0.14290508162172702  0.9395604655357346  1.0000
  H   H64       1.0  0.5922848184343722  0.9394972906461236  0.7965550041187586  1.0000
  H   H65       1.0  0.7948877829913529  0.20317615344523432  0.14287531755895347  1.0000
  H   H66       1.0  0.652410559825519  0.8570916548451634  0.06043864611937265  1.0000
  H   H67       1.0  0.1530405336115948  0.9872810647541358  0.33898835402546035  1.0000
  H   H68       1.0  0.8144388784427149  0.6611293317709652  0.6484265016055774  1.0000
  H   H69       1.0  0.16570373350926101  0.3516148203031761  0.012727208802680056  1.0000
  H   H70       1.0  0.8469651300857777  0.0127285380395747  0.6610151034324832  1.0000
  H   H71       1.0  0.1855600586606272  0.3388667927635112  0.35157963626296146  1.0000
  H   H72       1.0  0.8343041690863516  0.6483819159620553  0.98726998204004  1.0000
  H   H73       1.0  0.38604868081304744  0.9822901080933522  0.41709118594111083  1.0000
  H   H74       1.0  0.9691296816996273  0.5829218115133088  0.5652836508610621  1.0000
  H   H75       1.0  0.4035507987607189  0.43480517299413185  0.017794832083502923  1.0000
  H   H76       1.0  0.6139591265919935  0.017723783477286807  0.5829138928609795  1.0000
  H   H77       1.0  0.030869562476354397  0.41707492576158245  0.43472331678680837  1.0000
  H   H78       1.0  0.5964533973409019  0.5651884993646946  0.982195943563717  1.0000
  C   C1        1.0  0.2645193224447695  0.023433065708673005  0.2654447825953312  1.0000
  C   C2        1.0  0.9997324387782599  0.7347610305960471  0.7580842239188784  1.0000
  C   C3        1.0  0.24128564039652636  0.2419487194486153  0.9766468244551163  1.0000
  C   C4        1.0  0.7354841730222007  0.9765765370837232  0.7345585021193913  1.0000
  C   C5        1.0  0.00026663597453337764  0.2652375444427051  0.24192043619530074  1.0000
  C   C6        1.0  0.7587222658245879  0.7580480170703511  0.02335298333210303  1.0000
  C   C7        1.0  0.7291135130944255  0.06694555215612041  0.4827182624871186  1.0000
  C   C8        1.0  0.24670814243312128  0.5173126787188879  0.5842779058848182  1.0000
  C   C9        1.0  0.6621556039472268  0.4158628187118084  0.9332486741729868  1.0000
  C   C10       1.0  0.2708876699667897  0.933061599673941  0.5172816167386501  1.0000
  C   C11       1.0  0.7532935734204075  0.4826846710440051  0.41572744734110506  1.0000
  C   C12       1.0  0.3378434801012134  0.5841314664856301  0.066743546173335  1.0000
  C   C13       1.0  0.6684625186800731  0.1337342493874871  0.5282657672119769  1.0000
  C   C14       1.0  0.140575784669096  0.4717646762620049  0.6055176681558408  1.0000
  C   C15       1.0  0.5346503145517688  0.39465424354880707  0.8665152624945663  1.0000
  C   C16       1.0  0.33153835875869936  0.8662722898036535  0.47173432901225015  1.0000
  C   C17       1.0  0.8594256255619895  0.528232060861967  0.39448790206854056  1.0000
  C   C18       1.0  0.46534690833890124  0.6053406543877174  0.13347761488787313  1.0000
  C   C19       1.0  0.760405190700503  0.17697365577931376  0.6061956313378047  1.0000
  C   C20       1.0  0.1546494983008273  0.39384713255676473  0.5708514778459204  1.0000
  C   C21       1.0  0.5833488036572092  0.42914808410569083  0.8231490961001883  1.0000
  C   C22       1.0  0.23959399210330193  0.8230316581840783  0.3938053359006518  1.0000
  C   C23       1.0  0.8453497444249576  0.6061496046166325  0.429154443024153  1.0000
  C   C24       1.0  0.41664641752584697  0.5708449758626628  0.1768438225171424  1.0000
  C   C25       1.0  0.8776404733310131  0.13670211987184192  0.6081879622773627  1.0000
  C   C26       1.0  0.2698192707607348  0.39185290012747487  0.5285807076259418  1.0000
  C   C27       1.0  0.7409012107209564  0.4713479662442523  0.8633518030859976  1.0000
  C   C28       1.0  0.12235809605260779  0.8633019686614672  0.3918118687913151  1.0000
  C   C29       1.0  0.7301808895574669  0.6081456750134322  0.4714250856376411  1.0000
  C   C30       1.0  0.2590978747776802  0.5286463190546798  0.1366414640381209  1.0000
  C   C31       1.0  0.9974485244646869  0.16568379901627847  0.6770321078833136  1.0000
  C   C32       1.0  0.320588632091237  0.3229566473416909  0.4886488382874106  1.0000
  C   C33       1.0  0.8315458352558454  0.5113035656030579  0.8344192555579542  1.0000
  C   C34       1.0  0.0025472647185580113  0.8343190641871132  0.32296746105018315  1.0000
  C   C35       1.0  0.6794170900779195  0.677044378560531  0.5113585260243455  1.0000
  C   C36       1.0  0.16845572554583296  0.488691332437611  0.16557501408872352  1.0000
  C   C37       1.0  0.0039078091672522085  0.2408964030290193  0.7531789328438309  1.0000
  C   C38       1.0  0.2507062223889349  0.2468129487162187  0.487671289884709  1.0000
  C   C39       1.0  0.762708098788508  0.512254967737917  0.759228661259158  1.0000
  C   C40       1.0  0.9960873658707144  0.759105234693543  0.24681897653098173  1.0000
  C   C41       1.0  0.7492984142148202  0.7531880770838484  0.5123349412776436  1.0000
  C   C42       1.0  0.23728973679723708  0.4877411555779432  0.2407648289041618  1.0000
  C   C43       1.0  0.908306430153161  0.23998920443904134  0.8021743249654706  1.0000
  C   C44       1.0  0.10599308411625688  0.1978862280705727  0.4377520977841344  1.0000
  C   C45       1.0  0.6680958408931092  0.5622354822698059  0.760151706064683  1.0000
  C   C46       1.0  0.09168735297185986  0.7600118204916909  0.19782214486949806  1.0000
  C   C47       1.0  0.8940106074719408  0.8021172483346035  0.5622536160300485  1.0000
  C   C48       1.0  0.3319019968679343  0.43776064119829533  0.23984335426533226  1.0000
  C   C49       1.0  0.9223280731738727  0.31177680044915956  0.8740980116341746  1.0000
  C   C50       1.0  0.0478955624665502  0.1259815343001733  0.43759315353560174  1.0000
  C   C51       1.0  0.6105324196406628  0.5624562312372846  0.6883949727167719  1.0000
  C   C52       1.0  0.07766648626861893  0.6882236116910717  0.125897191404171  1.0000
  C   C53       1.0  0.9521051831235852  0.8740225547926812  0.5624126075541939  1.0000
  C   C54       1.0  0.3894620252249227  0.4375374415215703  0.31159921269718893  1.0000
  C   C55       1.0  0.11533968673050052  0.3840482147042295  0.8522829472172759  1.0000
  C   C56       1.0  0.2627684077603832  0.1476779775506145  0.5316406954089317  1.0000
  C   C57       1.0  0.7312948996678516  0.46832385761454287  0.6161573604570024  1.0000
  C   C58       1.0  0.8846564289724201  0.6159509721087347  0.14771233917230842  1.0000
  C   C59       1.0  0.7372323385548467  0.8523261115929868  0.46836558906976933  1.0000
  C   C60       1.0  0.26869815400988983  0.5316692024032366  0.38383590880601304  1.0000
  C   C61       1.0  0.10912071151643236  0.3151700053214272  0.7794275895247226  1.0000
  C   C62       1.0  0.3295713442258759  0.22052709810775892  0.5356809831934443  1.0000
  C   C63       1.0  0.7937833673404668  0.46427365314676194  0.685004958029495  1.0000
  C   C64       1.0  0.8908767946492304  0.6848297941818727  0.22056808962690166  1.0000
  C   C65       1.0  0.6704320439151843  0.7794757658107373  0.46432651778590645  1.0000
  C   C66       1.0  0.20621385700040668  0.5357212448912565  0.31498896613075555  1.0000
  C   C67       1.0  0.1141996589154388  0.12914070365356173  0.6791482298688365  1.0000
  C   C68       1.0  0.43510494459825116  0.3207838698984419  0.4499635052706808  1.0000
  C   C69       1.0  0.9847522449371411  0.5500979480644261  0.8709668050010182  1.0000
  C   C70       1.0  0.8857953517750374  0.8708627721880904  0.32085103569458095  1.0000
  C   C71       1.0  0.5648979966454277  0.6792159306231227  0.5500430735169887  1.0000
  C   C72       1.0  0.015250092907109533  0.44989633723648836  0.1290267212379277  1.0000
  C   C73       1.0  0.23607331968871387  0.1595575716334992  0.7515894336759601  1.0000
  C   C74       1.0  0.484625477562112  0.24836094443584505  0.4079866715284767  1.0000
  C   C75       1.0  0.07600920405559453  0.5922091226828314  0.8405722306549495  1.0000
  C   C76       1.0  0.7639233885371368  0.8404471296388962  0.2484110544288428  1.0000
  C   C77       1.0  0.5153752954511576  0.751638856084398  0.5920197345159792  1.0000
  C   C78       1.0  0.9239894092978176  0.4077863879440217  0.15942103948953712  1.0000
  C   C79       1.0  0.32885504557989975  0.1096902971138647  0.7305210840966937  1.0000
  C   C80       1.0  0.598376601456799  0.2694316918636801  0.37915927422071155  1.0000
  C   C81       1.0  0.21873232574762372  0.620999479122915  0.8903687008961755  1.0000
  C   C82       1.0  0.6711427474862575  0.8903144042099386  0.26948001376861447  1.0000
  C   C83       1.0  0.4016229439910219  0.7305656577456432  0.6208443360952958  1.0000
  C   C84       1.0  0.7812659805331492  0.3789954187635233  0.10962373946897948  1.0000
  C   C85       1.0  0.26355160247469206  0.0484107687373765  0.645285158060439  1.0000
  C   C86       1.0  0.6181627208816424  0.3546527221487211  0.40306792764976523  1.0000
  C   C87       1.0  0.21496423697446693  0.5969578398641104  0.9515780097293032  1.0000
  C   C88       1.0  0.7364492764142911  0.9515957705552652  0.3547159849415993  1.0000
  C   C89       1.0  0.381835740450974  0.6453446274599415  0.5969355962946353  1.0000
  C   C90       1.0  0.7850370153043756  0.4030364453346493  0.04841438336023176  1.0000
  C   C91       1.0  0.6689975987059711  0.011706979185156298  0.3989636472608069  1.0000
  C   C92       1.0  0.2702697013918964  0.6010557748587004  0.6127906048301172  1.0000
  C   C93       1.0  0.6573264602030946  0.3873156989896883  0.9884425487930316  1.0000
  C   C94       1.0  0.33100511609293204  0.9883032360932521  0.6010377639171482  1.0000
  C   C95       1.0  0.7297301511285641  0.39894218749103777  0.38721383526522873  1.0000
  C   C96       1.0  0.34267340161301274  0.6126779735187358  0.01154945153445659  1.0000
  C   C97       1.0  0.5291886955680241  0.017247604265932595  0.3541109224043169  1.0000
  C   C98       1.0  0.17542304888299048  0.6459210736519128  0.6632141594717994  1.0000
  C   C99       1.0  0.5119973012555475  0.3369149314178159  0.9828919118746172  1.0000
  C   C100      1.0  0.47081741357654033  0.9827650618232225  0.6458924104674965  1.0000
  C   C101      1.0  0.8245771099850004  0.35407750138749355  0.33679058701397935  1.0000
  C   C102      1.0  0.48800659212403014  0.6630781285050845  0.01710117432666898  1.0000
  C   C103      1.0  0.5331707881905743  0.0389011234699197  0.29329842465527634  1.0000
  C   C104      1.0  0.24042626072784404  0.7067978157871124  0.7456723935662739  1.0000
  C   C105      1.0  0.4944480471427042  0.25442657421322684  0.9612093470620879  1.0000
  C   C106      1.0  0.46683393194144446  0.9611109300303938  0.7067055622323012  1.0000
  C   C107      1.0  0.7595758991226733  0.2932025971697173  0.25433178829572983  1.0000
  C   C108      1.0  0.5055553777171512  0.7455677112913365  0.038786359104065735  1.0000
  C   C109      1.0  0.4020576443152777  0.0422245608944252  0.2494613841845776  1.0000
  C   C110      1.0  0.15328573782073815  0.7507339488727068  0.7928467404615631  1.0000
  C   C111      1.0  0.36010044724940127  0.20721239788792906  0.9578615268622032  1.0000
  C   C112      1.0  0.5979450719338218  0.9577856544854768  0.7505410737711744  1.0000
  C   C113      1.0  0.8467175061449765  0.2492664640847835  0.20715752777204  1.0000
  C   C114      1.0  0.6399060670587673  0.7927837258392072  0.04213684138517947  1.0000
  C   C115      1.0  0.2593338105475311  0.0019951733919754003  0.3258576970521005  1.0000
  C   C116      1.0  0.9339143013374666  0.674258690410852  0.6762404644894888  1.0000
  C   C117      1.0  0.2573717488958351  0.32381092025392627  0.9980601756915776  1.0000
  C   C118      1.0  0.7406730799901952  0.9980168802619077  0.6741480327453787  1.0000
  C   C119      1.0  0.06608633040085718  0.32573865935138  0.32376480236482763  1.0000
  C   C120      1.0  0.7426344568895047  0.6761845906313013  0.0019363159986624451  1.0000
  C   C121      1.0  0.39083656352599405  0.9994284316254891  0.37025553125177885  1.0000
  C   C122      1.0  0.020885933221862316  0.6297911626652706  0.6292608442076073  1.0000
  C   C123      1.0  0.39137323098411503  0.3708318691155341  0.0006678890821518849  1.0000
  C   C124      1.0  0.6091715509516861  0.0005860726855715002  0.6297503773296569  1.0000
  C   C125      1.0  0.97911469779136  0.3702061870462074  0.3707438992578035  1.0000
  C   C126      1.0  0.6086315807129737  0.6291630288256302  0.999325592901542  1.0000
  N   N1        1.0  0.8572617475544675  0.0689050815308221  0.532461815948878  1.0000
  N   N2        1.0  0.3250931311988338  0.46757525158897545  0.5364996125632615  1.0000
  N   N3        1.0  0.7883756622343726  0.4634980386932597  0.9311749943627915  1.0000
  N   N4        1.0  0.14273960057933988  0.9311002322309038  0.4675372304771842  1.0000
  N   N5        1.0  0.6749056386566252  0.5324227108616028  0.46350578793828123  1.0000
  N   N6        1.0  0.211623423264264  0.5364962466056724  0.06881827276133379  1.0000
  N   N7        1.0  0.13054494443188958  0.060379513653167315  0.6142760176911963  1.0000
  N   N8        1.0  0.5162127175338326  0.3856466785405601  0.4460442821192885  1.0000
  N   N9        1.0  0.07004987056352255  0.5539782410500108  0.9396602477310837  1.0000
  N   N10       1.0  0.8694544027193984  0.939623962191135  0.38572359335864814  1.0000
  N   N11       1.0  0.4837882183767234  0.6143512837590919  0.5539597209587656  1.0000
  N   N12       1.0  0.9299502983252169  0.44601604419882795  0.06033258237574314  1.0000
  N   N13       1.0  0.023591900060537786  0.3829451145177245  0.8992335462338518  1.0000
  N   N14       1.0  0.12397467338321633  0.10079278536008468  0.4835811674512271  1.0000
  N   N15       1.0  0.6407177852984703  0.5164357419260455  0.6172661257426882  1.0000
  N   N16       1.0  0.9764052990324857  0.6170540722451533  0.10076130313844088  1.0000
  N   N17       1.0  0.8760259085845233  0.8992131419026065  0.5164264732160717  1.0000
  N   N18       1.0  0.35927079354391384  0.48355486753406757  0.38272775239936163  1.0000
