data_image0
_chemical_formula_structural       Mn2H32C16N24O4
_chemical_formula_sum              "Mn2 H32 C16 N24 O4"
_cell_length_a       5.412564762220606
_cell_length_b       11.763646947098072
_cell_length_c       11.78189135214799
_cell_angle_alpha    89.656236482034
_cell_angle_beta     101.95851332805464
_cell_angle_gamma    90.22088795387474

_space_group_name_H-M_alt    "P 1"
_space_group_IT_number       1

loop_
  _space_group_symop_operation_xyz
  'x, y, z'

loop_
  _atom_site_type_symbol
  _atom_site_label
  _atom_site_symmetry_multiplicity
  _atom_site_fract_x
  _atom_site_fract_y
  _atom_site_fract_z
  _atom_site_occupancy
  Mn  Mn1       1.0  2.035388384100338e-06  0.4999974231039487  0.5000024223724181  1.0000
  Mn  Mn2       1.0  3.790942933799999e-06  1.6983156711999994e-06  3.743253173999997e-07  1.0000
  H   H1        1.0  0.2814718767796265  0.2887851850594743  0.660995513212626  1.0000
  H   H2        1.0  0.7278374924213226  0.77535602627384  0.8300484397322234  1.0000
  H   H3        1.0  0.7185323451749214  0.7112167068782398  0.3390106801218522  1.0000
  H   H4        1.0  0.2721669131924783  0.22465013220949  0.16995181612615076  1.0000
  H   H5        1.0  0.6672118092986494  0.48899395708056637  0.7075026501813823  1.0000
  H   H6        1.0  0.3571628322853471  0.9688792349747785  0.7874175288493459  1.0000
  H   H7        1.0  0.33276618688549314  0.5110003269840817  0.2924899052003482  1.0000
  H   H8        1.0  0.6428436101456754  0.031121842714284798  0.21257530868002306  1.0000
  H   H9        1.0  0.7884349357656861  0.28218373144324  0.9527073426890452  1.0000
  H   H10       1.0  0.19891101264273917  0.7786124303375175  0.5291724548263516  1.0000
  H   H11       1.0  0.21154663940994567  0.7178122279520878  0.04729405401705119  1.0000
  H   H12       1.0  0.8010876571653185  0.22138268205854666  0.4708264139976847  1.0000
  H   H13       1.0  0.6211410895006254  0.40939674577037977  0.9047585461319014  1.0000
  H   H14       1.0  0.37805279909657236  0.9016335698380542  0.580224601157475  1.0000
  H   H15       1.0  0.37884630633811867  0.59060007700549  0.09523748939353989  1.0000
  H   H16       1.0  0.6219630218131018  0.09836749628856008  0.419771722861661  1.0000
  H   H17       1.0  0.17945982530449098  0.3980156582426701  0.031075888194642694  1.0000
  H   H18       1.0  0.8099980519938442  0.9013644123120625  0.46866279396318317  1.0000
  H   H19       1.0  0.8205142102795834  0.6019896489942198  0.9689272682302175  1.0000
  H   H20       1.0  0.19000824916820852  0.09863240342838246  0.5313342876424726  1.0000
  H   H21       1.0  0.9210495848850825  0.42768203766588886  0.09658165590278135  1.0000
  H   H22       1.0  0.05586810948801709  0.9331764182032525  0.39570757980579424  1.0000
  H   H23       1.0  0.07890937166944671  0.5723215814526837  0.9034182971288797  1.0000
  H   H24       1.0  0.9441325335134324  0.06681870245341058  0.6042880914966344  1.0000
  H   H25       1.0  0.4267435081229039  0.39967650308022235  0.45446152276544877  1.0000
  H   H26       1.0  0.5663555926662979  0.8887487727470924  0.05269141790179788  1.0000
  H   H27       1.0  0.5732570288644324  0.6003237020343163  0.5455400627441874  1.0000
  H   H28       1.0  0.43364691751443735  0.11125144062804536  0.9473069700862308  1.0000
  H   H29       1.0  0.1920453025102091  0.3167691753687761  0.4135959241644541  1.0000
  H   H30       1.0  0.8000306757905875  0.8079180920990581  0.09277418937809043  1.0000
  H   H31       1.0  0.8079609350472127  0.6832301814513569  0.586404537894765  1.0000
  H   H32       1.0  0.19997366623778123  0.19208805948878188  0.9072286065799986  1.0000
  C   C1        1.0  0.13483502634838368  0.3272081906564351  0.6982845149566614  1.0000
  C   C2        1.0  0.8762136143500854  0.8135365797977059  0.7927405070889009  1.0000
  C   C3        1.0  0.8651691532158735  0.6727936966842802  0.3017233717776263  1.0000
  C   C4        1.0  0.1238001697807647  0.18646447117281173  0.2072615545515645  1.0000
  C   C5        1.0  0.8220492882789403  0.4296947373061997  0.7188398187656089  1.0000
  C   C6        1.0  0.19499775773567762  0.9126303528621732  0.7732476709250091  1.0000
  C   C7        1.0  0.1779379662716352  0.5703003714962305  0.281161301189968  1.0000
  C   C8        1.0  0.8050067609316898  0.0873741192296933  0.22674750896463539  1.0000
  C   C9        1.0  0.8090500366049368  0.37005967743599644  0.9241892141412361  1.0000
  C   C10       1.0  0.18750401983129455  0.8645673503678494  0.5632021784227985  1.0000
  C   C11       1.0  0.1909372814926797  0.6299405342122809  0.07581104642230939  1.0000
  C   C12       1.0  0.8125116951218561  0.1354311562910908  0.43679753874202726  1.0000
  C   C13       1.0  0.9911408969205624  0.43736475974400674  0.01578416917678279  1.0000
  C   C14       1.0  0.0005678801802346985  0.9384982983438233  0.4800920431456958  1.0000
  C   C15       1.0  0.008821730503079593  0.5626362980401183  0.9842195555565851  1.0000
  C   C16       1.0  0.9994326780406341  0.06149681311885049  0.5199070149563524  1.0000
  N   N1        1.0  0.8956227600890685  0.3655562496682803  0.8145104425396636  1.0000
  N   N2        1.0  0.1124606665070473  0.854154706057727  0.6752302701347401  1.0000
  N   N3        1.0  0.10436268373222651  0.6344431151206678  0.18548878416132197  1.0000
  N   N4        1.0  0.8875437815354346  0.1458463610722376  0.3247666116161412  1.0000
  N   N5        1.0  0.09478235412632331  0.3001354735465255  0.8027988230509704  1.0000
  N   N6        1.0  0.9076871941618807  0.7907295018451064  0.6861449857926586  1.0000
  N   N7        1.0  0.9052124187054887  0.6998655729669276  0.19720642600879756  1.0000
  N   N8        1.0  0.09232283435768102  0.20926900531551237  0.31385501023802925  1.0000
  N   N9        1.0  0.9709628852127992  0.40850520481668434  0.6430522481551859  1.0000
  N   N10       1.0  0.049374191680534814  0.8893261774714527  0.8494482372702733  1.0000
  N   N11       1.0  0.02904140034637951  0.5914941460413417  0.3569505647257287  1.0000
  N   N12       1.0  0.9506340543635333  0.11067743806540876  0.15054901669056156  1.0000
  N   N13       1.0  0.2908405780940556  0.5867869710898147  0.5979050651327424  1.0000
  N   N14       1.0  0.6946405154300238  0.08614747951681065  0.8863693612759531  1.0000
  N   N15       1.0  0.7091636721526768  0.4132106772872674  0.4020985986787905  1.0000
  N   N16       1.0  0.3053640103151878  0.9138552946911033  0.11362497614450005  1.0000
  N   N17       1.0  0.33778953318135047  0.6045042016030492  0.7010621745736144  1.0000
  N   N18       1.0  0.6530653994589599  0.10878383063977277  0.7843553408198712  1.0000
  N   N19       1.0  0.6622146322656094  0.3954959855552147  0.2989457163913797  1.0000
  N   N20       1.0  0.3469425640087778  0.8912163569502095  0.21565208200124172  1.0000
  N   N21       1.0  0.39691707073280474  0.6240858182469109  0.8006735840612789  1.0000
  N   N22       1.0  0.6061671173954792  0.13061586216493024  0.6850130374944142  1.0000
  N   N23       1.0  0.603075820783232  0.3759109833408018  0.19932979289743705  1.0000
  N   N24       1.0  0.39383556232720446  0.8693869175733724  0.31497941724821726  1.0000
  O   O1        1.0  0.2549966105801715  0.380247887098868  0.4687215219741318  1.0000
  O   O2        1.0  0.7342396720927765  0.868897456750119  0.03498143582179127  1.0000
  O   O3        1.0  0.7450057795075367  0.6197506146013294  0.5312811037441278  1.0000
  O   O4        1.0  0.2657665936992474  0.13110530043491758  0.9650190177760078  1.0000
