data_image0
_chemical_formula_structural       Cd2H20C20N8O8
_chemical_formula_sum              "Cd2 H20 C20 N8 O8"
_cell_length_a       5.203982189041717
_cell_length_b       8.405773267422202
_cell_length_c       12.369843494452509
_cell_angle_alpha    93.86878140947503
_cell_angle_beta     89.9999117444897
_cell_angle_gamma    90.00057596326145

_space_group_name_H-M_alt    "P 1"
_space_group_IT_number       1

loop_
  _space_group_symop_operation_xyz
  'x, y, z'

loop_
  _atom_site_type_symbol
  _atom_site_label
  _atom_site_symmetry_multiplicity
  _atom_site_fract_x
  _atom_site_fract_y
  _atom_site_fract_z
  _atom_site_occupancy
  Cd  Cd1       1.0  4.7037900000000015e-11  4.7790287852e-06  1.0012471705000004e-06  1.0000
  Cd  Cd2       1.0  0.49999676924637976  0.49999436546181647  0.49999753070677866  1.0000
  H   H1        1.0  0.5765782286834735  0.31143652770054325  0.9927592320776033  1.0000
  H   H2        1.0  0.07658329154814679  0.18855976518545958  0.50723541817883  1.0000
  H   H3        1.0  0.42342876115011296  0.6885630117472913  0.0072427329374563  1.0000
  H   H4        1.0  0.9234102469094477  0.8114253790458147  0.49275869009060375  1.0000
  H   H5        1.0  0.7005688532021423  0.5937666138968325  0.8914627282690407  1.0000
  H   H6        1.0  0.20058965882531507  0.9062341680202904  0.6085325060112297  1.0000
  H   H7        1.0  0.299428528592415  0.40623174287501485  0.10853999748203344  1.0000
  H   H8        1.0  0.7994038796983604  0.093758246426539  0.39147159689618166  1.0000
  H   H9        1.0  0.26409002847851326  0.24171131934916446  0.816614354535382  1.0000
  H   H10       1.0  0.764082383473763  0.2583086181999548  0.6833899472725877  1.0000
  H   H11       1.0  0.7359150399048388  0.7583037011015037  0.18338661815018756  1.0000
  H   H12       1.0  0.23590923344967513  0.7416836800453479  0.31660444961595874  1.0000
  H   H13       1.0  0.34320529224131485  0.515213133370473  0.7508897846911964  1.0000
  H   H14       1.0  0.8432097688284157  0.9847979369432025  0.7491121836983512  1.0000
  H   H15       1.0  0.6567920897062293  0.48480075282415674  0.2491159929044288  1.0000
  H   H16       1.0  0.15678953452785288  0.015195563339716498  0.25088307012494243  1.0000
  H   H17       1.0  0.15866932302238007  0.6751651858659571  0.8112451265299686  1.0000
  H   H18       1.0  0.6586668422668963  0.8248461779572266  0.6887546205243709  1.0000
  H   H19       1.0  0.8413165292600341  0.3248450651937205  0.18875565375158496  1.0000
  H   H20       1.0  0.34132093145516507  0.17514737071394387  0.3112446774786975  1.0000
  C   C1        1.0  0.7360256805527641  0.3408314857846122  0.9412765143735842  1.0000
  C   C2        1.0  0.23603201190337586  0.1591727707346422  0.5587231418002789  1.0000
  C   C3        1.0  0.26397938769877527  0.6591704480146275  0.05872635568336902  1.0000
  C   C4        1.0  0.7639615265995516  0.8408171912577488  0.4412752030562147  1.0000
  C   C5        1.0  0.7916613981020789  0.4778406790051833  0.8911619296155638  1.0000
  C   C6        1.0  0.29166685191543  0.0221578586878906  0.6088358210203709  1.0000
  C   C7        1.0  0.20832637584501873  0.522175533741155  0.10883909118041404  1.0000
  C   C8        1.0  0.7083209217697543  0.9778321420232529  0.39116575917847046  1.0000
  C   C9        1.0  0.0918147916958389  0.2966314609802935  0.8510126677281635  1.0000
  C   C10       1.0  0.5918176247101101  0.2033840585614186  0.6489892098895214  1.0000
  C   C11       1.0  0.908192198293719  0.7033835401087316  0.14898668728664435  1.0000
  C   C12       1.0  0.40817591381740215  0.7966082687376571  0.3510076135031214  1.0000
  C   C13       1.0  0.14666390706111093  0.5573103801651272  0.7669138715770887  1.0000
  C   C14       1.0  0.6466617994530353  0.942704494400793  0.7330852211694111  1.0000
  C   C15       1.0  0.8533353965053508  0.44270465963811734  0.23308871878087706  1.0000
  C   C16       1.0  0.353337503937979  0.0572926022575757  0.2669117946329821  1.0000
  C   C17       1.0  0.008529630896511299  0.5828438436144268  0.6595276272999373  1.0000
  C   C18       1.0  0.5085172667888854  0.917164418185976  0.840471342505609  1.0000
  C   C19       1.0  0.9914754373580195  0.41715802240322825  0.340469580912199  1.0000
  C   C20       1.0  0.4914839582278034  0.08283514061443503  0.15953224018184645  1.0000
  N   N1        1.0  0.9250913302998  0.22890445873694176  0.9157170798684151  1.0000
  N   N2        1.0  0.42508448950152194  0.2711007082281612  0.5842840330619625  1.0000
  N   N3        1.0  0.07491373796446509  0.7710986480325558  0.08428422062163324  1.0000
  N   N4        1.0  0.5749090489899586  0.7288880517447254  0.4157134548565083  1.0000
  N   N5        1.0  0.017010136113448496  0.4477918751103118  0.8345926417788763  1.0000
  N   N6        1.0  0.5170214607204854  0.05221375318814131  0.6654089146791335  1.0000
  N   N7        1.0  0.982991088902814  0.5522076933731839  0.16541174974355508  1.0000
  N   N8        1.0  0.48297207782862733  0.947781007199211  0.33459204909448204  1.0000
  O   O1        1.0  0.14550802331812918  0.6380477017697571  0.5858611546615862  1.0000
  O   O2        1.0  0.6454925407129649  0.8619660040295117  0.9141403174762818  1.0000
  O   O3        1.0  0.8545008880970711  0.36194945300974973  0.4141407141465551  1.0000
  O   O4        1.0  0.35452405711388474  0.1380299100162645  0.08585745905067203  1.0000
  O   O5        1.0  0.7689028428834918  0.5565925373998438  0.6549643636076328  1.0000
  O   O6        1.0  0.2689048686176534  0.9434121435564079  0.845030956828808  1.0000
  O   O7        1.0  0.23109838211244954  0.4434045689461356  0.3450334610289121  1.0000
  O   O8        1.0  0.7311174941515117  0.0565969830344741  0.15497543717896894  1.0000
