data_image0
_chemical_formula_structural       Cd2H46C56N10O18
_chemical_formula_sum              "Cd2 H46 C56 N10 O18"
_cell_length_a       9.726517748351204
_cell_length_b       10.324580735530079
_cell_length_c       14.555053156889471
_cell_angle_alpha    79.77269890363664
_cell_angle_beta     72.00663173532998
_cell_angle_gamma    82.23613555999798

_space_group_name_H-M_alt    "P 1"
_space_group_IT_number       1

loop_
  _space_group_symop_operation_xyz
  'x, y, z'

loop_
  _atom_site_type_symbol
  _atom_site_label
  _atom_site_symmetry_multiplicity
  _atom_site_fract_x
  _atom_site_fract_y
  _atom_site_fract_z
  _atom_site_occupancy
  Cd  Cd1       1.0  0.9496341342823774  0.7580957199533173  0.5206158420629164  1.0000
  Cd  Cd2       1.0  0.0503672741694601  0.24190598335589186  0.47938455811649316  1.0000
  H   H1        1.0  0.849626069923488  0.49242822002153736  0.5942310268440636  1.0000
  H   H2        1.0  0.15037552275523317  0.5075715076245402  0.4057695886016433  1.0000
  H   H3        1.0  0.7262890173059589  0.6058462372350916  0.63536878495281  1.0000
  H   H4        1.0  0.2737124379256457  0.39415544998348645  0.3646281725020799  1.0000
  H   H5        1.0  0.30266496723213276  0.6908700842443523  0.4760372652096834  1.0000
  H   H6        1.0  0.6973351946821041  0.3091335890901518  0.5239617599120977  1.0000
  H   H7        1.0  0.3839134372318611  0.5143809586739181  0.9054024033287861  1.0000
  H   H8        1.0  0.6160893566507825  0.4856177706877958  0.09459603681688124  1.0000
  H   H9        1.0  0.4842546125402549  0.5947219518892554  0.5664635360213239  1.0000
  H   H10       1.0  0.5157447446916805  0.40527875874897745  0.43353602929838103  1.0000
  H   H11       1.0  0.41153488971274754  0.840053470275329  0.2247796497017589  1.0000
  H   H12       1.0  0.5884593200344739  0.159944287296554  0.7752227020995905  1.0000
  H   H13       1.0  0.9579209548505577  0.6128556523826846  0.7247238806990239  1.0000
  H   H14       1.0  0.04208055507067599  0.3871450598768291  0.2752759385686333  1.0000
  H   H15       1.0  0.12240441432036421  0.5143851687105182  0.8245775624037179  1.0000
  H   H16       1.0  0.877597298539655  0.4856135614496253  0.17542109504043427  1.0000
  H   H17       1.0  0.3828440071506307  0.3816814592674617  0.7980442169941429  1.0000
  H   H18       1.0  0.6171553594372554  0.6183192481526377  0.201954659780661  1.0000
  H   H19       1.0  0.5301554749239088  0.4582292036203556  0.7100701836434313  1.0000
  H   H20       1.0  0.46984389166397733  0.541771503799751  0.2899286931313726  1.0000
  H   H21       1.0  0.7354253524098482  0.7920472894938869  0.8028240434001147  1.0000
  H   H22       1.0  0.2645776897452592  0.2079484860275116  0.19717678527971574  1.0000
  H   H23       1.0  0.7565074770271706  0.912886807536502  0.9322007650847085  1.0000
  H   H24       1.0  0.243491870848807  0.08711390631985688  0.06779948877990448  1.0000
  H   H25       1.0  0.3572101221944948  0.6218519065165823  0.009479151179370088  1.0000
  H   H26       1.0  0.6427942507017903  0.3781418700163925  0.9905168556539578  1.0000
  H   H27       1.0  0.38091980210586485  0.7370274928201038  0.1339506529274601  1.0000
  H   H28       1.0  0.6190814291919368  0.2629652950584428  0.866045424889542  1.0000
  H   H29       1.0  0.3773908545115035  0.0130546125192268  0.3167009767722249  1.0000
  H   H30       1.0  0.6226086682354078  0.9869441288921197  0.6833001809035866  1.0000
  H   H31       1.0  0.5230966791261196  0.09000467943685209  0.22880952156720719  1.0000
  H   H32       1.0  0.4769020950742018  0.9099910799694799  0.771188045037114  1.0000
  H   H33       1.0  0.7552845157529049  0.03522736762635499  0.48133794913099603  1.0000
  H   H34       1.0  0.2447185998037327  0.9647674264997336  0.5186643642717996  1.0000
  H   H35       1.0  0.5849768745295592  0.1285328355384507  0.38130373464641565  1.0000
  H   H36       1.0  0.41502064233112185  0.8714639414609875  0.618700138527359  1.0000
  H   H37       1.0  0.6128823043854867  0.741023573816136  0.3023669519243839  1.0000
  H   H38       1.0  0.3871213675809956  0.2589771368465393  0.6976324327463175  1.0000
  H   H39       1.0  0.7801365871608611  0.663311699873951  0.4059871552550335  1.0000
  H   H40       1.0  0.2198609764795805  0.33668506103485646  0.5940132751942215  1.0000
  H   H41       1.0  0.9703264649013903  0.1613850546350264  0.2432532461913368  1.0000
  H   H42       1.0  0.029670619459949366  0.8386166518678522  0.7567480231819844  1.0000
  H   H43       1.0  0.8813461062927104  0.11185790426856809  0.10955166447326556  1.0000
  H   H44       1.0  0.11864989704599792  0.8881438030327331  0.8904498221985265  1.0000
  H   H45       1.0  0.9364525673672618  0.8864427460325501  0.06266250007161736  1.0000
  H   H46       1.0  0.06354236430477302  0.11355895884904042  0.9373385153537512  1.0000
  C   C1        1.0  0.2682179177109987  0.6511115111763816  0.5535879414425724  1.0000
  C   C2        1.0  0.7317824284301226  0.3488901864949909  0.44641129894550596  1.0000
  C   C3        1.0  0.3681882840778528  0.5970009500026663  0.604190744487859  1.0000
  C   C4        1.0  0.6318121448207563  0.40299976305526986  0.3958092920782761  1.0000
  C   C5        1.0  0.3181937690825904  0.5456861296317754  0.7032446378178818  1.0000
  C   C6        1.0  0.681805698974685  0.4543135867386354  0.2967536580451693  1.0000
  C   C7        1.0  0.07530494434563909  0.6080541115935816  0.6923439341794975  1.0000
  C   C8        1.0  0.9246965655755945  0.39194660066593906  0.3076558850881597  1.0000
  C   C9        1.0  0.16810462565373294  0.55306989442942  0.7477042109499126  1.0000
  C   C10       1.0  0.8318948236916411  0.44692982837724327  0.25229546200294817  1.0000
  C   C11       1.0  0.4214490840381231  0.4776746820728661  0.7599001275976177  1.0000
  C   C12       1.0  0.5785515477992719  0.5223240488856932  0.24009874714501214  1.0000
  C   C13       1.0  0.5307421228344112  0.6396561263336481  0.8137751744318251  1.0000
  C   C14       1.0  0.46925950726811994  0.3603435884399318  0.18622268683427026  1.0000
  C   C15       1.0  0.5454715927977603  0.6990001053366511  0.8962563693039699  1.0000
  C   C16       1.0  0.45453004666072166  0.3009996062187951  0.1037408034172245  1.0000
  C   C17       1.0  0.6595795459941272  0.7795649208861447  0.8761604497210983  1.0000
  C   C18       1.0  0.3404208922604326  0.22043578895366517  0.12383889830013571  1.0000
  C   C19       1.0  0.6712145853388805  0.8469220596750092  0.9476974230362032  1.0000
  C   C20       1.0  0.3287835159995042  0.15308062420663757  0.052301455770773886  1.0000
  C   C21       1.0  0.5701807290494898  0.8354610734047155  0.04073171913316294  1.0000
  C   C22       1.0  0.42981549593991286  0.16453864536095608  0.9592672286253148  1.0000
  C   C23       1.0  0.44756403972606773  0.6833600306725742  0.9904272117580816  1.0000
  C   C24       1.0  0.5524356312700007  0.3166377035984596  0.009569922281457432  1.0000
  C   C25       1.0  0.4597975574794548  0.7506949524603997  0.061974838123198595  1.0000
  C   C26       1.0  0.5402010324939895  0.24930278260904967  0.9380225132148184  1.0000
  C   C27       1.0  0.5833553349535165  0.921234217095574  0.11051476012430321  1.0000
  C   C28       1.0  0.4166422927325116  0.0787615656360501  0.8894878435928177  1.0000
  C   C29       1.0  0.48856220996518124  0.9943096942785838  0.2696355430075315  1.0000
  C   C30       1.0  0.5114364346978917  0.005687065831807601  0.7303646701432527  1.0000
  C   C31       1.0  0.7187787928625016  0.9739379500444584  0.44088084642716296  1.0000
  C   C32       1.0  0.28122187495261397  0.026059812391281398  0.5591222672180365  1.0000
  C   C33       1.0  0.6253721821666288  0.024460875485743796  0.385202174866258  1.0000
  C   C34       1.0  0.3746273218683741  0.975537872361862  0.6148003598993625  1.0000
  C   C35       1.0  0.586325720843142  0.9413380170509099  0.33286694603184236  1.0000
  C   C36       1.0  0.41367586247962157  0.05866171381329371  0.6671343579587727  1.0000
  C   C37       1.0  0.6409391895812534  0.8089963644505004  0.34147532030348066  1.0000
  C   C38       1.0  0.3590634013626045  0.1910043470105975  0.6585242816656987  1.0000
  C   C39       1.0  0.733540828168934  0.7653288403142183  0.39854465758664764  1.0000
  C   C40       1.0  0.2664608566232261  0.23466989950029662  0.6014560654922151  1.0000
  C   C41       1.0  0.1017709275589596  0.0020808579316238004  0.35814844642459326  1.0000
  C   C42       1.0  0.8982281439766956  0.9979228194194218  0.6418514845405667  1.0000
  C   C43       1.0  0.061485728074536915  0.9642145656458821  0.2747694062938352  1.0000
  C   C44       1.0  0.93851326070363  0.0357900963185998  0.7252297284932682  1.0000
  C   C45       1.0  0.08984157580788119  0.8349801927321038  0.2508832978192785  1.0000
  C   C46       1.0  0.9101599247574015  0.16502052274553589  0.7491172099932868  1.0000
  C   C47       1.0  0.1593678315189635  0.7261142509512483  0.31154609111669634  1.0000
  C   C48       1.0  0.8406325786677371  0.27388646854293336  0.688455322539241  1.0000
  C   C49       1.0  0.9897992183674093  0.0629142993311333  0.22231317966278397  1.0000
  C   C50       1.0  0.01019887361501759  0.9370883877686395  0.7776863876891015  1.0000
  C   C51       1.0  0.9422573667892634  0.03635155013520829  0.14727222139318033  1.0000
  C   C52       1.0  0.05774043014093883  0.9636541068955107  0.8527284001490616  1.0000
  C   C53       1.0  0.9717873350923795  0.9103396443121382  0.12105463596699202  1.0000
  C   C54       1.0  0.028210646064699998  0.08966403705544929  0.878946200841547  1.0000
  C   C55       1.0  0.04654392836580001  0.8127671816310169  0.17143146270673532  1.0000
  C   C56       1.0  0.9534563803515042  0.18723452891286033  0.8285705318609615  1.0000
  N   N1        1.0  0.12410854415965393  0.6561456410066242  0.5968763752965742  1.0000
  N   N2        1.0  0.8758916911561202  0.34385705093256286  0.40312413454816454  1.0000
  N   N3        1.0  0.43317090743370573  0.5487789791233056  0.8346698443153644  1.0000
  N   N4        1.0  0.5668296416462013  0.4512207364486897  0.16532823424920912  1.0000
  N   N5        1.0  0.4868942972123946  0.9093426044381445  0.20116424365066632  1.0000
  N   N6        1.0  0.513103229004237  0.09065416934317481  0.7988389409782073  1.0000
  N   N7        1.0  0.7728088325862288  0.8466237683837009  0.44691769009894233  1.0000
  N   N8        1.0  0.22719294431936993  0.15337398359925197  0.5530831406130688  1.0000
  N   N9        1.0  0.07891266939512316  0.683523191023532  0.13791890388772296  1.0000
  N   N10       1.0  0.9210854038753951  0.3164795025124931  0.8620820405539648  1.0000
  O   O1        1.0  0.8043345676944683  0.5833363498311853  0.5766055114656297  1.0000
  O   O2        1.0  0.19566695158272301  0.41666435921020195  0.42339361925712643  1.0000
  O   O3        1.0  0.07053526816962122  0.6521579340969622  0.3769157686943744  1.0000
  O   O4        1.0  0.9294681915021241  0.34784476188321617  0.6230854663447403  1.0000
  O   O5        1.0  0.11466253142496194  0.9147470025117883  0.42898262386187014  1.0000
  O   O6        1.0  0.885335643314953  0.08525469997454849  0.571017739668065  1.0000
  O   O7        1.0  0.29416488688422504  0.717308237153226  0.2960634323960605  1.0000
  O   O8        1.0  0.7058388678397451  0.28269148889601337  0.7039367484526977  1.0000
  O   O9        1.0  0.16012976208304508  0.5991458946126257  0.1731848219808256  1.0000
  O   O10       1.0  0.8398692907407013  0.40085778917466525  0.8268164860741438  1.0000
  O   O11       1.0  0.025165490944424086  0.6634096300008139  0.0748079856119972  1.0000
  O   O12       1.0  0.9748294126597586  0.33659208453515527  0.9251950954480749  1.0000
  O   O13       1.0  0.12137627992294141  0.1236029859894572  0.35014284266088674  1.0000
  O   O14       1.0  0.8786216184766508  0.8764016799915736  0.6498571979696023  1.0000
  O   O15       1.0  0.6035487943778081  0.6753584081385355  0.7277900653790823  1.0000
  O   O16       1.0  0.3964518561714884  0.32464031638377133  0.27220743227373134  1.0000
  O   O17       1.0  0.6778730778773863  0.0012907689194392  0.0842840975803156  1.0000
  O   O18       1.0  0.3221281145505159  0.998701076181298  0.9157217274984932  1.0000
