data_image0
_chemical_formula_structural       Sc4H24C48O24
_chemical_formula_sum              "Sc4 H24 C48 O24"
_cell_length_a       8.853706202656833
_cell_length_b       11.359347550993057
_cell_length_c       17.84612609161621
_cell_angle_alpha    84.45464935415673
_cell_angle_beta     75.63090857507763
_cell_angle_gamma    67.06402268798296

_space_group_name_H-M_alt    "P 1"
_space_group_IT_number       1

loop_
  _space_group_symop_operation_xyz
  'x, y, z'

loop_
  _atom_site_type_symbol
  _atom_site_label
  _atom_site_symmetry_multiplicity
  _atom_site_fract_x
  _atom_site_fract_y
  _atom_site_fract_z
  _atom_site_occupancy
  Sc  Sc1       1.0  0.8637985442676737  0.24996123043006696  0.7723475711693338  1.0000
  Sc  Sc2       1.0  0.38612118037121246  0.2499499885423333  0.7276247576434967  1.0000
  Sc  Sc3       1.0  0.1362014867718033  0.7500384477701233  0.22765185557101825  1.0000
  Sc  Sc4       1.0  0.6138802709569475  0.7500477778997594  0.27237537223997776  1.0000
  H   H1        1.0  0.7554928100839364  0.05116875341503399  0.9832205747569202  1.0000
  H   H2        1.0  0.2899323959687411  0.4488451448606484  0.5166896035407262  1.0000
  H   H3        1.0  0.6933890981842554  0.05108777964279202  0.5167174407087811  1.0000
  H   H4        1.0  0.7612220966203086  0.4488459852815583  0.9833302310403834  1.0000
  H   H5        1.0  0.24450594129383776  0.9488290131318067  0.0167810942777891  1.0000
  H   H6        1.0  0.710069190052202  0.5511564452288769  0.4833108116598125  1.0000
  H   H7        1.0  0.30660932351631265  0.9489138104990218  0.4832838104490093  1.0000
  H   H8        1.0  0.23877801535491733  0.5511546487846105  0.016668635139090806  1.0000
  H   H9        1.0  0.33074311317907523  0.07020033645366652  0.9000272021341399  1.0000
  H   H10       1.0  0.8010025203869587  0.429810940890178  0.6000601661956182  1.0000
  H   H11       1.0  0.0989207699466804  0.07023330929302321  0.6000460963338411  1.0000
  H   H12       1.0  0.2691970722952777  0.42980456735913464  0.8999200488589663  1.0000
  H   H13       1.0  0.6692541233849029  0.9297993419430383  0.09997502753771667  1.0000
  H   H14       1.0  0.19899756440954525  0.5701916050914663  0.3999401064226759  1.0000
  H   H15       1.0  0.9010791393889617  0.9297682809144097  0.3999560006256074  1.0000
  H   H16       1.0  0.730805645105228  0.5701960666940451  0.10007854194957122  1.0000
  H   H17       1.0  0.07120079713875092  0.869998763017698  0.7521428456223943  1.0000
  H   H18       1.0  0.19338418837435273  0.6298970357778587  0.7478434357115444  1.0000
  H   H19       1.0  0.5586597970230259  0.8699414625921734  0.7478727832637942  1.0000
  H   H20       1.0  0.6765095381074392  0.6298594694690607  0.7521948213080873  1.0000
  H   H21       1.0  0.9287975572154253  0.13000091530039984  0.24785826287686055  1.0000
  H   H22       1.0  0.8066146303498131  0.3701026425926983  0.25215837598169333  1.0000
  H   H23       1.0  0.4413381065505249  0.13005725971572704  0.2521269188220714  1.0000
  H   H24       1.0  0.32348621082146434  0.37014020886203275  0.24780656256210412  1.0000
  C   C1        1.0  0.5992404053298589  0.13905440332550265  0.86537694247  1.0000
  C   C2        1.0  0.10372266186959682  0.3609566599209943  0.6345976639822197  1.0000
  C   C3        1.0  0.7615785497386797  0.13902083540212126  0.6346192165190627  1.0000
  C   C4        1.0  0.035243407262065485  0.36093408632580554  0.8653918815985688  1.0000
  C   C5        1.0  0.40076087053743936  0.8609424073423713  0.13462501175463606  1.0000
  C   C6        1.0  0.8962748175016415  0.6390458860736389  0.3654028840070111  1.0000
  C   C7        1.0  0.238422301926299  0.8609797989524851  0.3653835836089455  1.0000
  C   C8        1.0  0.9647510159032677  0.6390675036716262  0.1346075353482163  1.0000
  C   C9        1.0  0.5479727537135306  0.0673969349009198  0.9350712739011368  1.0000
  C   C10       1.0  0.05046104453530401  0.4326492154055402  0.5649272389031025  1.0000
  C   C11       1.0  0.884571268747607  0.06735273631937841  0.5649519593169358  1.0000
  C   C12       1.0  0.016870056406972523  0.4326244551221877  0.9350645568756659  1.0000
  C   C13       1.0  0.4520229142796168  0.9326017875641882  0.06493067052993241  1.0000
  C   C14       1.0  0.9495400635262857  0.5673533305892562  0.43507317632286646  1.0000
  C   C15       1.0  0.1154240022219427  0.9326478979169863  0.43504942457868606  1.0000
  C   C16       1.0  0.983132129277152  0.5673742670548166  0.06493318808035302  1.0000
  C   C17       1.0  0.6439924442347337  0.028245439433625612  0.9912367178956526  1.0000
  C   C18       1.0  0.16349577451777741  0.47176781654822253  0.5087064300477236  1.0000
  C   C19       1.0  0.8278061857217982  0.028174482415067807  0.5087393981643443  1.0000
  C   C20       1.0  0.8647422516693413  0.47176566273878257  0.9913095786113997  1.0000
  C   C21       1.0  0.3560059101194426  0.971754238884472  0.008764390603602092  1.0000
  C   C22       1.0  0.8365057979138014  0.5282347294990402  0.4912946883722282  1.0000
  C   C23       1.0  0.17219533295275366  0.9718251958507412  0.4912608743776729  1.0000
  C   C24       1.0  0.1352593479409662  0.5282349713930048  0.008690133369739806  1.0000
  C   C25       1.0  0.4038868940850195  0.038879643675557005  0.944135508875611  1.0000
  C   C26       1.0  0.8868960086521728  0.4611483126270672  0.5559193478433713  1.0000
  C   C27       1.0  0.057161255830308795  0.03889154152991381  0.5559102523307117  1.0000
  C   C28       1.0  0.1519509444428809  0.4611325219799767  0.9440610882724767  1.0000
  C   C29       1.0  0.5961104370040643  0.9611200346293817  0.055865457015961795  1.0000
  C   C30       1.0  0.11310462145007705  0.538855189273015  0.444081067408021  1.0000
  C   C31       1.0  0.9428386806840555  0.9611081367620357  0.4440904381899243  1.0000
  C   C32       1.0  0.8480532741820566  0.538867156181077  0.055937645118312666  1.0000
  C   C33       1.0  0.23698966259753737  0.0260339195358767  0.7499587916921299  1.0000
  C   C34       1.0  0.5129771335532567  0.47383005795985156  0.7499677999550654  1.0000
  C   C35       1.0  0.7630079248881714  0.9739676704092659  0.25003978929741066  1.0000
  C   C36       1.0  0.48702615633170837  0.5261696200962833  0.250029527047765  1.0000
  C   C37       1.0  0.30827135359344027  0.8832748804270241  0.7500082248720971  1.0000
  C   C38       1.0  0.44159935229610886  0.6165581908702011  0.7500240948588651  1.0000
  C   C39       1.0  0.6917327167493569  0.11672193004434213  0.2499909264210344  1.0000
  C   C40       1.0  0.558395454303458  0.3834424433137116  0.2499765858427735  1.0000
  C   C41       1.0  0.20405229150926402  0.8163631140822644  0.7508917233810165  1.0000
  C   C42       1.0  0.27135191974583256  0.6835084063327487  0.7491491114330342  1.0000
  C   C43       1.0  0.47939526766934665  0.8163321898730234  0.7491702714313956  1.0000
  C   C44       1.0  0.5449207326974987  0.6834834670593538  0.7509203616787584  1.0000
  C   C45       1.0  0.7959465679829876  0.18363369641507896  0.24910797865399553  1.0000
  C   C46       1.0  0.7286464346083434  0.31649127198535615  0.2508519970662205  1.0000
  C   C47       1.0  0.520606345530311  0.18366748830102617  0.2508287373303303  1.0000
  C   C48       1.0  0.45507770259243324  0.31651716712472233  0.24908018625961853  1.0000
  O   O1        1.0  0.7263067792541096  0.16816271599972774  0.8606706465233385  1.0000
  O   O2        1.0  0.2552020045250815  0.3318166004409734  0.6392942535529682  1.0000
  O   O3        1.0  0.6054193666502243  0.16816347574035012  0.6392857014078925  1.0000
  O   O4        1.0  0.9129154519595277  0.3317714139182399  0.8607093322343784  1.0000
  O   O5        1.0  0.273689077789264  0.8318360062818614  0.13932877034716276  1.0000
  O   O6        1.0  0.7448042470406693  0.6681840337041296  0.36070546827258443  1.0000
  O   O7        1.0  0.3945779780282238  0.8318352466068575  0.36071456126427387  1.0000
  O   O8        1.0  0.08708385237914491  0.6682339996481801  0.13928911609360736  1.0000
  O   O9        1.0  0.5136235024778629  0.16695716780619563  0.814009970409131  1.0000
  O   O10       1.0  0.9946316102667087  0.33305512294008827  0.6859846021056979  1.0000
  O   O11       1.0  0.8192297372675627  0.16690852878625156  0.686019404599193  1.0000
  O   O12       1.0  0.17223706478785772  0.33304405300300033  0.8139970154690558  1.0000
  O   O13       1.0  0.486374811708643  0.8330386867727102  0.18598958899277554  1.0000
  O   O14       1.0  0.005375759089247591  0.6669455111264142  0.3140139985472529  1.0000
  O   O15       1.0  0.18076807178087517  0.8330901936134155  0.31398156126694937  1.0000
  O   O16       1.0  0.8277651073069092  0.6669556251317419  0.18600143270636943  1.0000
  O   O17       1.0  0.07809272187592615  0.08258272381600312  0.7722852457101934  1.0000
  O   O18       1.0  0.4328963027254602  0.4173962669132437  0.7275871305402644  1.0000
  O   O19       1.0  0.33947651186625194  0.0824587789445275  0.7276078395981357  1.0000
  O   O20       1.0  0.649506321219981  0.41727966599576416  0.7723118041927178  1.0000
  O   O21       1.0  0.9219095985009812  0.9174198220084337  0.22771278456288965  1.0000
  O   O22       1.0  0.5671009420940936  0.5826034109722047  0.2724080770361894  1.0000
  O   O23       1.0  0.6605359336474732  0.9175380314485653  0.2723899249958706  1.0000
  O   O24       1.0  0.35049224936314255  0.5827181002233389  0.22768537030715655  1.0000
