data_image0
_chemical_formula_structural       CuH16C10Br2N16O6
_chemical_formula_sum              "Cu1 H16 C10 Br2 N16 O6"
_cell_length_a       7.818908073872832
_cell_length_b       8.074998434278754
_cell_length_c       9.662543553736336
_cell_angle_alpha    77.84141169625882
_cell_angle_beta     81.72695343817624
_cell_angle_gamma    87.45454878748596

_space_group_name_H-M_alt    "P 1"
_space_group_IT_number       1

loop_
  _space_group_symop_operation_xyz
  'x, y, z'

loop_
  _atom_site_type_symbol
  _atom_site_label
  _atom_site_symmetry_multiplicity
  _atom_site_fract_x
  _atom_site_fract_y
  _atom_site_fract_z
  _atom_site_occupancy
  Cu  Cu1       1.0  7.094503402993471e-07  0.9999949162416897  4.293260218406725e-06  1.0000
  H   H1        1.0  0.8232556877774114  0.6362695736918412  0.1862482472156373  1.0000
  H   H2        1.0  0.17674151322773207  0.3637187417197865  0.8137474973757293  1.0000
  H   H3        1.0  0.3604576522227134  0.8604914331026805  0.11764514158897306  1.0000
  H   H4        1.0  0.6395446329963049  0.139508301659454  0.8823562306715473  1.0000
  H   H5        1.0  0.636018553535756  0.8310412953575294  0.6337531221756052  1.0000
  H   H6        1.0  0.3639861720037914  0.1689710944938057  0.3662446582789158  1.0000
  H   H7        1.0  0.437673111278265  0.7538255923216681  0.6046101330562621  1.0000
  H   H8        1.0  0.5623329664977987  0.24618044903019864  0.3953865521029983  1.0000
  H   H9        1.0  0.8745410942470856  0.6092582102526052  0.6516113854326376  1.0000
  H   H10       1.0  0.1254740167388491  0.3907490643536278  0.3483839988211627  1.0000
  H   H11       1.0  0.8302063938681458  0.4073782111155353  0.7655332430488002  1.0000
  H   H12       1.0  0.1697983764453284  0.592627821444452  0.23446049521141532  1.0000
  H   H13       1.0  0.5165099548197601  0.4885752747837486  0.8118431001442373  1.0000
  H   H14       1.0  0.4835012566912979  0.5114294350642724  0.1881428600636994  1.0000
  H   H15       1.0  0.593520474507045  0.499371189968052  0.6284602886971129  1.0000
  H   H16       1.0  0.40649192384680793  0.5006449355246261  0.371527626127758  1.0000
  C   C1        1.0  0.8325387884080585  0.649450305550694  0.07086905297349229  1.0000
  C   C2        1.0  0.16745714331358386  0.35054187438529266  0.9291396059121908  1.0000
  C   C3        1.0  0.36581822527282526  0.8521427913716267  0.006692937735266484  1.0000
  C   C4        1.0  0.6341801546722294  0.14785949166911652  0.9933084454087294  1.0000
  C   C5        1.0  0.5310309369881381  0.7419173101363015  0.6806820393173183  1.0000
  C   C6        1.0  0.46897510892023314  0.2580925410564134  0.319316037629541  1.0000
  C   C7        1.0  0.7895545763691133  0.5413812954091101  0.7447715850388902  1.0000
  C   C8        1.0  0.21045538771944902  0.45862346005450416  0.2552238306177941  1.0000
  C   C9        1.0  0.6004041110514038  0.5595536026390278  0.7193751184698911  1.0000
  C   C10       1.0  0.39960967351046156  0.440454925565689  0.2806160602657712  1.0000
  Br  Br1       1.0  0.04431618940802911  0.13340054296824627  0.624092041260063  1.0000
  Br  Br2       1.0  0.9556629343749635  0.8665904144374962  0.3759147065425736  1.0000
  N   N1        1.0  0.8917980220059079  0.7900300040820909  0.9754904499154408  1.0000
  N   N2        1.0  0.1082030495059598  0.20996212941019377  0.024511393044733192  1.0000
  N   N3        1.0  0.28091181619212335  0.8725712605859999  0.8004901980429792  1.0000
  N   N4        1.0  0.7190866514531394  0.1274221449166291  0.19951069367389349  1.0000
  N   N5        1.0  0.8850616901685484  0.7650368485083378  0.8456912027293838  1.0000
  N   N6        1.0  0.1149445282406845  0.2349578041265659  0.154310608827906  1.0000
  N   N7        1.0  0.43569106215509384  0.8003620869458316  0.8043232106192519  1.0000
  N   N8        1.0  0.5643099445694801  0.19963638570198577  0.1956785404192942  1.0000
  N   N9        1.0  0.4945077842738286  0.7851554472821506  0.9294639857122887  1.0000
  N   N10       1.0  0.5054918652108853  0.2148493693311764  0.0705378270925365  1.0000
  N   N11       1.0  0.2360221850997632  0.9064777094534975  0.9288223570931606  1.0000
  N   N12       1.0  0.763978811618131  0.09352075412640198  0.07117732688742247  1.0000
  N   N13       1.0  0.7882622726455111  0.5335858632136522  0.0029724575130956267  1.0000
  N   N14       1.0  0.21173620185073355  0.46640370977834766  0.9970218747712708  1.0000
  N   N15       1.0  0.8234853906344027  0.6112685850262876  0.8655501554274994  1.0000
  N   N16       1.0  0.176520774841876  0.38872857878746464  0.1344460383046382  1.0000
  O   O1        1.0  0.928388375805717  0.1535003653157503  0.7842821953770596  1.0000
  O   O2        1.0  0.0716063045419872  0.8464931362280553  0.215737760925208  1.0000
  O   O3        1.0  0.20533133536581263  0.2730474811040153  0.5993366834406402  1.0000
  O   O4        1.0  0.7946385964084327  0.7269497765839078  0.40065451179199124  1.0000
  O   O5        1.0  0.9123274289251029  0.20842543709981948  0.5026803908032279  1.0000
  O   O6        1.0  0.08762973948228141  0.7915732943007826  0.4973482897326988  1.0000
