data_image0
_chemical_formula_structural       Zn8H57C82N9O44
_chemical_formula_sum              "Zn8 H57 C82 N9 O44"
_cell_length_a       18.277915795948847
_cell_length_b       18.320975051102376
_cell_length_c       18.495588689583844
_cell_angle_alpha    119.87064449389806
_cell_angle_beta     90.12377382544194
_cell_angle_gamma    119.70911416041534

_space_group_name_H-M_alt    "P 1"
_space_group_IT_number       1

loop_
  _space_group_symop_operation_xyz
  'x, y, z'

loop_
  _atom_site_type_symbol
  _atom_site_label
  _atom_site_symmetry_multiplicity
  _atom_site_fract_x
  _atom_site_fract_y
  _atom_site_fract_z
  _atom_site_occupancy
  Zn  Zn1       1.0  0.4616715293836365  0.5995921671445502  0.5461056434763593  1.0000
  Zn  Zn2       1.0  0.4577844490501377  0.4220069306427306  0.5444495475595589  1.0000
  Zn  Zn3       1.0  0.63196694647732  0.5894059297940191  0.5424902227389836  1.0000
  Zn  Zn4       1.0  0.45844071918558177  0.42003807368571705  0.3703942915380196  1.0000
  Zn  Zn5       1.0  0.05433886303700323  0.42666003986481377  0.9617748301153528  1.0000
  Zn  Zn6       1.0  0.8746933911079822  0.41778027569444737  0.9536633786394334  1.0000
  Zn  Zn7       1.0  0.05001613503232254  0.5980225812291451  0.9606870566643766  1.0000
  Zn  Zn8       1.0  0.046302357783695076  0.5924545894468595  0.13186503949387432  1.0000
  H   H1        1.0  0.15069133519368452  0.5320400018026491  0.6147988940318003  1.0000
  H   H2        1.0  0.15772257187455804  0.3884199015726039  0.503867396086001  1.0000
  H   H3        1.0  0.19476626137285538  0.3777012124983656  0.37107091693647487  1.0000
  H   H4        1.0  0.21626776171547857  0.656475025490437  0.46067751355818853  1.0000
  H   H5        1.0  0.12969146795060033  0.5250596958996285  0.2901424266856696  1.0000
  H   H6        1.0  0.3747362052816712  0.487984422394014  0.2151265368279526  1.0000
  H   H7        1.0  0.33496920279229414  0.36891222631169296  0.9123045817658025  1.0000
  H   H8        1.0  0.4054879481766348  0.6765591178092903  0.04617143649994657  1.0000
  H   H9        1.0  0.7025990996693707  0.10923087868005153  0.679434431297544  1.0000
  H   H10       1.0  0.5488424113930107  0.9212174150572637  0.668647306636615  1.0000
  H   H11       1.0  0.5988298903425218  0.9158315405139704  0.5843669511045422  1.0000
  H   H12       1.0  0.6713137879481933  0.4911251124382474  0.07365971062395008  1.0000
  H   H13       1.0  0.612918559951204  0.3577969215126799  0.03059561791644678  1.0000
  H   H14       1.0  0.5902709873027803  0.5149360030522061  0.18353143950538714  1.0000
  H   H15       1.0  0.29979368888191965  0.10759885810985992  0.4163711368169061  1.0000
  H   H16       1.0  0.19941553989400518  0.9166682130261563  0.3253149933207027  1.0000
  H   H17       1.0  0.18413723622769854  0.9090462232907514  0.031785652021397964  1.0000
  H   H18       1.0  0.38312696204904034  0.0872323390949532  0.13282568234086511  1.0000
  H   H19       1.0  0.2950859947622106  0.10230521493362944  0.12194629099420243  1.0000
  H   H20       1.0  0.8053914060263949  0.5448148646765463  0.6368915634826211  1.0000
  H   H21       1.0  0.635095081684291  0.359371823201684  0.8273597425004553  1.0000
  H   H22       1.0  0.532966331492247  0.34907728770946284  0.7289070271047536  1.0000
  H   H23       1.0  0.571816544614947  0.4786974312822993  0.8089779556447427  1.0000
  H   H24       1.0  0.34036273026832486  0.6625360822776116  0.7460199016332751  1.0000
  H   H25       1.0  0.2464497966799827  0.6607715175350395  0.8428193508329899  1.0000
  H   H26       1.0  0.20357178337546597  0.3241645464021019  0.7907087116250084  1.0000
  H   H27       1.0  0.11124963725508505  0.26587516285263746  0.7011851978509682  1.0000
  H   H28       1.0  0.30104625914540156  0.3290130395942513  0.6947745483042597  1.0000
  H   H29       1.0  0.2081339927222956  0.2684685712016517  0.6041870069052848  1.0000
  H   H30       1.0  0.7780287195402097  0.7245911338096462  0.7881618806488434  1.0000
  H   H31       1.0  0.8485354792146182  0.8356516641065711  0.8967324959384658  1.0000
  H   H32       1.0  0.7348897129020954  0.7469843933708802  0.8773929660533142  1.0000
  H   H33       1.0  0.7575937510011741  0.9033765524201415  0.8953120847596525  1.0000
  H   H34       1.0  0.684883026867105  0.7914627936517248  0.789218438576242  1.0000
  H   H35       1.0  0.8129480936800846  0.8345137130801632  0.7296041853705121  1.0000
  H   H36       1.0  0.8852928669212332  0.9457590511811207  0.8359284442898203  1.0000
  H   H37       1.0  0.7131744582020616  0.6835860900461769  0.09469094105311637  1.0000
  H   H38       1.0  0.8188629443891386  0.7027923281315225  0.09852972809068218  1.0000
  H   H39       1.0  0.7973191482552551  0.7808777979001463  0.08584050628540756  1.0000
  H   H40       1.0  0.7892188535699702  0.6472650572477221  0.9408050742376092  1.0000
  H   H41       1.0  0.6851962274618656  0.6300084710692104  0.9361812141426782  1.0000
  H   H42       1.0  0.6317331060265944  0.49251842369700694  0.961210620284561  1.0000
  H   H43       1.0  0.7376317418022964  0.5129374355168749  0.9725738541969235  1.0000
  H   H44       1.0  0.2389503640715843  0.878574741797884  0.7741528168667884  1.0000
  H   H45       1.0  0.12023859973075451  0.7999131336621305  0.7337611601168421  1.0000
  H   H46       1.0  0.17817693673532634  0.8216506640570105  0.8272109028006087  1.0000
  H   H47       1.0  0.12092607445149639  0.6476282147214008  0.6955165618074377  1.0000
  H   H48       1.0  0.2388048081782231  0.7247331146045969  0.7321842482382197  1.0000
  H   H49       1.0  0.2335563134835396  0.7633549958897773  0.6186699894186491  1.0000
  H   H50       1.0  0.116764939635388  0.6806435415366607  0.5805703055762025  1.0000
  H   H51       1.0  0.22278165160036417  0.1388948935379659  0.9842420340475897  1.0000
  H   H52       1.0  0.1208084219186532  0.10689786433395912  0.9289753108070969  1.0000
  H   H53       1.0  0.18334546113703712  0.0666137092012988  0.8671642361481348  1.0000
  H   H54       1.0  0.20606728515995343  0.21741513442677277  0.8757022167740018  1.0000
  H   H55       1.0  0.307138143441037  0.2492774348949993  0.9313101782520764  1.0000
  H   H56       1.0  0.27995108307464284  0.32722405167448443  0.07549155482946196  1.0000
  H   H57       1.0  0.1806628894746467  0.29750789014880047  0.020953757151694716  1.0000
  C   C1        1.0  0.3773360802950947  0.2322524270441662  0.3626941291543346  1.0000
  C   C2        1.0  0.6490271800695098  0.7842320694437674  0.6420972860278767  1.0000
  C   C3        1.0  0.36688310499560833  0.5142800682860909  0.6404929186880537  1.0000
  C   C4        1.0  0.6389177260210275  0.5010225977236828  0.361494699474342  1.0000
  C   C5        1.0  0.6387442823513112  0.5005745185237843  0.6345952943733479  1.0000
  C   C6        1.0  0.3610685136799461  0.503953190713851  0.3629186037524406  1.0000
  C   C7        1.0  0.17102383145181216  0.4474991945520231  0.4943129727031136  1.0000
  C   C8        1.0  0.19225705006952856  0.44163940428091314  0.4201805149326888  1.0000
  C   C9        1.0  0.2088459587679168  0.517430803850047  0.40766892770165  1.0000
  C   C10       1.0  0.2027021914212881  0.5970897770606599  0.4700296929882911  1.0000
  C   C11       1.0  0.18233057228283667  0.6045976452912287  0.5455454475876496  1.0000
  C   C12       1.0  0.16655472363348878  0.5284745457589182  0.5568336153415175  1.0000
  C   C13       1.0  0.18488839590483516  0.5188629962060461  0.275396129008307  1.0000
  C   C14       1.0  0.2038949669539676  0.5126111890135691  0.20006492003159346  1.0000
  C   C15       1.0  0.2732359804841309  0.5019600042103535  0.17695223902313742  1.0000
  C   C16       1.0  0.32011489478229993  0.4952513515775792  0.2304298438031652  1.0000
  C   C17       1.0  0.30139060549521457  0.5024023903116304  0.3060788298395068  1.0000
  C   C18       1.0  0.2326451335240662  0.5138803233549325  0.32999341392559967  1.0000
  C   C19       1.0  0.29768011377827724  0.4201761809000432  0.030067648492405463  1.0000
  C   C20       1.0  0.335915875328169  0.43166562279905213  0.9678614415937546  1.0000
  C   C21       1.0  0.37582344288895086  0.5236825792169668  0.9752731232875791  1.0000
  C   C22       1.0  0.37705526819946295  0.6062738418776945  0.04256282800639626  1.0000
  C   C23       1.0  0.3426206982397986  0.5954889953861127  0.1061412871376817  1.0000
  C   C24       1.0  0.3039675847358154  0.5056792206387613  0.10356312612014318  1.0000
  C   C25       1.0  0.6835309158386379  0.9572108846675961  0.7042278021308805  1.0000
  C   C26       1.0  0.7084432317979648  0.8982348903222785  0.7077632248999068  1.0000
  C   C27       1.0  0.7897991789610116  0.9512196652151561  0.7739913713817758  1.0000
  C   C28       1.0  0.8415802321446719  0.05937930216202151  0.8276486757740926  1.0000
  C   C29       1.0  0.8185817049032309  0.11984136576546693  0.8222997509569723  1.0000
  C   C30       1.0  0.736893250180664  0.0636388158640955  0.7590174895775874  1.0000
  C   C31       1.0  0.6762480111838086  0.0735724548578531  0.7146726051084685  1.0000
  C   C32       1.0  0.6121317744815256  0.9519638311316425  0.6556250257645004  1.0000
  C   C33       1.0  0.6658978742008514  0.46598777193268154  0.2188004564520654  1.0000
  C   C34       1.0  0.6945612103986961  0.4924243886517418  0.3029754488328252  1.0000
  C   C35       1.0  0.7782678309827985  0.5102715675692906  0.32630762183810463  1.0000
  C   C36       1.0  0.8272464594114483  0.5017946839004637  0.2681621935769059  1.0000
  C   C37       1.0  0.7987566887944979  0.4800919569711797  0.1846739984931817  1.0000
  C   C38       1.0  0.7153373842340541  0.45994144199535475  0.16161278299905768  1.0000
  C   C39       1.0  0.6481729642903388  0.4360783862679085  0.09102517246339659  1.0000
  C   C40       1.0  0.5951609010761985  0.4499658382427186  0.1588935524608317  1.0000
  C   C41       1.0  0.3000869307403562  0.05928444554882622  0.21518835506946496  1.0000
  C   C42       1.0  0.32107031115059215  0.11824667321646837  0.30677633724301506  1.0000
  C   C43       1.0  0.28362013579656054  0.0635922562071372  0.344839956221044  1.0000
  C   C44       1.0  0.22702608707044178  0.9566004725280736  0.29387752309295934  1.0000
  C   C45       1.0  0.20372300751747466  0.8978603582103943  0.20125866698906966  1.0000
  C   C46       1.0  0.24230161413647988  0.9527829377210041  0.16483205674799015  1.0000
  C   C47       1.0  0.24595457599927067  0.9412702302134903  0.07840051186112633  1.0000
  C   C48       1.0  0.31545867984833353  0.06208683084997091  0.135689077112346  1.0000
  C   C49       1.0  0.6669489040058637  0.460284356417141  0.7391784804791686  1.0000
  C   C50       1.0  0.6945709637616845  0.4922568292593681  0.6842792512267267  1.0000
  C   C51       1.0  0.7807900916685001  0.5208572918481877  0.6800708494428491  1.0000
  C   C52       1.0  0.8346116057528903  0.51699709555092  0.7293996870137606  1.0000
  C   C53       1.0  0.8094112704175986  0.4902955334254672  0.7893765494246383  1.0000
  C   C54       1.0  0.723810079854253  0.46179095943745097  0.7913376582287555  1.0000
  C   C55       1.0  0.6588790233016936  0.43390119938212024  0.839499387447319  1.0000
  C   C56       1.0  0.5929287015980762  0.42692932453151405  0.7765201743274733  1.0000
  C   C57       1.0  0.26524235517292283  0.4324966776225524  0.7068556839620899  1.0000
  C   C58       1.0  0.3121336270082224  0.5145399202818695  0.6993315423223266  1.0000
  C   C59       1.0  0.3042671810193482  0.5970850559787451  0.7501473997041117  1.0000
  C   C60       1.0  0.2514197504734952  0.5960157671515844  0.8042979383807137  1.0000
  C   C61       1.0  0.20337957015718192  0.5119433094922528  0.8106063840824974  1.0000
  C   C62       1.0  0.2123457985141357  0.43124316297019055  0.7610878950204738  1.0000
  C   C63       1.0  0.18299452406743913  0.32614315807741434  0.73621131837929  1.0000
  C   C64       1.0  0.24360335418892015  0.32803755476096086  0.6753211851648829  1.0000
  C   C65       1.0  0.857406124472  0.4891918291095082  0.12896423606139965  1.0000
  C   C66       1.0  0.1453275098691975  0.5099622510678188  0.866294938697571  1.0000
  C   C67       1.0  0.8745956866419462  0.23402133489332755  0.8759267011074244  1.0000
  C   C68       1.0  0.14161673285482826  0.7841871432105166  0.14513441612511  1.0000
  C   C69       1.0  0.8689666250845817  0.49986112039774616  0.8535190955931855  1.0000
  C   C70       1.0  0.14658814677013512  0.5133038076991028  0.1434171027677423  1.0000
  C   C71       1.0  0.8160480961870746  0.89398550957921  0.7917478878875813  1.0000
  C   C72       1.0  0.7546702800068629  0.8435741908213574  0.8331151607074861  1.0000
  C   C73       1.0  0.7804251599684875  0.7843567024509924  0.8497704896727216  1.0000
  C   C74       1.0  0.6900025793646235  0.5153056089203005  0.9386440503801836  1.0000
  C   C75       1.0  0.7333681995720484  0.6254533534058313  0.96648229452849  1.0000
  C   C76       1.0  0.7675105381874444  0.7023711667595619  0.06676862267003975  1.0000
  C   C77       1.0  0.1778554743574504  0.6934605830534297  0.6107551814049402  1.0000
  C   C78       1.0  0.17938928769973464  0.7143022674470672  0.7018874574186995  1.0000
  C   C79       1.0  0.17925690928942117  0.8089918252490734  0.7627570527902707  1.0000
  C   C80       1.0  0.24799605579635645  0.31801234282158924  0.018257088223030814  1.0000
  C   C81       1.0  0.2399817966774904  0.22937691193354232  0.9338402503225396  1.0000
  C   C82       1.0  0.18874760290263026  0.1297429242504577  0.9281922852485637  1.0000
  N   N1        1.0  0.41936224194721916  0.5347214329703931  0.9110042422290406  1.0000
  N   N2        1.0  0.34898450976106676  0.6863148230026892  0.18000692644982758  1.0000
  N   N3        1.0  0.9254639579866221  0.11311661350701034  0.8972486165307602  1.0000
  N   N4        1.0  0.6356033533778245  0.12578134106102817  0.7724418150121721  1.0000
  N   N5        1.0  0.815058791981201  0.5356517540232772  0.4138340359783186  1.0000
  N   N6        1.0  0.9097109911917515  0.5098270546960395  0.2927882391769431  1.0000
  N   N7        1.0  0.5009272746073704  0.35678998565787623  0.12443220882743596  1.0000
  N   N8        1.0  0.28320895682146835  0.8813035877074853  0.025622939210279555  1.0000
  N   N9        1.0  0.9189868309421669  0.5363070295625363  0.7120750838842228  1.0000
  O   O1        1.0  0.5023529789719349  0.5082296886660131  0.49969403809946294  1.0000
  O   O2        1.0  0.4035294041380126  0.2755023167089945  0.32207133834853613  1.0000
  O   O3        1.0  0.566031885772226  0.7454136194596471  0.61786667555441  1.0000
  O   O4        1.0  0.3743820530136759  0.43893170341441856  0.603733236387349  1.0000
  O   O5        1.0  0.6764960090018803  0.5464706372549272  0.44268654112875794  1.0000
  O   O6        1.0  0.5552279277262498  0.4494980752217189  0.6220373677439427  1.0000
  O   O7        1.0  0.37514077113804234  0.4342078417250407  0.32245572188085714  1.0000
  O   O8        1.0  0.6801291258468609  0.5598612264212832  0.6103161959726437  1.0000
  O   O9        1.0  0.39475565947837765  0.5757598759797489  0.44506086018849106  1.0000
  O   O10       1.0  0.40158509797065284  0.5873433104520985  0.6304632292934187  1.0000
  O   O11       1.0  0.5585617285766844  0.46243369413512897  0.3233701229019702  1.0000
  O   O12       1.0  0.3934734614515848  0.2768569007176681  0.4457214683085412  1.0000
  O   O13       1.0  0.6861779037851717  0.7366716817544869  0.6136882788406198  1.0000
  O   O14       1.0  0.004524952077076709  0.50855985700818  0.002558834171942723  1.0000
  O   O15       1.0  0.9402288896729585  0.5559247678443102  0.17090584335307582  1.0000
  O   O16       1.0  0.1130186840307772  0.4368451412521709  0.8765500988979583  1.0000
  O   O17       1.0  0.8319243661406901  0.27288440223775007  0.8790726629744229  1.0000
  O   O18       1.0  0.11995344740063996  0.7421611034143186  0.06203352567423101  1.0000
  O   O19       1.0  0.8283763514196208  0.4365575974817092  0.874062907417084  1.0000
  O   O20       1.0  0.11058762185459156  0.5601848061608692  0.18140330217986642  1.0000
  O   O21       1.0  0.9516799206196964  0.5717130569039812  0.885183839406942  1.0000
  O   O22       1.0  0.13792275931021433  0.46613162080167564  0.06143436716205737  1.0000
  O   O23       1.0  0.9577985910412037  0.2814484487244897  0.9106976600086442  1.0000
  O   O24       1.0  0.11510174929341586  0.7392390427628328  0.18405572581438892  1.0000
  O   O25       1.0  0.8174596883772551  0.43302558241839517  0.04609916373504325  1.0000
  O   O26       1.0  0.131925998780261  0.5802793082223091  0.8990492875033597  1.0000
  O   O27       1.0  0.45155594058564935  0.6160086271782319  0.9172785844163159  1.0000
  O   O28       1.0  0.4224882411777244  0.4621001994604228  0.8548876059147263  1.0000
  O   O29       1.0  0.38798199702433317  0.72161654523633  0.25590689914682935  1.0000
  O   O30       1.0  0.3155722238363339  0.7210970669870279  0.1599339264364447  1.0000
  O   O31       1.0  0.9907759648525528  0.1209718112431375  0.8738246227570131  1.0000
  O   O32       1.0  0.9224913654164979  0.1432337869995735  0.9729054718751088  1.0000
  O   O33       1.0  0.613351464921493  0.10876471724084522  0.8282276427049241  1.0000
  O   O34       1.0  0.6260960437475162  0.18032454672101747  0.758180650899881  1.0000
  O   O35       1.0  0.8613055548469218  0.6268376645972256  0.4757315336847372  1.0000
  O   O36       1.0  0.7959090507838055  0.46171211083823493  0.4153862125377757  1.0000
  O   O37       1.0  0.9100119631218392  0.434072667998457  0.24121295258358805  1.0000
  O   O38       1.0  0.9696080099365216  0.5894687519264467  0.3622443675123393  1.0000
  O   O39       1.0  0.4911508025704805  0.2798888012237697  0.11327387566201003  1.0000
  O   O40       1.0  0.4402414868081408  0.364009509707117  0.10726301197119179  1.0000
  O   O41       1.0  0.35003217629633804  0.8992819499129611  0.06671680782720567  1.0000
  O   O42       1.0  0.24437839488976454  0.8190717742004169  0.9448671285968828  1.0000
  O   O43       1.0  0.9382500591986229  0.4770297937868264  0.7035113121236876  1.0000
  O   O44       1.0  0.9628350526711601  0.6079652279156349  0.7042539836060585  1.0000
