data_image0
_chemical_formula_structural       Fe4H104C100S8N16O16
_chemical_formula_sum              "Fe4 H104 C100 S8 N16 O16"
_cell_length_a       12.160029118000658
_cell_length_b       12.160043370000846
_cell_length_c       24.785485421002058
_cell_angle_alpha    89.99996405106766
_cell_angle_beta     90.00002982767538
_cell_angle_gamma    90.00002301719618

_space_group_name_H-M_alt    "P 1"
_space_group_IT_number       1

loop_
  _space_group_symop_operation_xyz
  'x, y, z'

loop_
  _atom_site_type_symbol
  _atom_site_label
  _atom_site_symmetry_multiplicity
  _atom_site_fract_x
  _atom_site_fract_y
  _atom_site_fract_z
  _atom_site_occupancy
  Fe  Fe1       1.0  0.25000031688536245  0.24999992922548828  0.0808933052024301  1.0000
  Fe  Fe2       1.0  0.7500003077984518  0.7500003939029296  0.5808935861329019  1.0000
  Fe  Fe3       1.0  0.7500004873066858  0.7500001777645762  0.9191064497348763  1.0000
  Fe  Fe4       1.0  0.250000496393973  0.25000053545237216  0.4191065722662159  1.0000
  H   H1        1.0  0.4194103272583974  0.4309779147138498  0.1144984507572744  1.0000
  H   H2        1.0  0.08058869745180171  0.06902272315086576  0.11449846324649832  1.0000
  H   H3        1.0  0.5690197075138457  0.9194084489752183  0.6144978818164192  1.0000
  H   H4        1.0  0.9309792990211463  0.580591473514687  0.614497576738863  1.0000
  H   H5        1.0  0.5805912993010055  0.5690213699096063  0.8855033214899493  1.0000
  H   H6        1.0  0.9194088172752899  0.9309773838375077  0.8855029055381466  1.0000
  H   H7        1.0  0.4309794519452481  0.08059248038026819  0.3855014696586068  1.0000
  H   H8        1.0  0.06902150517047552  0.41940863347589646  0.3855013712745645  1.0000
  H   H9        1.0  0.43898682647033394  0.5879345543933636  0.17910963087480522  1.0000
  H   H10       1.0  0.06101082299657181  0.9120665461185948  0.1791095327073506  1.0000
  H   H11       1.0  0.4120645294756073  0.9389872537026914  0.6791094640170529  1.0000
  H   H12       1.0  0.08793447311298051  0.561014030114947  0.6791094808485312  1.0000
  H   H13       1.0  0.5610123329895487  0.41206390786410907  0.8208921413722408  1.0000
  H   H14       1.0  0.9389875140976829  0.08793602796615117  0.8208922395389494  1.0000
  H   H15       1.0  0.5879346299839128  0.061013675652276285  0.3208906943818519  1.0000
  H   H16       1.0  0.9120655087128215  0.43898607687469837  0.320890677550608  1.0000
  H   H17       1.0  0.1386133855733647  0.4739866610926525  0.2551545197499934  1.0000
  H   H18       1.0  0.36138661081066203  0.026012152266091004  0.2551542137149596  1.0000
  H   H19       1.0  0.5260148945241597  0.6386157664017201  0.7551560483401475  1.0000
  H   H20       1.0  0.9739850836874596  0.8613856210415847  0.7551552642951905  1.0000
  H   H21       1.0  0.8613857738853457  0.526013445897604  0.744844428263228  1.0000
  H   H22       1.0  0.6386141933800289  0.973985487628546  0.7448439273749727  1.0000
  H   H23       1.0  0.4739850873019834  0.36138598531889704  0.24484411005873602  1.0000
  H   H24       1.0  0.026013253405331203  0.13861284121649925  0.2448452975659308  1.0000
  H   H25       1.0  0.13126958694329724  0.3270998921747433  0.1859983409036161  1.0000
  H   H26       1.0  0.36872951366446943  0.17289900957351273  0.1859983949637964  1.0000
  H   H27       1.0  0.6728993730386322  0.6312712939215073  0.6859990607682463  1.0000
  H   H28       1.0  0.827099709395867  0.8687301819123404  0.6859986404218006  1.0000
  H   H29       1.0  0.8687295725158464  0.6729002148149943  0.8140014140334842  1.0000
  H   H30       1.0  0.6312712905264847  0.8270978079551197  0.8140005530501356  1.0000
  H   H31       1.0  0.32710143115379253  0.3687296354337874  0.3140010976308716  1.0000
  H   H32       1.0  0.17289698296439585  0.1312691027106396  0.3140023249009189  1.0000
  H   H33       1.0  0.20744880297554863  0.5781104390381414  0.3210959283039685  1.0000
  H   H34       1.0  0.29255146430990925  0.9218888352682552  0.3210950793015428  1.0000
  H   H35       1.0  0.42189019268545996  0.7074493394275623  0.8210962298637696  1.0000
  H   H36       1.0  0.07811060535625101  0.7925509405487999  0.8210961728726929  1.0000
  H   H37       1.0  0.7925511788504735  0.4218896679512481  0.6789046335571101  1.0000
  H   H38       1.0  0.7074485175155162  0.07811044935615288  0.6789046756357848  1.0000
  H   H39       1.0  0.5781106115064177  0.29254994519701677  0.17890352507366464  1.0000
  H   H40       1.0  0.9218901988360032  0.2074491664410089  0.17890398552655284  1.0000
  H   H41       1.0  0.13862659229627644  0.6675040509811083  0.2739602543752682  1.0000
  H   H42       1.0  0.3613736249538207  0.832494461205087  0.2739590470155449  1.0000
  H   H43       1.0  0.33249645342748124  0.6386280510041188  0.7739605776743161  1.0000
  H   H44       1.0  0.16750429457936633  0.8613739339485134  0.7739601188470646  1.0000
  H   H45       1.0  0.8613733895299591  0.33249605600801857  0.7260407109477499  1.0000
  H   H46       1.0  0.6386263568714413  0.16750400105384233  0.7260407079219107  1.0000
  H   H47       1.0  0.6675043507648939  0.3613737007169247  0.2260391772627344  1.0000
  H   H48       1.0  0.8324956872461798  0.13862699540713658  0.22603923262807507  1.0000
  H   H49       1.0  0.1819538910170806  0.843540360778547  0.39543414984337494  1.0000
  H   H50       1.0  0.31804645518019475  0.6564604632448121  0.39543459948883  1.0000
  H   H51       1.0  0.1564607639248692  0.68195426375793  0.8954348690390505  1.0000
  H   H52       1.0  0.34353929066165995  0.8180459212045219  0.8954348719623156  1.0000
  H   H53       1.0  0.8180460908088918  0.15646056857658408  0.6045660085556364  1.0000
  H   H54       1.0  0.6819535266459911  0.3435404661100634  0.6045659623721207  1.0000
  H   H55       1.0  0.8435392179004637  0.3180466655979756  0.10456407897414272  1.0000
  H   H56       1.0  0.6564598687970503  0.18195418578573444  0.1045640760508988  1.0000
  H   H57       1.0  0.0903471697071296  0.8277419146323054  0.33966440371729323  1.0000
  H   H58       1.0  0.40965229492294963  0.6722581583063414  0.3396640649610844  1.0000
  H   H59       1.0  0.17225837546001097  0.5903477214015352  0.8396643413743803  1.0000
  H   H60       1.0  0.3277424422921698  0.9096525348422798  0.8396647155112973  1.0000
  H   H61       1.0  0.9096528121190561  0.17225901472257016  0.6603361581436574  1.0000
  H   H62       1.0  0.5903468645364072  0.32774194868314044  0.6603360934379552  1.0000
  H   H63       1.0  0.8277432510980564  0.40965238558921147  0.1603346066391538  1.0000
  H   H64       1.0  0.6722575395334259  0.09034757214762115  0.1603350394259024  1.0000
  H   H65       1.0  0.8999818471100909  0.8957038983370608  0.5079525058635213  1.0000
  H   H66       1.0  0.6000186910591127  0.6042969826962618  0.5079525124486963  1.0000
  H   H67       1.0  0.1042967098331218  0.39998214191344766  0.007952589990267702  1.0000
  H   H68       1.0  0.395703846510223  0.10001945449597825  0.0079518664607505  1.0000
  H   H69       1.0  0.10001895708222013  0.10429538628699926  0.4920480559977848  1.0000
  H   H70       1.0  0.3999804684006207  0.39570394665845027  0.4920480494121477  1.0000
  H   H71       1.0  0.8957049167257481  0.6000187874420175  0.9920475684089566  1.0000
  H   H72       1.0  0.6042961353149466  0.8999806524944417  0.9920470815525706  1.0000
  H   H73       1.0  0.0378399563737304  0.8866306136101655  0.43465909795450836  1.0000
  H   H74       1.0  0.4621620761933515  0.6133693379145766  0.4346583872802512  1.0000
  H   H75       1.0  0.1133687537134662  0.5378387900942271  0.9346586484903057  1.0000
  H   H76       1.0  0.386631342509233  0.9621621671015388  0.934657811103463  1.0000
  H   H77       1.0  0.9621624925519114  0.11336867101371689  0.5653422708308824  1.0000
  H   H78       1.0  0.5378370832661686  0.3866315914403911  0.5653417711186535  1.0000
  H   H79       1.0  0.886631228112293  0.4621621392611599  0.0653411064467662  1.0000
  H   H80       1.0  0.6133702840486209  0.03783793988947078  0.0653407334481315  1.0000
  H   H81       1.0  0.9927060200380426  0.5332332169872414  0.434860198317466  1.0000
  H   H82       1.0  0.507295262908869  0.9667677574676001  0.4348592626633662  1.0000
  H   H83       1.0  0.466767569565967  0.49270415349285906  0.934859624599838  1.0000
  H   H84       1.0  0.0332323259663312  0.007295435851389698  0.9348600474723129  1.0000
  H   H85       1.0  0.007298895987119602  0.46676689000261706  0.5651411704681237  1.0000
  H   H86       1.0  0.4927022518179102  0.03323399425251949  0.5651408957352047  1.0000
  H   H87       1.0  0.5332315898932906  0.5072975982281135  0.0651397268750671  1.0000
  H   H88       1.0  0.9667684782250492  0.9927013816767312  0.065139707465498  1.0000
  H   H89       1.0  0.855816589393207  0.558890123349883  0.5084165333249189  1.0000
  H   H90       1.0  0.644183949268296  0.9411107570906764  0.5084160439844183  1.0000
  H   H91       1.0  0.4411116841515864  0.3558146036277065  0.0084162175559541  1.0000
  H   H92       1.0  0.0588888726841574  0.14418534745745853  0.0084166048163112  1.0000
  H   H93       1.0  0.1441875042649556  0.441108338909096  0.49158443199887364  1.0000
  H   H94       1.0  0.35581274309203076  0.058890994629287284  0.49158411441404587  1.0000
  H   H95       1.0  0.5588907647736862  0.6441871480936638  0.9915835373813096  1.0000
  H   H96       1.0  0.941110286774489  0.8558122924358142  0.9915831501211656  1.0000
  H   H97       1.0  0.4380968874751049  0.11097249094189011  0.09871345753364122  1.0000
  H   H98       1.0  0.06190376521184501  0.3890273447328524  0.0987133666897293  1.0000
  H   H99       1.0  0.8890263379276037  0.9380967790412026  0.5987136818224671  1.0000
  H   H100      1.0  0.6109726518529612  0.5619056307190602  0.5987137042613924  1.0000
  H   H101      1.0  0.5619063838165063  0.8890276160484163  0.9012867008659172  1.0000
  H   H102      1.0  0.9380945718808962  0.6109719398909732  0.9012867917093247  1.0000
  H   H103      1.0  0.1109728215325632  0.061904150312997785  0.4012876869622559  1.0000
  H   H104      1.0  0.3890273299736009  0.4380961210010381  0.4012872610613698  1.0000
  C   C1        1.0  0.3576769418829074  0.4457401653663878  0.14552062907122834  1.0000
  C   C2        1.0  0.14232211575766482  0.054260432848238296  0.145520661868467  1.0000
  C   C3        1.0  0.5542607008663651  0.8576775608294438  0.6455208848308303  1.0000
  C   C4        1.0  0.9457399833331337  0.642323144374906  0.6455209679701427  1.0000
  C   C5        1.0  0.6423238623083805  0.5542582968932166  0.8544783189424551  1.0000
  C   C6        1.0  0.8576762213345435  0.9457404965075965  0.8544778826825804  1.0000
  C   C7        1.0  0.4457401033266565  0.14232419089082526  0.35448008049203844  1.0000
  C   C8        1.0  0.05426082085933361  0.3576769626146471  0.3544795938910354  1.0000
  C   C9        1.0  0.3695100092563238  0.5315679634443384  0.1817987045077984  1.0000
  C   C10       1.0  0.13048928779801372  0.9684323112652463  0.1817990101797307  1.0000
  C   C11       1.0  0.4684311582869611  0.8695097150498793  0.6817997661195606  1.0000
  C   C12       1.0  0.0315670247903483  0.6304907429641131  0.6817989402368951  1.0000
  C   C13       1.0  0.6304891502038857  0.4684321435441133  0.8182030677389919  1.0000
  C   C14       1.0  0.8695115163949367  0.031566973358046396  0.8182027620673935  1.0000
  C   C15       1.0  0.531571290638155  0.13049121430600508  0.3181999888178241  1.0000
  C   C16       1.0  0.9684296675688915  0.3695077192944111  0.3182004112381946  1.0000
  C   C17       1.0  0.2890941075448978  0.5457068514749251  0.2219439618910926  1.0000
  C   C18       1.0  0.21090358739078147  0.954292549558609  0.22194388898687833  1.0000
  C   C19       1.0  0.4542930393988769  0.7890971444086002  0.7219446430626917  1.0000
  C   C20       1.0  0.0457068310262869  0.7109049070262117  0.7219446029461877  1.0000
  C   C21       1.0  0.7109058742805274  0.45429243314948303  0.778055793046235  1.0000
  C   C22       1.0  0.7890947497015263  0.04570673506572831  0.7780554624882966  1.0000
  C   C23       1.0  0.5457069424270956  0.21090378494653084  0.2780555153363196  1.0000
  C   C24       1.0  0.9542923284336596  0.2890960223282376  0.27805636237659576  1.0000
  C   C25       1.0  0.20217653858963303  0.4700747009290466  0.22433124673445093  1.0000
  C   C26       1.0  0.2978217803432345  0.0299257965554247  0.2243321336515081  1.0000
  C   C27       1.0  0.5299244210467507  0.7021772378168191  0.7243335642423716  1.0000
  C   C28       1.0  0.9700738797129844  0.7978233666560112  0.7243319918524165  1.0000
  C   C29       1.0  0.7978209761368192  0.5299254060601014  0.7756689116643756  1.0000
  C   C30       1.0  0.7021790238489134  0.970072665703149  0.7756684282099258  1.0000
  C   C31       1.0  0.4700772055122898  0.2978245139041319  0.27566659415671785  1.0000
  C   C32       1.0  0.029923635012274002  0.2021750956031951  0.2756665526989082  1.0000
  C   C33       1.0  0.19816828735257275  0.38676581130763293  0.185869635896502  1.0000
  C   C34       1.0  0.3018316354851863  0.11323391297077728  0.1858696912539841  1.0000
  C   C35       1.0  0.6132334108634155  0.6981682473736723  0.685869935028954  1.0000
  C   C36       1.0  0.8867664938005364  0.8018324062596133  0.6858699539824897  1.0000
  C   C37       1.0  0.8018316944720925  0.6132318285863221  0.8141293121171956  1.0000
  C   C38       1.0  0.6981691687062153  0.8867661940200616  0.8141288532975041  1.0000
  C   C39       1.0  0.38676739332879617  0.3018326819818852  0.3141298199082243  1.0000
  C   C40       1.0  0.11323266565892003  0.19816605599837078  0.3141310113406774  1.0000
  C   C41       1.0  0.21654335436198832  0.6509070728788513  0.2950395393279237  1.0000
  C   C42       1.0  0.28345688526457025  0.84909223473047  0.2950391138870643  1.0000
  C   C43       1.0  0.3490934800003701  0.716544703756966  0.7950402437058911  1.0000
  C   C44       1.0  0.15090646801636612  0.7834564318873944  0.7950402081017529  1.0000
  C   C45       1.0  0.7834558050973683  0.34909303411062353  0.7049606190711089  1.0000
  C   C46       1.0  0.7165439189275207  0.15090704989385267  0.7049610445123093  1.0000
  C   C47       1.0  0.6509073241918415  0.2834562255985844  0.20495951123128722  1.0000
  C   C48       1.0  0.8490926914427704  0.21654367510234343  0.2049595468353402  1.0000
  C   C49       1.0  0.25000054930013965  0.7500004541317931  0.32952503408829875  1.0000
  C   C50       1.0  0.24999999231164344  0.7500001346011229  0.8295257316537956  1.0000
  C   C51       1.0  0.7500002548921216  0.24999965285801548  0.670475124310947  1.0000
  C   C52       1.0  0.7499999895141087  0.25000079475426407  0.1704740232832762  1.0000
  C   C53       1.0  0.1524629796566188  0.785545515633977  0.364572947855585  1.0000
  C   C54       1.0  0.3475373337811618  0.714455347833713  0.3645733871678019  1.0000
  C   C55       1.0  0.21445484617010646  0.652462623996108  0.8645736738296536  1.0000
  C   C56       1.0  0.28554517565693527  0.8475376004106676  0.8645736528628946  1.0000
  C   C57       1.0  0.847537824535806  0.2144554137213176  0.6354272105435328  1.0000
  C   C58       1.0  0.6524626480446402  0.2855447591559325  0.6354267712313373  1.0000
  C   C59       1.0  0.7855443132888239  0.3475374829938857  0.1354256776455003  1.0000
  C   C60       1.0  0.7144556285348997  0.1524625065796599  0.1354256986124724  1.0000
  C   C61       1.0  0.9240368632616625  0.8164221244069907  0.4909897708542985  1.0000
  C   C62       1.0  0.5759636569011874  0.6835787783070298  0.49098934341701295  1.0000
  C   C63       1.0  0.1835774742069773  0.42403654250444583  0.9909892239383354  1.0000
  C   C64       1.0  0.3164224809074057  0.07596461983087718  0.9909888910383415  1.0000
  C   C65       1.0  0.07596476329730711  0.18357716021698414  0.5090111944690534  1.0000
  C   C66       1.0  0.4240355025587164  0.31642297341316805  0.5090112184437032  1.0000
  C   C67       1.0  0.8164216852521662  0.5759635644852917  0.0090105309987649  1.0000
  C   C68       1.0  0.6835783232840458  0.9240346647942201  0.0090100569752138  1.0000
  C   C69       1.0  0.0002948085795751  0.8110108006476576  0.44927370661338273  1.0000
  C   C70       1.0  0.4997055947681588  0.6889891321975341  0.4492729822334737  1.0000
  C   C71       1.0  0.18898946100592443  0.5002936995865069  0.9492732657318399  1.0000
  C   C72       1.0  0.31101065073075074  0.9997072389295237  0.9492732043981035  1.0000
  C   C73       1.0  0.9997059956125653  0.18898766161091624  0.5507268552480582  1.0000
  C   C74       1.0  0.500292742324696  0.31101179715752636  0.5507267727033849  1.0000
  C   C75       1.0  0.8110113431859035  0.4997064074038135  0.050726085743527  1.0000
  C   C76       1.0  0.6889901534611269  0.00029204569505479996  0.050726550539323505  1.0000
  C   C77       1.0  0.028280729492145402  0.7075037873840342  0.4285204509224343  1.0000
  C   C78       1.0  0.47172047419260116  0.7924969943517366  0.4285200909788784  1.0000
  C   C79       1.0  0.2924957867074767  0.5282796535573339  0.9285199994313728  1.0000
  C   C80       1.0  0.207504302999638  0.9717204891178709  0.9285207272151155  1.0000
  C   C81       1.0  0.9717217194331839  0.29249714197159443  0.5714797074768967  1.0000
  C   C82       1.0  0.5282778629006303  0.2075047573685537  0.5714800674197988  1.0000
  C   C83       1.0  0.7075017280187056  0.47172127579781875  0.0714793520434469  1.0000
  C   C84       1.0  0.7924973235587418  0.028277973141129592  0.0714794311844855  1.0000
  C   C85       1.0  0.9749486858239538  0.6151737008700946  0.4501558289903969  1.0000
  C   C86       1.0  0.5250517909929968  0.8848272540349168  0.4501549231077391  1.0000
  C   C87       1.0  0.38482862558879566  0.47494678928039485  0.9501556658951957  1.0000
  C   C88       1.0  0.1151721085468722  0.025052780513824792  0.9501561042183511  1.0000
  C   C89       1.0  0.0250537631012619  0.38482558375429937  0.5498447328711222  1.0000
  C   C90       1.0  0.47494572373319244  0.11517367532023567  0.5498444283670807  1.0000
  C   C91       1.0  0.6151730009694846  0.525053317710096  0.049843685580278  1.0000
  C   C92       1.0  0.8848278732786526  0.9749448593791002  0.049844457643104106  1.0000
  C   C93       1.0  0.8996725751238873  0.6293413719042531  0.4915853063763151  1.0000
  C   C94       1.0  0.6003279456711043  0.8706595300486268  0.491584827538091  1.0000
  C   C95       1.0  0.37066008085553653  0.3996707126503195  0.9915847613943499  1.0000
  C   C96       1.0  0.12934069725731942  0.10032880419279878  0.9915847766877166  1.0000
  C   C97       1.0  0.1003306961682  0.3706579127197925  0.5084160624091822  1.0000
  C   C98       1.0  0.39966956905589524  0.12934222167123716  0.5084157343224192  1.0000
  C   C99       1.0  0.6293415457029569  0.6003293943399085  0.0084149935430631  1.0000
  C   C100      1.0  0.870659284567779  0.8996688357006375  0.008414978249867  1.0000
  S   S1        1.0  0.4514397977324621  0.21774185793550765  0.08576191109954581  1.0000
  S   S2        1.0  0.04856001883985781  0.2822579942926851  0.0857618497342045  1.0000
  S   S3        1.0  0.7822568525594421  0.9514404682845877  0.5857621344430656  1.0000
  S   S4        1.0  0.7177421234728172  0.5485603132980542  0.5857625917134683  1.0000
  S   S5        1.0  0.5485610064589894  0.7822574266895825  0.9142370369140096  1.0000
  S   S6        1.0  0.9514391406190726  0.7177421126973158  0.9142375017409491  1.0000
  S   S7        1.0  0.21774312926614675  0.04855963870531349  0.4142376204941343  1.0000
  S   S8        1.0  0.2822562136200872  0.4514397936912572  0.4142375666854576  1.0000
  N   N1        1.0  0.2725513093641966  0.374526586090866  0.1461185597646519  1.0000
  N   N2        1.0  0.22744774891097563  0.12547236662830127  0.14611899582358492  1.0000
  N   N3        1.0  0.6254718622450143  0.7725504112585994  0.6461184341622612  1.0000
  N   N4        1.0  0.8745271778558676  0.7274502931817038  0.6461184729009873  1.0000
  N   N5        1.0  0.7274478500952101  0.625472698532867  0.8538820020964407  1.0000
  N   N6        1.0  0.7725530552811719  0.8745260956302727  0.8538815660378489  1.0000
  N   N7        1.0  0.3745289419468208  0.22744969573172102  0.3538809173131057  1.0000
  N   N8        1.0  0.12547115923682384  0.2725498138078705  0.3538812820359993  1.0000
  N   N9        1.0  0.8741389504581535  0.7282752106925016  0.5131039303823358  1.0000
  N   N10       1.0  0.6258607708128636  0.7717256637565482  0.5131038919968631  1.0000
  N   N11       1.0  0.2717264051368602  0.3741385144191796  0.013104017377060002  1.0000
  N   N12       1.0  0.2282741566750133  0.12586225304013243  0.0131040500650457  1.0000
  N   N13       1.0  0.12586267610043933  0.271723251566243  0.48689663147920476  1.0000
  N   N14       1.0  0.3741375662802042  0.22827526559825628  0.486896266401935  1.0000
  N   N15       1.0  0.7282760437880854  0.625861592571219  0.9868957375604525  1.0000
  N   N16       1.0  0.7717258251504193  0.8741370315842827  0.9868957048722822  1.0000
  O   O1        1.0  0.1030634205643466  0.6897621146825369  0.38890211466682706  1.0000
  O   O2        1.0  0.39693691869850073  0.8102378953245973  0.38890173016596924  1.0000
  O   O3        1.0  0.3102383369025574  0.6030623104549164  0.8889020451073507  1.0000
  O   O4        1.0  0.18976171074932324  0.8969370604915592  0.8889023879326672  1.0000
  O   O5        1.0  0.896936561261299  0.3102371699416224  0.61109804373244  1.0000
  O   O6        1.0  0.6030622407608065  0.18976303403062633  0.6110980247709961  1.0000
  O   O7        1.0  0.6897616449222711  0.3969361518045246  0.11109690290622612  1.0000
  O   O8        1.0  0.8102382710762728  0.10306304649834885  0.11109736700453252  1.0000
  O   O9        1.0  0.30213687480629403  0.6320404060931892  0.2558399981180202  1.0000
  O   O10       1.0  0.19786332320974515  0.8679589516176235  0.255839948475149  1.0000
  O   O11       1.0  0.36795856279641737  0.8021381773175164  0.7558410813526706  1.0000
  O   O12       1.0  0.13204052124351057  0.6978638307936504  0.7558406638329274  1.0000
  O   O13       1.0  0.6978622846527288  0.3679580561653139  0.7441601602812682  1.0000
  O   O14       1.0  0.8021374809826796  0.13204197773767845  0.7441602099239688  1.0000
  O   O15       1.0  0.6320414190293349  0.1978627520378707  0.24415867358440124  1.0000
  O   O16       1.0  0.8679586382156332  0.30213627619608724  0.24415909110416578  1.0000
