data_image0
_chemical_formula_structural       Cd2H44C48S4N8O12
_chemical_formula_sum              "Cd2 H44 C48 S4 N8 O12"
_cell_length_a       5.586975868
_cell_length_b       14.161960606379893
_cell_length_c       15.169
_cell_angle_alpha    90.0
_cell_angle_beta     90.0
_cell_angle_gamma    94.4835810732761

_space_group_name_H-M_alt    "P 1"
_space_group_IT_number       1

loop_
  _space_group_symop_operation_xyz
  'x, y, z'

loop_
  _atom_site_type_symbol
  _atom_site_label
  _atom_site_symmetry_multiplicity
  _atom_site_fract_x
  _atom_site_fract_y
  _atom_site_fract_z
  _atom_site_occupancy
  Cd  Cd1       1.0  0.5000084420435229  0.500000643122263  0.4999980222822842  1.0000
  Cd  Cd2       1.0  0.9999882104377138  0.0  0.9999967038038091  1.0000
  H   H1        1.0  0.8974831764707005  0.402837476947397  0.6314107719691506  1.0000
  H   H2        1.0  0.6025159676391072  0.0971667075970046  0.13140747577295994  1.0000
  H   H3        1.0  0.1025487283844129  0.5971673507192676  0.36858197639923407  1.0000
  H   H4        1.0  0.3974540989435056  0.9028331620786574  0.8685786802030433  1.0000
  H   H5        1.0  0.9352727173273082  0.242967057186938  0.7072489946601619  1.0000
  H   H6        1.0  0.5647250579563305  0.2570392522107525  0.20724503922473755  1.0000
  H   H7        1.0  0.06475711695013331  0.7570363539108698  0.2927457314259314  1.0000
  H   H8        1.0  0.4352378491179962  0.7429606174649095  0.7927444129474563  1.0000
  H   H9        1.0  0.2332106249598951  0.3002488520508422  0.5318610323686455  1.0000
  H   H10       1.0  0.2667814274893914  0.1997503745025568  0.0318518030193147  1.0000
  H   H11       1.0  0.7668204377934132  0.6997517259092447  0.4681369899136385  1.0000
  H   H12       1.0  0.7331882180423153  0.8002473703198234  0.9681383083921131  1.0000
  H   H13       1.0  0.5261471769023771  0.0022686350242225  0.6227503461006023  1.0000
  H   H14       1.0  0.9738636542451219  0.4977312998136085  0.12275034610060227  1.0000
  H   H15       1.0  0.47385745874577634  0.9977340677891533  0.37726217944491935  1.0000
  H   H16       1.0  0.026125679934359904  0.5022664450087717  0.8772588832487287  1.0000
  H   H17       1.0  0.3633087511401527  0.037925798004089  0.7161863010086333  1.0000
  H   H18       1.0  0.1367014461036078  0.4620656374206007  0.2161856417693997  1.0000
  H   H19       1.0  0.6366819865423353  0.9620790296625756  0.2838222691014565  1.0000
  H   H20       1.0  0.8632994347632703  0.537927149410784  0.7838222691014565  1.0000
  H   H21       1.0  0.4288133066114029  0.85190963652866  0.5594231656668214  1.0000
  H   H22       1.0  0.07120190950570301  0.6480901679848401  0.059431076537677485  1.0000
  H   H23       1.0  0.5711877839594379  0.148102273982289  0.4405748566154628  1.0000
  H   H24       1.0  0.9287809322401731  0.3519019105621126  0.9405741973762287  1.0000
  H   H25       1.0  0.17471729206269523  0.7001618225933015  0.5542290197112507  1.0000
  H   H26       1.0  0.3253010827576547  0.7998358570669097  0.0542342936251572  1.0000
  H   H27       1.0  0.8253060844579636  0.29984512992664497  0.4457690025710335  1.0000
  H   H28       1.0  0.6746748801805396  0.2001576380488999  0.9457650471356087  1.0000
  H   H29       1.0  0.6533641121238533  0.8197712305891756  0.7198266200804255  1.0000
  H   H30       1.0  0.8466661279101972  0.6802193662267513  0.21982266464500094  1.0000
  H   H31       1.0  0.34666017749524514  0.180222264526634  0.2801812907904306  1.0000
  H   H32       1.0  0.1533292776520057  0.31978192001776756  0.7801727206803335  1.0000
  H   H33       1.0  0.9073753072706341  0.9713710130789934  0.7260247873953458  1.0000
  H   H34       1.0  0.5926535639372403  0.5286217085902223  0.22602544663458696  1.0000
  H   H35       1.0  0.0926279248745132  0.0286246068900979  0.2739851011932259  1.0000
  H   H36       1.0  0.4073539497135528  0.47137745280101473  0.7739791680400785  1.0000
  H   H37       1.0  0.6578141874115462  0.4273568672903849  0.3517621464829617  1.0000
  H   H38       1.0  0.8421841145964565  0.0726430675474461  0.8517614872437207  1.0000
  H   H39       1.0  0.3421970463436851  0.5726430023852843  0.6482371942778042  1.0000
  H   H40       1.0  0.1578008324039217  0.9273596352659297  0.14823653503856343  1.0000
  H   H41       1.0  0.9166337959106698  0.4455477362654534  0.3998312347550907  1.0000
  H   H42       1.0  0.5833612070437938  0.05445361514123451  0.8998285977981408  1.0000
  H   H43       1.0  0.08337964877253512  0.5544542582634975  0.6001654690487186  1.0000
  H   H44       1.0  0.4166175282235685  0.9455448379655707  0.10016546904871858  1.0000
  C   C1        1.0  0.7603613329526625  0.3440378285533825  0.6253846660953286  1.0000
  C   C2        1.0  0.7396356002291712  0.1559642311377303  0.12538136989913795  1.0000
  C   C3        1.0  0.23967387095598985  0.6559655825444253  0.3746094007515309  1.0000
  C   C4        1.0  0.26033046554839256  0.84403351368465  0.8746074230338222  1.0000
  C   C5        1.0  0.7828173139302166  0.256674485730116  0.6654683894785407  1.0000
  C   C6        1.0  0.7171855502840287  0.24333040709871773  0.16546509328235  1.0000
  C   C7        1.0  0.21719834168095536  0.7433296336521167  0.33452633660755277  1.0000
  C   C8        1.0  0.2827915354565604  0.7566687542925195  0.8345269958467936  1.0000
  C   C9        1.0  0.3937984108399065  0.2867992390396097  0.5690744281099638  1.0000
  C   C10       1.0  0.10620715320097672  0.213204945504792  0.0690678357175827  1.0000
  C   C11       1.0  0.6062154548941976  0.7132048803426301  0.4309235941723272  1.0000
  C   C12       1.0  0.8937828827300083  0.7867963407397269  0.9309249126508019  1.0000
  C   C13       1.0  0.42640312806283026  0.1972777535629504  0.6060148988067766  1.0000
  C   C14       1.0  0.0735969259965401  0.3027257226970264  0.10601028413211107  1.0000
  C   C15       1.0  0.5736174761286534  0.8027242409660005  0.3939864196716982  1.0000
  C   C16       1.0  0.9263801597440563  0.6972734386942108  0.893986419671698  1.0000
  C   C17       1.0  0.3457434099749008  0.0112277247592871  0.6483420133166289  1.0000
  C   C18       1.0  0.1542662605444889  0.48877008522526205  0.1483446502735859  1.0000
  C   C19       1.0  0.6542577862694117  0.9887756863385206  0.3516658975542199  1.0000
  C   C20       1.0  0.8457244424611617  0.5112255347438364  0.8516639198365112  1.0000
  C   C21       1.0  0.186308516846232  0.9212641394749639  0.6432118135671416  1.0000
  C   C22       1.0  0.3137115075008907  0.5787328319008225  0.14321708748104806  1.0000
  C   C23       1.0  0.8136999792566615  0.0787399799072759  0.3567941195859987  1.0000
  C   C24       1.0  0.6862758964512282  0.4212642046371258  0.8567881864328581  1.0000
  C   C25       1.0  0.2580434716981159  0.8445236465091099  0.5945124925835614  1.0000
  C   C26       1.0  0.2419729728948639  0.6554733248666693  0.0945197442151766  1.0000
  C   C27       1.0  0.7419580052467937  0.1554811811575547  0.4054868481772047  1.0000
  C   C28       1.0  0.7580228190414007  0.34452087853356517  0.9054848704594889  1.0000
  C   C29       1.0  0.115846422443596  0.759307822072806  0.5919618959720481  1.0000
  C   C30       1.0  0.38417167167614963  0.7406884410185484  0.0919665106467136  1.0000
  C   C31       1.0  0.884171023044651  0.2406962973094267  0.4080387632671929  1.0000
  C   C32       1.0  0.615814749823862  0.2593036375284044  0.9080334893532862  1.0000
  C   C33       1.0  0.8981630335401364  0.7488606267536397  0.6380730437075639  1.0000
  C   C34       1.0  0.6018606083868293  0.7511328032000009  0.13807172522908215  1.0000
  C   C35       1.0  0.10186195783045802  0.2511364097843156  0.3619342079240582  1.0000
  C   C36       1.0  0.39811963605700385  0.2488642333379474  0.8619289340101515  1.0000
  C   C37       1.0  0.8246886552605375  0.8266777120506816  0.6855699123211776  1.0000
  C   C38       1.0  0.6753490249823956  0.673314301334102  0.18556595688575325  1.0000
  C   C39       1.0  0.1753344058826869  0.1733186162028417  0.3144426132243368  1.0000
  C   C40       1.0  0.3246408705982944  0.32668627662599187  0.8144373393104374  1.0000
  C   C41       1.0  0.9661795137830892  0.911816333484289  0.688261586129606  1.0000
  C   C42       1.0  0.53384370709297  0.5881749716160698  0.188261586129606  1.0000
  C   C43       1.0  0.0338365282021513  0.0881807030536663  0.31174764321972487  1.0000
  C   C44       1.0  0.4661487857897556  0.4118206483530287  0.8117463247412502  1.0000
  C   C45       1.0  0.7410437678951568  0.6577192947891888  0.6350965785483567  1.0000
  C   C46       1.0  0.7589714860476564  0.8422769683021727  0.1350972377875905  1.0000
  C   C47       1.0  0.2589695364377463  0.3422819914553372  0.3649080361263088  1.0000
  C   C48       1.0  0.24101605825475766  0.1577207765202076  0.8649027622124095  1.0000
  S   S1        1.0  0.21565481025617572  0.102682118441102  0.5833601423956765  1.0000
  S   S2        1.0  0.2843557023650192  0.3973199412500179  0.0833568461994858  1.0000
  S   S3        1.0  0.7843642847588443  0.8973212926567058  0.4166418353220393  1.0000
  S   S4        1.0  0.7156285428838559  0.6026792201412191  0.9166444722789888  1.0000
  N   N1        1.0  0.5629170706133237  0.3581411880920555  0.5772239435691233  1.0000
  N   N2        1.0  0.9370780726914418  0.1418608715990644  0.0772219658514075  1.0000
  N   N3        1.0  0.4371093242602768  0.6418629312901842  0.42277012327773617  1.0000
  N   N4        1.0  0.06289350306763453  0.8581375815077409  0.922771441756211  1.0000
  N   N5        1.0  0.6192180285833829  0.1832338899162664  0.655315445975347  1.0000
  N   N6        1.0  0.8807878539838043  0.3167681697748463  0.15531149053991555  1.0000
  N   N7        1.0  0.3808125074455618  0.8167730626036801  0.34468521326389373  1.0000
  N   N8        1.0  0.11918688047851592  0.683228158478677  0.8446838947854187  1.0000
  O   O1        1.0  0.8044137413584381  0.591967126445823  0.5821985628584583  1.0000
  O   O2        1.0  0.6955887027442813  0.9080277200766816  0.0822018590546492  1.0000
  O   O3        1.0  0.19559391264265713  0.4080327432298461  0.41779945942382557  1.0000
  O   O4        1.0  0.3043966306301584  0.0919678998924169  0.917796163227635  1.0000
  O   O5        1.0  0.7657309808435714  0.47561724338952877  0.38531610521458487  1.0000
  O   O6        1.0  0.7342637414102953  0.0243826914483023  0.8853154459753438  1.0000
  O   O7        1.0  0.23428067396256583  0.5243847511394222  0.6146779616322745  1.0000
  O   O8        1.0  0.2657167837341419  0.9756157616585028  0.1146759839145659  1.0000
  O   O9        1.0  0.5537869443760429  0.6505479149514528  0.6817839013778126  1.0000
  O   O10       1.0  0.9462269407406014  0.8494504729931904  0.1817832421385717  1.0000
  O   O11       1.0  0.4462275884327341  0.3494505381553594  0.3182187355791441  1.0000
  O   O12       1.0  0.0537590943853417  0.1505486883980467  0.8182154393829533  1.0000
