data_image0
_chemical_formula_structural       Cd4H36C44N8O16
_chemical_formula_sum              "Cd4 H36 C44 N8 O16"
_cell_length_a       7.96568771
_cell_length_b       8.155855647461268
_cell_length_c       16.788
_cell_angle_alpha    90.0
_cell_angle_beta     90.0
_cell_angle_gamma    98.50098143019085

_space_group_name_H-M_alt    "P 1"
_space_group_IT_number       1

loop_
  _space_group_symop_operation_xyz
  'x, y, z'

loop_
  _atom_site_type_symbol
  _atom_site_label
  _atom_site_symmetry_multiplicity
  _atom_site_fract_x
  _atom_site_fract_y
  _atom_site_fract_z
  _atom_site_occupancy
  Cd  Cd1       1.0  0.1271566401089572  0.2896860387948195  0.2640856564212513  1.0000
  Cd  Cd2       1.0  0.37284380555382773  0.7103114862012989  0.7640856564212513  1.0000
  Cd  Cd3       1.0  0.8728438845244638  0.7103152054016846  0.7359143435787487  1.0000
  Cd  Cd4       1.0  0.62715471313345  0.2896847990613551  0.2359143435787487  1.0000
  H   H1        1.0  0.7885354729133737  0.6935155772467425  0.3290052418394112  1.0000
  H   H2        1.0  0.7114629371041019  0.3064831874828329  0.8290046461758391  1.0000
  H   H3        1.0  0.21146737484838957  0.3064844272162972  0.6709953538241606  1.0000
  H   H4        1.0  0.2885330708144025  0.6935130977798212  0.17099416249702404  1.0000
  H   H5        1.0  0.8630764090592891  0.9214504922575202  0.226565403859901  1.0000
  H   H6        1.0  0.6369221885986249  0.0785495122055195  0.7265642125327645  1.0000
  H   H7        1.0  0.1369255585989606  0.0785519916724482  0.7734351918036708  1.0000
  H   H8        1.0  0.36307381931987953  0.9214467730571345  0.2734351918036708  1.0000
  H   H9        1.0  0.9256056435544548  0.6282795626986584  0.48793483440552876  1.0000
  H   H10       1.0  0.574393646566527  0.3717167225639955  0.9879348344055287  1.0000
  H   H11       1.0  0.0743943181576512  0.3717179622974527  0.5120645699308994  1.0000
  H   H12       1.0  0.4256041796576753  0.6282832818990514  0.0120633786037629  1.0000
  H   H13       1.0  0.3592161860259894  0.9907714285656655  0.5431325947105063  1.0000
  H   H14       1.0  0.14078319189285077  0.009227336163917204  0.0431308077197983  1.0000
  H   H15       1.0  0.6407830832230488  0.0092298156308388  0.4568691922802017  1.0000
  H   H16       1.0  0.8592164526370567  0.9907763874995155  0.9568691922802017  1.0000
  H   H17       1.0  0.34025746008160246  0.1333841630003789  0.41116452227781497  1.0000
  H   H18       1.0  0.15974103773372408  0.866617081196118  0.9111627352871066  1.0000
  H   H19       1.0  0.6597419968078669  0.8666183209295824  0.5888378603764579  1.0000
  H   H20       1.0  0.840258231515314  0.1333841630003789  0.0888384560400297  1.0000
  H   H21       1.0  0.2697609818450601  0.5433181490233352  0.4130861329521096  1.0000
  H   H22       1.0  0.2302385837142111  0.45668185543971174  0.9130867286156813  1.0000
  H   H23       1.0  0.7302404228918746  0.4566806157062474  0.5869120800571821  1.0000
  H   H24       1.0  0.7697592425099912  0.5433181490233352  0.0869132713843186  1.0000
  H   H25       1.0  0.4119855607658423  0.7237241625357598  0.3857987848463154  1.0000
  H   H26       1.0  0.08801419243387437  0.2762770816607443  0.8857987848463154  1.0000
  H   H27       1.0  0.588017286995921  0.2762758419272799  0.6141994281629761  1.0000
  H   H28       1.0  0.9119848891747251  0.7237229228022954  0.1142012151536846  1.0000
  H   H29       1.0  0.6365187324643387  0.6432208303928064  0.4736162735287124  1.0000
  H   H30       1.0  0.8634811205779584  0.3567791740702405  0.973616869192277  1.0000
  H   H31       1.0  0.3634801615038157  0.35677793433677624  0.5263837264712874  1.0000
  H   H32       1.0  0.1365194040554627  0.6432220701262636  0.0263837264712876  1.0000
  H   H33       1.0  0.4503392623069615  0.6674836539940401  0.5261389087443433  1.0000
  H   H34       1.0  0.049660115611871405  0.3325151107355425  0.0261389087443433  1.0000
  H   H35       1.0  0.5496583762768026  0.3325151107355425  0.473860495592092  1.0000
  H   H36       1.0  0.9503389659967212  0.6674848937275044  0.9738616869192284  1.0000
  C   C1        1.0  0.9349636067421303  0.9103784327008955  0.2806516559447232  1.0000
  C   C2        1.0  0.5650362463001742  0.0896215717621445  0.7806510602811514  1.0000
  C   C3        1.0  0.0650396163005098  0.08962405122906603  0.7193489397188486  1.0000
  C   C4        1.0  0.4349612046431588  0.9103759532339737  0.2193501310459851  1.0000
  C   C5        1.0  0.11969771317067311  0.958664811345038  0.37609661663092436  1.0000
  C   C6        1.0  0.38030310777298837  0.0413351931180017  0.876095425303788  1.0000
  C   C7        1.0  0.8803026238223095  0.0413351931180017  0.6239039790326399  1.0000
  C   C8        1.0  0.619694718451214  0.958664811345038  0.1239027877055037  1.0000
  C   C9        1.0  0.0066047916972494115  0.8135540095196561  0.3965195377650729  1.0000
  C   C10       1.0  0.4933940813989537  0.1864497141437695  0.896519537765073  1.0000
  C   C11       1.0  0.9933971759610002  0.1864484744103052  0.6034804622349268  1.0000
  C   C12       1.0  0.5066037448252558  0.8135502903192702  0.1034792709077905  1.0000
  C   C13       1.0  0.0152504853365514  0.7355536992381744  0.4697921134143427  1.0000
  C   C14       1.0  0.4847478248383368  0.2644463052248653  0.9697933047414792  1.0000
  C   C15       1.0  0.9847500392968696  0.2644475449583297  0.530207886585657  1.0000
  C   C16       1.0  0.5152525121546458  0.7355536992381744  0.0302055039313771  1.0000
  C   C17       1.0  0.1430228713614099  0.8047320661980919  0.5219025494400782  1.0000
  C   C18       1.0  0.3569763189169919  0.19526545879802634  0.021901953776506392  1.0000
  C   C19       1.0  0.8569787210159631  0.1952679382649478  0.4780980462234936  1.0000
  C   C20       1.0  0.643024018075991  0.8047345456650137  0.9780992375506301  1.0000
  C   C21       1.0  0.2619864744865766  0.9438909076683828  0.49984334048129847  1.0000
  C   C22       1.0  0.23801271579182529  0.0561066173277354  0.9998421491541548  1.0000
  C   C23       1.0  0.7380138625064063  0.056109096794656914  0.5001578508458451  1.0000
  C   C24       1.0  0.7619901319699381  0.9438933871353044  0.0001578508458451  1.0000
  C   C25       1.0  0.2523368329730289  0.0229970557356722  0.4272045508696677  1.0000
  C   C26       1.0  0.2476634250493248  0.9769992295269747  0.9272033595425313  1.0000
  C   C27       1.0  0.747662436276002  0.9770041884608249  0.5727978317846052  1.0000
  C   C28       1.0  0.7523325828691795  0.0229970557356722  0.0727972361210405  1.0000
  C   C29       1.0  0.14739078769629543  0.738496826478958  0.6050476530855349  1.0000
  C   C30       1.0  0.3526109133508797  0.2615006985171604  0.10504705742197017  1.0000
  C   C31       1.0  0.8526091740158107  0.2615006985171604  0.3949529425780297  1.0000
  C   C32       1.0  0.6473910543073698  0.738501785412808  0.8949529425780298  1.0000
  C   C33       1.0  0.4767861029564813  0.4971417967329402  0.3395913747915174  1.0000
  C   C34       1.0  0.023214905627625595  0.5028594474635568  0.8395913747915171  1.0000
  C   C35       1.0  0.5232176249087956  0.5028557282631709  0.6604086252084826  1.0000
  C   C36       1.0  0.9767854313653572  0.4971405569994829  0.1604086252084826  1.0000
  C   C37       1.0  0.40419874898881863  0.5936389302799938  0.4045335954253062  1.0000
  C   C38       1.0  0.09580100421089101  0.4063623139165103  0.904533595425306  1.0000
  C   C39       1.0  0.5958026557481163  0.4063598344495816  0.5954658089111291  1.0000
  C   C40       1.0  0.9041995204225299  0.5936389302799938  0.0954670002382656  1.0000
  C   C41       1.0  0.5034550713360986  0.5874886125708443  0.4830462234929698  1.0000
  C   C42       1.0  0.9965435263218152  0.4125113918921954  0.9830468191565416  1.0000
  C   C43       1.0  0.49654670868171275  0.4125126316256598  0.5169525851798937  1.0000
  C   C44       1.0  0.0034516014931753975  0.5874873728373871  0.0169531808434584  1.0000
  N   N1        1.0  0.07029805802356752  0.0167066481452238  0.3031677388610916  1.0000
  N   N2        1.0  0.42970131989527266  0.9832921165843516  0.8031671431975198  1.0000
  N   N3        1.0  0.9297037219942438  0.9832945960512731  0.6968328568024802  1.0000
  N   N4        1.0  0.570296131048053  0.0167054084117666  0.1968334524660449  1.0000
  N   N5        1.0  0.8931062269581532  0.7865922861698211  0.33380033357159516  1.0000
  N   N6        1.0  0.606893626084144  0.2134077182932188  0.8338003335715953  1.0000
  N   N7        1.0  0.10689536541921998  0.2134077182932188  0.6661996664284044  1.0000
  N   N8        1.0  0.3931043877804967  0.7865935259032855  0.16619966642840464  1.0000
  O   O1        1.0  0.39449241354728304  0.3567977700721769  0.31705682630450127  1.0000
  O   O2        1.0  0.10550608426803625  0.6432034741243202  0.8170556349773648  1.0000
  O   O3        1.0  0.6055102465740347  0.6432009946573984  0.6829425780319268  1.0000
  O   O4        1.0  0.8944917419561662  0.35679653033871983  0.1829431736954987  1.0000
  O   O5        1.0  0.6218829566818371  0.5482894802093199  0.30996902549440347  1.0000
  O   O6        1.0  0.8781172716413437  0.4517130037206486  0.8099696211579681  1.0000
  O   O7        1.0  0.37812290667133647  0.4517055653198696  0.6900327614963047  1.0000
  O   O8        1.0  0.1218821852481327  0.5482894802093199  0.1900309745055964  1.0000
  O   O9        1.0  0.27568955164716874  0.7967209085612199  0.6469668811055485  1.0000
  O   O10       1.0  0.2243146601687869  0.20327661643489145  0.1469674767691203  1.0000
  O   O11       1.0  0.7243139885776699  0.203275376701427  0.3530331188944515  1.0000
  O   O12       1.0  0.7756860521050726  0.7967258674950699  0.8530331188944515  1.0000
  O   O13       1.0  0.021308888368942295  0.6341224265090233  0.6284840362163422  1.0000
  O   O14       1.0  0.47869300031867806  0.3658763382205521  0.1284834405527775  1.0000
  O   O15       1.0  0.9786901932396572  0.3658775779540164  0.3715159637836578  1.0000
  O   O16       1.0  0.5213073366743046  0.6341236662424878  0.8715159637836578  1.0000
