data_image0
_chemical_formula_structural       Al6H42C96N2O32
_chemical_formula_sum              "Al6 H42 C96 N2 O32"
_cell_length_a       12.4409471645479
_cell_length_b       12.397105707789207
_cell_length_c       27.80622172059672
_cell_angle_alpha    88.81422019636557
_cell_angle_beta     89.49487708164486
_cell_angle_gamma    60.766276747023106

_space_group_name_H-M_alt    "P 1"
_space_group_IT_number       1

loop_
  _space_group_symop_operation_xyz
  'x, y, z'

loop_
  _atom_site_type_symbol
  _atom_site_label
  _atom_site_symmetry_multiplicity
  _atom_site_fract_x
  _atom_site_fract_y
  _atom_site_fract_z
  _atom_site_occupancy
  Al  Al1       1.0  0.5891570912559984  0.8110515888957226  0.5039250780295744  1.0000
  Al  Al2       1.0  0.3436014225457526  0.07627980173008102  0.50044992571177  1.0000
  Al  Al3       1.0  0.586187869805883  0.07208179714005068  0.5001236181833093  1.0000
  Al  Al4       1.0  0.08387245412201588  0.8410003767292907  0.01606682145395409  1.0000
  Al  Al5       1.0  0.08733641566283967  0.5803920114741673  0.016881984850336096  1.0000
  Al  Al6       1.0  0.33061829856575997  0.5752723165590014  0.0167558389059081  1.0000
  H   H1        1.0  0.17062065473560034  0.2903422485439933  0.789355059022455  1.0000
  H   H2        1.0  0.1402309414191761  0.4696534535752762  0.7177588528024258  1.0000
  H   H3        1.0  0.38758738409921273  0.1153170790349094  0.7422995186433424  1.0000
  H   H4        1.0  0.5287028437957274  0.18841011882804543  0.7993106814713684  1.0000
  H   H5        1.0  0.49819475751915127  0.3677335558092309  0.7276912860803647  1.0000
  H   H6        1.0  0.2812907313319783  0.5426952133169536  0.774732791533708  1.0000
  H   H7        1.0  0.8033351444548132  0.025976379524564698  0.7945841184102775  1.0000
  H   H8        1.0  0.9839836271286367  0.8896733468793343  0.7241603791383538  1.0000
  H   H9        1.0  0.6267388888176836  0.997330818483043  0.7402113317556953  1.0000
  H   H10       1.0  0.6878909686394863  0.7761116105695365  0.7935279191177925  1.0000
  H   H11       1.0  0.8687258316885287  0.6396264888072665  0.7231450295730468  1.0000
  H   H12       1.0  0.04527586217717061  0.6683732999988338  0.7774937449397114  1.0000
  H   H13       1.0  0.5389152757555066  0.667418185179251  0.7825605893673779  1.0000
  H   H14       1.0  0.3750887979179324  0.6443098321072681  0.7184192167198802  1.0000
  H   H15       1.0  0.48671889829775217  0.8927094851265311  0.7351913172003393  1.0000
  H   H16       1.0  0.29059970995290035  0.0231188549093417  0.8014120774934596  1.0000
  H   H17       1.0  0.1266645005431499  2.6147407460499835e-05  0.737342409139238  1.0000
  H   H18       1.0  0.17911817995896226  0.7744420497003687  0.7847407637733281  1.0000
  H   H19       1.0  0.11388296977834492  0.42513648973956464  0.1440393070747206  1.0000
  H   H20       1.0  0.18016086943369905  0.3186295018035635  0.3853168771891546  1.0000
  H   H21       1.0  0.024830088972016957  0.41486322083983396  0.2241809889985333  1.0000
  H   H22       1.0  0.046037611844660396  0.3848254350533367  0.31182643083253225  1.0000
  H   H23       1.0  0.49254758961062345  0.33881282107923744  0.1336672678099262  1.0000
  H   H24       1.0  0.6270646180034942  0.2693445728713044  0.2067276263191644  1.0000
  H   H25       1.0  0.6480250860464594  0.2401907296005419  0.294928081674513  1.0000
  H   H26       1.0  0.5591236799522931  0.23114559604822202  0.3744397110766683  1.0000
  H   H27       1.0  0.9274477425103955  0.9414590755958514  0.1375286543459922  1.0000
  H   H28       1.0  0.7850994678404388  0.028251232213513302  0.374056726279683  1.0000
  H   H29       1.0  0.9011979789088398  0.05946676939639421  0.21218703853239865  1.0000
  H   H30       1.0  0.8539532228162443  0.08663873497226858  0.2993998238532356  1.0000
  H   H31       1.0  0.8775984901266225  0.6222529624311335  0.1402481821961885  1.0000
  H   H32       1.0  0.8170221219562773  0.5568389410651022  0.2162360485953627  1.0000
  H   H33       1.0  0.7366669008916489  0.7091494199796456  0.3796667946200287  1.0000
  H   H34       1.0  0.4230820561335235  0.5803034917177214  0.15406387278264327  1.0000
  H   H35       1.0  0.4711948060441102  0.6819019701296937  0.3894337101442318  1.0000
  H   H36       1.0  0.4971075111179885  0.499162997122859  0.23658463526838594  1.0000
  H   H37       1.0  0.5108676610430578  0.5350700317330706  0.3227240324524913  1.0000
  H   H38       1.0  0.2016639059378278  0.1212998177775617  0.19235783944870377  1.0000
  H   H39       1.0  0.21416245612268625  0.154855632151282  0.27792647254524633  1.0000
  H   H40       1.0  0.2693575020521947  0.07392608756286731  0.3617853497552375  1.0000
  H   H41       1.0  0.6815637143839552  0.610025160119804  0.5368764084477746  1.0000
  H   H42       1.0  0.0325813155145909  0.04690738750704068  0.9975917791011923  1.0000
  C   C1        1.0  0.36966799777674453  0.9023262941189855  0.5697040228408099  1.0000
  C   C2        1.0  0.3972403764640334  0.21058737902842495  0.5694692282883267  1.0000
  C   C3        1.0  0.7246047851157866  0.8992066493956801  0.5694026183897518  1.0000
  C   C4        1.0  0.3841853942130695  0.9027345553603608  0.4314362749341356  1.0000
  C   C5        1.0  0.39455490193369513  0.2259159247753288  0.4353216472043186  1.0000
  C   C6        1.0  0.71466038826928  0.8941521918715907  0.4315547838574787  1.0000
  C   C7        1.0  0.2262913930619774  0.4072809662885675  0.7363325075615277  1.0000
  C   C8        1.0  0.24341605885815898  0.3073916660740111  0.7752817049770896  1.0000
  C   C9        1.0  0.2960106783509956  0.39356036328949534  0.9003327552738225  1.0000
  C   C10       1.0  0.3737872238779048  0.26015588848596854  0.6171131454892914  1.0000
  C   C11       1.0  0.30493217230276315  0.44754061591217453  0.7669870106051917  1.0000
  C   C12       1.0  0.3216032128601896  0.3479167335491837  0.8074783931446277  1.0000
  C   C13       1.0  0.4254558472016186  0.35058900846437524  0.7417584216034854  1.0000
  C   C14       1.0  0.3473206828372214  0.30992501127663263  0.7095979481477099  1.0000
  C   C15       1.0  0.44264238188171123  0.25066857205198545  0.7807167071340828  1.0000
  C   C16       1.0  0.36395182308867646  0.210406562135887  0.7501008227750815  1.0000
  C   C17       1.0  0.30837023003186903  0.370997172956514  0.857479526446987  1.0000
  C   C18       1.0  0.36085485516606025  0.2853627903336218  0.6597192596841522  1.0000
  C   C19       1.0  0.9185470201248405  0.864374294011576  0.740118146880306  1.0000
  C   C20       1.0  0.8176658343359973  0.940573217918818  0.7781594410997952  1.0000
  C   C21       1.0  0.8998916865443927  0.7815199374638127  0.9003773574355873  1.0000
  C   C22       1.0  0.775735747913309  0.8801044253166596  0.6169621666038694  1.0000
  C   C23       1.0  0.9522984646065639  0.741609886623273  0.7684432558515651  1.0000
  C   C24       1.0  0.8515523938699089  0.8176396716268144  0.8077712523428814  1.0000
  C   C25       1.0  0.8543506539407487  0.7250502810861121  0.7395592799976995  1.0000
  C   C26       1.0  0.8204954745106575  0.8478830789264864  0.7099082683024989  1.0000
  C   C27       1.0  0.7534104011665689  0.8012962124779933  0.7775708551381655  1.0000
  C   C28       1.0  0.7197116139257671  0.9240517508935326  0.7492374183829822  1.0000
  C   C29       1.0  0.8739955802320692  0.7986172122911767  0.8577433276736526  1.0000
  C   C30       1.0  0.7993166460574344  0.8655920253490733  0.6598291546229476  1.0000
  C   C31       1.0  0.3563521189391921  0.7279331062914594  0.7375143626186826  1.0000
  C   C32       1.0  0.4474534695711934  0.7412944855295296  0.7720660617485607  1.0000
  C   C33       1.0  0.33290966941447636  0.7774567670869174  0.9020800391234969  1.0000
  C   C34       1.0  0.3345982759610065  0.8863956825726973  0.617588494457344  1.0000
  C   C35       1.0  0.24728310890893096  0.800825333751355  0.7729511828053148  1.0000
  C   C36       1.0  0.33900420535226067  0.8135404176300013  0.8088022543733044  1.0000
  C   C37       1.0  0.21813923072763686  0.9261032820194047  0.7477956138401394  1.0000
  C   C38       1.0  0.3265246127945358  0.8539710516967817  0.71104752932996  1.0000
  C   C39       1.0  0.3092756819117853  0.9394518556197866  0.7823649519294448  1.0000
  C   C40       1.0  0.4183260864633167  0.8665373062382643  0.7469082127188499  1.0000
  C   C41       1.0  0.33899897255997063  0.7937285970243979  0.8589947064873653  1.0000
  C   C42       1.0  0.3268481723703332  0.8726925533660929  0.6607805525930812  1.0000
  C   C43       1.0  0.25610972742003907  0.31168796931378756  0.3632545372307305  1.0000
  C   C44       1.0  0.23930156090091967  0.3378557469739008  0.3136621906614039  1.0000
  C   C45       1.0  0.21358618530948087  0.37490073453049894  0.2116718139610612  1.0000
  C   C46       1.0  0.11227195453283656  0.390651043593479  0.24136913390123735  1.0000
  C   C47       1.0  0.12402473609583345  0.37418876869107015  0.2901555216125686  1.0000
  C   C48       1.0  0.20195796498067856  0.395850339932629  0.16171619124853714  1.0000
  C   C49       1.0  0.30149535800262567  0.3851157514703941  0.1341690899589381  1.0000
  C   C50       1.0  0.4704899201632031  0.2620670963938778  0.35699762459448436  1.0000
  C   C51       1.0  0.4583091006598534  0.28439918686250104  0.3071823959100755  1.0000
  C   C52       1.0  0.3421020500792835  0.32115327237816876  0.2848718582991197  1.0000
  C   C53       1.0  0.5601563976096031  0.2671068267002212  0.2775473816415683  1.0000
  C   C54       1.0  0.5483728758397605  0.2836179022088174  0.22879988303668594  1.0000
  C   C55       1.0  0.4325970764067362  0.32172822052201167  0.20539800058791965  1.0000
  C   C56       1.0  0.32947044651140794  0.3391698991072333  0.23411891298921714  1.0000
  C   C57       1.0  0.41625030609201724  0.34682138498570236  0.15577274020339618  1.0000
  C   C58       1.0  0.3712324594335427  0.2726538212967  0.3846736104373746  1.0000
  C   C59       1.0  0.7872846805542649  0.950578235804578  0.35552079907976253  1.0000
  C   C60       1.0  0.8178073288383202  0.9325712289142064  0.30662794282993383  1.0000
  C   C61       1.0  0.87320029296292  0.9000814106869298  0.2068672620294834  1.0000
  C   C62       1.0  0.8762687615330617  0.9981519065877504  0.23209962726296135  1.0000
  C   C63       1.0  0.8501877154151883  0.0129050395466237  0.2800256339582958  1.0000
  C   C64       1.0  0.9025471880050584  0.8806590438876042  0.15786322459261015  1.0000
  C   C65       1.0  0.9047028353424694  0.7807086931906965  0.1344356532573272  1.0000
  C   C66       1.0  0.760194436971481  0.7689100284182759  0.3583230629903013  1.0000
  C   C67       1.0  0.7872887617563505  0.7486461324114089  0.30925157365931  1.0000
  C   C68       1.0  0.8156882887325806  0.8324190565109005  0.282626354722666  1.0000
  C   C69       1.0  0.7914226202004355  0.6476406575548523  0.28258871492201365  1.0000
  C   C70       1.0  0.816382870182494  0.6341158015359413  0.23439563671006874  1.0000
  C   C71       1.0  0.8428633141606666  0.7175636631512391  0.2079138770386848  1.0000
  C   C72       1.0  0.8432096586291989  0.8173189835271868  0.23266188681230904  1.0000
  C   C73       1.0  0.8742136163118345  0.700123740476755  0.15905089205571699  1.0000
  C   C74       1.0  0.7583058607236943  0.8699078755136898  0.38078367252929707  1.0000
  C   C75       1.0  0.4220077326831699  0.758486179003455  0.36399679087377723  1.0000
  C   C76       1.0  0.4144073021636314  0.7355533646689311  0.31529231563653326  1.0000
  C   C77       1.0  0.3998582097297071  0.6935271889924978  0.2158483784639742  1.0000
  C   C78       1.0  0.4584195424847691  0.5929564110239057  0.24968897644312443  1.0000
  C   C79       1.0  0.4654285376700997  0.6127214819144483  0.297409263889854  1.0000
  C   C80       1.0  0.3889060098019357  0.6738840067372749  0.1669846645189068  1.0000
  C   C81       1.0  0.3286864499012481  0.7727800275234245  0.1346875261077543  1.0000
  C   C82       1.0  0.30900437673704306  0.980235100041355  0.3483251622430005  1.0000
  C   C83       1.0  0.30442033336798596  0.9609598214905188  0.2991002072567213  1.0000
  C   C84       1.0  0.35588565369525316  0.8377350949206175  0.282145246817528  1.0000
  C   C85       1.0  0.2507931575308433  0.06122231221472419  0.26496389569667395  1.0000
  C   C86       1.0  0.2441252882281546  0.042568537255185404  0.2171905163040648  1.0000
  C   C87       1.0  0.28972422038659545  0.9201128808991614  0.19936501443661567  1.0000
  C   C88       1.0  0.3486918993485232  0.8171814265075739  0.2324043589492391  1.0000
  C   C89       1.0  0.28143603774802245  0.8939944812848142  0.15099586136019374  1.0000
  C   C90       1.0  0.3683472260220313  0.8797380908153157  0.38036441640176116  1.0000
  C   C91       1.0  0.953185019185987  0.75939973507856  0.9476217745406996  1.0000
  C   C92       1.0  0.2728640238565134  0.44075835105029887  0.9483395123628211  1.0000
  C   C93       1.0  0.3044069823061617  0.754345612602741  0.9500564498558715  1.0000
  C   C94       1.0  0.9516970221752742  0.7552364180783827  0.08423981819424137  1.0000
  C   C95       1.0  0.28005281651120845  0.4298735760170941  0.0832253902694688  1.0000
  C   C96       1.0  0.2971487582090189  0.748055451217283  0.0859638692585207  1.0000
  N   N1        1.0  0.7710365018357734  0.5510687667375295  0.30549680862300477  1.0000
  N   N2        1.0  0.2270035365112123  0.9973955136249585  0.11574135267317588  1.0000
  O   O1        1.0  0.6941355181126668  0.8217404419410455  0.555440069104435  1.0000
  O   O2        1.0  0.4773194864605799  0.8242221949959474  0.5570725736285382  1.0000
  O   O3        1.0  0.2917562310408214  0.9967533002252437  0.5445689139953345  1.0000
  O   O4        1.0  0.31673736584314577  0.18687813886630517  0.5516085964701034  1.0000
  O   O5        1.0  0.4988153111453784  0.18862782267116532  0.5495932881191478  1.0000
  O   O6        1.0  0.7092662467533084  0.9968346799008501  0.5458722626189072  1.0000
  O   O7        1.0  0.6922977648594607  0.8160268964434323  0.45241399416948264  1.0000
  O   O8        1.0  0.47496993594506154  0.8193881621549507  0.45429757085537387  1.0000
  O   O9        1.0  0.30629798556255133  0.009425715642727497  0.44819996040877896  1.0000
  O   O10       1.0  0.31288081104251114  0.20765205007705131  0.45652214009655256  1.0000
  O   O11       1.0  0.4990945638684747  0.19804565179160247  0.4538826323823741  1.0000
  O   O12       1.0  0.6974975437459106  0.9962526579453623  0.44989166184940627  1.0000
  O   O13       1.0  0.5054459712426577  0.9886238969896725  0.501696637647413  1.0000
  O   O14       1.0  0.20410474157102226  0.835323190669854  0.9678159553866336  1.0000
  O   O15       1.0  0.9890241276257183  0.8332185833946183  0.9610546478584465  1.0000
  O   O16       1.0  0.9643875531032575  0.6636509265294845  0.9712856820572141  1.0000
  O   O17       1.0  0.16952666692169782  0.4650882232876085  0.9673734715732464  1.0000
  O   O18       1.0  0.3546199102559628  0.46049453798035944  0.9674364713263941  1.0000
  O   O19       1.0  0.38100056885462413  0.6499337386655526  0.969994704116523  1.0000
  O   O20       1.0  0.1921469173675802  0.8248711016036835  0.0700416468144311  1.0000
  O   O21       1.0  0.9718513218239835  0.8344398360377739  0.063115584646944  1.0000
  O   O22       1.0  0.9744828855206787  0.6503746002712704  0.066800255672085  1.0000
  O   O23       1.0  0.17795878886963118  0.45455782337481315  0.0634641408769312  1.0000
  O   O24       1.0  0.3620574533434962  0.4498085125403222  0.0630668207677516  1.0000
  O   O25       1.0  0.37499944695452553  0.6469340099878947  0.06575489099657258  1.0000
  O   O26       1.0  0.16880149106128065  0.6633071098346619  0.0163149502792166  1.0000
  O   O27       1.0  0.7075083754014032  0.5758255489601039  0.3424375218246069  1.0000
  O   O28       1.0  0.8191680981822671  0.44795612768263016  0.28609324389520197  1.0000
  O   O29       1.0  0.12247482439319407  0.0836746743292665  0.1239852170695741  1.0000
  O   O30       1.0  0.29233972353482324  0.9920460744214167  0.08097700712546187  1.0000
  O   O31       1.0  0.667225792520469  0.6490391623477834  0.5053797826026454  1.0000
  O   O32       1.0  0.003559362559741399  0.002566470209217199  0.018042152281765297  1.0000
