data_image0
_chemical_formula_structural       Cu4Mo6H8C8N4O20
_chemical_formula_sum              "Cu4 Mo6 H8 C8 N4 O20"
_cell_length_a       7.696150491000526
_cell_length_b       8.654116222842076
_cell_length_c       8.654129463785438
_cell_angle_alpha    91.19073162988781
_cell_angle_beta     89.99996097455305
_cell_angle_gamma    89.9999852967135

_space_group_name_H-M_alt    "P 1"
_space_group_IT_number       1

loop_
  _space_group_symop_operation_xyz
  'x, y, z'

loop_
  _atom_site_type_symbol
  _atom_site_label
  _atom_site_symmetry_multiplicity
  _atom_site_fract_x
  _atom_site_fract_y
  _atom_site_fract_z
  _atom_site_occupancy
  Cu  Cu1       1.0  0.2500011681635002  0.45180232873506293  0.9905264579027815  1.0000
  Cu  Cu2       1.0  0.7499995494666934  0.5482042984288924  0.009474616924485698  1.0000
  Cu  Cu3       1.0  0.7499994163324643  0.0094718964833547  0.548190719625687  1.0000
  Cu  Cu4       1.0  0.2500013012991644  0.9905277991307316  0.45180903740617134  1.0000
  Mo  Mo1       1.0  0.2499998773272694  0.8332503251751789  0.8332578019574085  1.0000
  Mo  Mo2       1.0  0.7500021396527002  0.166760922008315  0.1667445365499205  1.0000
  Mo  Mo3       1.0  0.9999958676360379  0.8578909777815655  0.1421102416482682  1.0000
  Mo  Mo4       1.0  0.4999989710178029  0.1421132832282339  0.8578871597907349  1.0000
  Mo  Mo5       1.0  4.8499947027e-06  0.1421179669936947  0.8578885763928807  1.0000
  Mo  Mo6       1.0  0.5000017466152614  0.8578887360783156  0.1421080295539099  1.0000
  H   H1        1.0  0.24999751120823527  0.6411254339699539  0.2932450007692821  1.0000
  H   H2        1.0  0.7499993083679186  0.35886614392389765  0.7067649659162923  1.0000
  H   H3        1.0  0.749999394349487  0.7067452022449886  0.35886514527965824  1.0000
  H   H4        1.0  0.2500013232878473  0.2932394927477731  0.6411250164006361  1.0000
  H   H5        1.0  0.2500013105510419  0.5747712247346543  0.5747759245036901  1.0000
  H   H6        1.0  0.7499994070782777  0.4252168858634846  0.42523396100826  1.0000
  H   H7        1.0  0.25000021865090355  0.1742276383903558  0.1742304763454001  1.0000
  H   H8        1.0  0.7500004989796168  0.8257766772434466  0.8257705443669181  1.0000
  C   C1        1.0  0.24999881279614297  0.5218502962373109  0.3296132959407956  1.0000
  C   C2        1.0  0.7499980067750299  0.4781481888817682  0.6704072321445337  1.0000
  C   C3        1.0  0.7499980542895842  0.6703772811031855  0.47815795601983513  1.0000
  C   C4        1.0  0.2500013639841043  0.3296038553771511  0.5218667880046864  1.0000
  C   C5        1.0  0.2500000577269503  0.48494371043226897  0.4849399962733257  1.0000
  C   C6        1.0  0.7499980612075986  0.5150479191512717  0.5150503277526324  1.0000
  C   C7        1.0  0.2499988731477814  0.26334044526324624  0.2633401823067202  1.0000
  C   C8        1.0  0.7499979464399187  0.7366384861075448  0.7366440668346568  1.0000
  N   N1        1.0  0.24999757138461834  0.41081067991303405  0.2174506572827539  1.0000
  N   N2        1.0  0.749997948842065  0.5891924769157839  0.7825514918242149  1.0000
  N   N3        1.0  0.7499979966328426  0.7825456775132837  0.5891822545161318  1.0000
  N   N4        1.0  0.25000012230137253  0.2174482636004029  0.4108081236247898  1.0000
  O   O1        1.0  0.2500014569765625  0.8592117779352577  0.09131807786345549  1.0000
  O   O2        1.0  0.7500018593550736  0.1407971607585097  0.9086830510779789  1.0000
  O   O3        1.0  0.7500020491286251  0.9086877008268459  0.14079318679124236  1.0000
  O   O4        1.0  0.2499999678536113  0.09132009122375001  0.8592044487414865  1.0000
  O   O5        1.0  0.016202443814563594  0.8916421392177228  0.8916406295386705  1.0000
  O   O6        1.0  0.5162021679187702  0.1083622451530388  0.1083570678348664  1.0000
  O   O7        1.0  0.9838008725185644  0.10836565283270261  0.1083570059936605  1.0000
  O   O8        1.0  0.48379595101024353  0.89164322928675  0.8916428244851813  1.0000
  O   O9        1.0  0.2499998955171563  0.6328858799603554  0.856623161206002  1.0000
  O   O10       1.0  0.7500021214637584  0.36712190296850616  0.1433779406783486  1.0000
  O   O11       1.0  0.7500007668190348  0.14338391544402646  0.3671159111826653  1.0000
  O   O12       1.0  0.2500025495134325  0.8566192444243725  0.6328850824713754  1.0000
  O   O13       1.0  0.04674246469659949  0.3388241207278924  0.8846195566298576  1.0000
  O   O14       1.0  0.5467407343835549  0.6611814116208594  0.11537814912045968  1.0000
  O   O15       1.0  0.9532607167522613  0.11537510340516381  0.6611736435374665  1.0000
  O   O16       1.0  0.4532640161860684  0.8846257022261952  0.33882370531664197  1.0000
  O   O17       1.0  0.9532621509880314  0.661182518597883  0.1153768963940536  1.0000
  O   O18       1.0  0.4532586838971255  0.3388217543291958  0.8846205336336865  1.0000
  O   O19       1.0  0.046736102827580304  0.8846245982905857  0.3388238025944972  1.0000
  O   O20       1.0  0.546739300148232  0.11537399946871572  0.6611737408133322  1.0000
