data_image0
_chemical_formula_structural       Al4H16C28Br4O20
_chemical_formula_sum              "Al4 H16 C28 Br4 O20"
_cell_length_a       6.691925665829662
_cell_length_b       12.604476542665953
_cell_length_c       17.556594918731047
_cell_angle_alpha    90.0010116042568
_cell_angle_beta     90.00106206939785
_cell_angle_gamma    98.51312827603482

_space_group_name_H-M_alt    "P 1"
_space_group_IT_number       1

loop_
  _space_group_symop_operation_xyz
  'x, y, z'

loop_
  _atom_site_type_symbol
  _atom_site_label
  _atom_site_symmetry_multiplicity
  _atom_site_fract_x
  _atom_site_fract_y
  _atom_site_fract_z
  _atom_site_occupancy
  Al  Al1       1.0  0.18362872453445792  0.7649609807195858  0.7499937198137019  1.0000
  Al  Al2       1.0  0.8158003433162263  0.2350223519717503  0.24999298663323802  1.0000
  Al  Al3       1.0  0.681553360563271  0.7602385268923443  0.7499914255808875  1.0000
  Al  Al4       1.0  0.317710720994178  0.23886762345507143  0.24999242682552852  1.0000
  H   H1        1.0  0.18015242789669375  0.9796207507672179  0.9256384614429578  1.0000
  H   H2        1.0  0.8222745190165521  0.023817882520631894  0.0730911997122661  1.0000
  H   H3        1.0  0.8222733523908304  0.0238198903730336  0.4269137962646639  1.0000
  H   H4        1.0  0.18013167370459374  0.9795947782132687  0.5743254629202922  1.0000
  H   H5        1.0  0.2078862825683245  0.080103054090074  0.0500433887456566  1.0000
  H   H6        1.0  0.7946945546514145  0.9232642379692921  0.9487215868565928  1.0000
  H   H7        1.0  0.7946832276859438  0.9232640503270988  0.5512777753603046  1.0000
  H   H8        1.0  0.20788471910213246  0.08010493962519397  0.44994040939832297  1.0000
  H   H9        1.0  0.2729167171733451  0.452786910397002  0.0560841530543428  1.0000
  H   H10       1.0  0.7262769751240228  0.5479620809204137  0.9444265770201382  1.0000
  H   H11       1.0  0.7262795638743142  0.5479627630297016  0.5555510557676513  1.0000
  H   H12       1.0  0.27290404303802523  0.4527926817134614  0.4439133438546961  1.0000
  H   H13       1.0  0.3872298033944261  0.6205497175274601  0.7501011645005916  1.0000
  H   H14       1.0  0.6103869834836786  0.3793586702679477  0.25010596519088313  1.0000
  H   H15       1.0  0.9661109534766152  0.9045924499914336  0.7500309139925534  1.0000
  H   H16       1.0  0.0320716769095313  0.09480026580880012  0.25004862701848646  1.0000
  C   C1        1.0  0.46793783152087803  0.8843735690461617  0.8572258175969552  1.0000
  C   C2        1.0  0.5327017783069152  0.11606800520457479  0.1424988861263046  1.0000
  C   C3        1.0  0.5327061840371384  0.1160599106191853  0.3574836264597394  1.0000
  C   C4        1.0  0.46788788252737123  0.8843384942321322  0.6427514263654857  1.0000
  C   C5        1.0  0.5160781890443147  0.05650437438390551  0.0687557931817793  1.0000
  C   C6        1.0  0.48591088615589934  0.9460437938557644  0.9301868862003175  1.0000
  C   C7        1.0  0.4858775362163641  0.9460265766335852  0.5697918304479543  1.0000
  C   C8        1.0  0.5160844215974336  0.0564952333960846  0.4312372441380461  1.0000
  C   C9        1.0  0.31976427717617645  0.989795065606451  0.9585001644348453  1.0000
  C   C10       1.0  0.6826691987180382  0.0134877198989471  0.0402169648555102  1.0000
  C   C11       1.0  0.682672524148657  0.013484251940433003  0.45977725172441103  1.0000
  C   C12       1.0  0.31973400414150194  0.9897778036228574  0.5414768157522118  1.0000
  C   C13       1.0  0.8993488806389178  0.6333868637750157  0.6465516163496687  1.0000
  C   C14       1.0  0.09806382344367393  0.3591001371723693  0.35700577376653797  1.0000
  C   C15       1.0  0.09806227404978067  0.35910261147117944  0.1429933176164155  1.0000
  C   C16       1.0  0.8993804658691076  0.6334058418144225  0.8534453802710827  1.0000
  C   C17       1.0  0.3347888092139896  0.044888829627559794  0.0273757703241415  1.0000
  C   C18       1.0  0.667634063299161  0.9583731183590486  0.9713407892114602  1.0000
  C   C19       1.0  0.6676194652996515  0.9583706714255555  0.5286518715767485  1.0000
  C   C20       1.0  0.33477983720509746  0.0448769577759549  0.47260903082219125  1.0000
  C   C21       1.0  0.8770815341839864  0.559799094065788  0.9194314381426025  1.0000
  C   C22       1.0  0.11762788785011222  0.42074779979951427  0.0711073974919856  1.0000
  C   C23       1.0  0.1176393268566684  0.4207313385482294  0.4288965945753063  1.0000
  C   C24       1.0  0.8770744145164997  0.559782884795169  0.5805667533700429  1.0000
  C   C25       1.0  0.015322112152716701  0.5067056182758805  0.9527489336283778  1.0000
  C   C26       1.0  0.972178750636985  0.44038041974521763  0.0217501091295915  1.0000
  C   C27       1.0  0.9721788255734721  0.4403373506510064  0.4782549173296644  1.0000
  C   C28       1.0  0.015314560917282451  0.5066731681070566  0.5472614209466543  1.0000
  Br  Br1       1.0  0.6941398891788139  0.385914663255079  0.037464834956964  1.0000
  Br  Br2       1.0  0.283776554549334  0.5148036648246547  0.9145893246879098  1.0000
  Br  Br3       1.0  0.28375486904480596  0.514782841957107  0.5854275463963178  1.0000
  Br  Br4       1.0  0.6941503702451255  0.3858333362677513  0.46255238905877144  1.0000
  O   O1        1.0  0.6293699643760887  0.8579610749969006  0.6705641592824845  1.0000
  O   O2        1.0  0.3706803377686043  0.14137462568204032  0.3294003313509677  1.0000
  O   O3        1.0  0.3706931079786173  0.14139070322814012  0.1705836581507043  1.0000
  O   O4        1.0  0.6294132032167283  0.8579576089292759  0.8294383609957876  1.0000
  O   O5        1.0  0.29189376826180086  0.8626371339397849  0.8282877971897378  1.0000
  O   O6        1.0  0.7082407983145911  0.1371736987109813  0.1718880133375436  1.0000
  O   O7        1.0  0.7082459415536703  0.1371526866059725  0.3280937019092107  1.0000
  O   O8        1.0  0.2918147795500445  0.862549222408333  0.6716515002573685  1.0000
  O   O9        1.0  0.07450168653046767  0.6655326300920378  0.8272280786957538  1.0000
  O   O10       1.0  0.9244638914595669  0.3334527111953419  0.17240205867939548  1.0000
  O   O11       1.0  0.9244587925774609  0.3334477919996672  0.32759445287805283  1.0000
  O   O12       1.0  0.07444978274511982  0.6654655179705457  0.6728074735950997  1.0000
  O   O13       1.0  0.4133403640838651  0.6981634655150373  0.7500026367030158  1.0000
  O   O14       1.0  0.5856426849427904  0.30176154283066836  0.2500011554285919  1.0000
  O   O15       1.0  0.7337821163687153  0.6593866278324894  0.6718038265178166  1.0000
  O   O16       1.0  0.2644727396806559  0.3374026449924656  0.3294769563038074  1.0000
  O   O17       1.0  0.2644691679568751  0.3373987107353429  0.17051617752827036  1.0000
  O   O18       1.0  0.7338037604219139  0.6593607279800295  0.8281627338926326  1.0000
  O   O19       1.0  0.9486780377345028  0.8270032895081202  0.7499916320270259  1.0000
  O   O20       1.0  0.0504817076565232  0.17239888401982742  0.24998994354088208  1.0000
