data_image0
_chemical_formula_structural       Cd4H52C60N12O20
_chemical_formula_sum              "Cd4 H52 C60 N12 O20"
_cell_length_a       9.091584118001043
_cell_length_b       10.576205585741201
_cell_length_c       16.091858051069618
_cell_angle_alpha    100.06112709129634
_cell_angle_beta     89.99995116720699
_cell_angle_gamma    89.99998606656362

_space_group_name_H-M_alt    "P 1"
_space_group_IT_number       1

loop_
  _space_group_symop_operation_xyz
  'x, y, z'

loop_
  _atom_site_type_symbol
  _atom_site_label
  _atom_site_symmetry_multiplicity
  _atom_site_fract_x
  _atom_site_fract_y
  _atom_site_fract_z
  _atom_site_occupancy
  Cd  Cd1       1.0  0.8592445285639343  0.30348472216195427  0.8442840849811617  1.0000
  Cd  Cd2       1.0  0.14075955155408343  0.30349008225391577  0.34428378332884785  1.0000
  Cd  Cd3       1.0  0.12096625767776462  0.027526516475951703  0.7454720111874094  1.0000
  Cd  Cd4       1.0  0.8790369420106501  0.02752775287664379  0.24547146537119593  1.0000
  H   H1        1.0  0.3442374494063857  0.7834521016575663  0.7872370821917228  1.0000
  H   H2        1.0  0.6557632910242361  0.7834543799601333  0.2872367728469456  1.0000
  H   H3        1.0  0.6063590016109686  0.5396300377009596  0.8090285528654562  1.0000
  H   H4        1.0  0.3936428697611234  0.5396305806458416  0.3090238056434345  1.0000
  H   H5        1.0  0.7861529783994571  0.2837947392805377  0.5496417725965941  1.0000
  H   H6        1.0  0.21384934699174354  0.2837924164797769  0.049639244577058185  1.0000
  H   H7        1.0  0.9798177946043796  0.2837975766807759  0.5544697862719161  1.0000
  H   H8        1.0  0.0201867234143904  0.2837963231458716  0.05446561933085549  1.0000
  H   H9        1.0  0.7899400401310999  0.0381473574717361  0.5350275788933203  1.0000
  H   H10       1.0  0.21006017127882612  0.0381449596602152  0.035028772369585695  1.0000
  H   H11       1.0  0.9842604071659693  0.0437573385489429  0.5395375991974304  1.0000
  H   H12       1.0  0.0157408959684631  0.04375703410906342  0.0395341730096135  1.0000
  H   H13       1.0  0.11665576457350818  0.7284955945918911  0.5068154235706714  1.0000
  H   H14       1.0  0.8833454089224306  0.7284948835467944  0.006815878330321825  1.0000
  H   H15       1.0  0.2991267271237845  0.766694571355174  0.4846610211670565  1.0000
  H   H16       1.0  0.7008781225464916  0.7666989476261039  0.9846588719013025  1.0000
  H   H17       1.0  0.22792784856588366  0.5785016905116578  0.6049505016976298  1.0000
  H   H18       1.0  0.7720611183926565  0.5784982287105862  0.10494632038208349  1.0000
  H   H19       1.0  0.39998480259428965  0.6048980984033108  0.5604726171049066  1.0000
  H   H20       1.0  0.6000097234930737  0.6049015101016266  0.0604650167209471  1.0000
  H   H21       1.0  0.7325723456196018  0.17876946918899964  0.9848905426732059  1.0000
  H   H22       1.0  0.2674337568865043  0.1787786746661766  0.4848881683776724  1.0000
  H   H23       1.0  0.57436290957574  0.9966257846231485  0.016548520758078698  1.0000
  H   H24       1.0  0.42563927940942403  0.9966321947455439  0.516546133996762  1.0000
  H   H25       1.0  0.4810046067372866  0.9056075301976564  0.7489035836724867  1.0000
  H   H26       1.0  0.5189961590923177  0.9056089238103341  0.24890198827812776  1.0000
  H   H27       1.0  0.6434538654461832  0.08603742629692589  0.7298599605703373  1.0000
  H   H28       1.0  0.3565493423038646  0.08603890481853682  0.22985721118591573  1.0000
  H   H29       1.0  0.10665059675041283  0.4513752979500368  0.9713507681635034  1.0000
  H   H30       1.0  0.8933488554001345  0.4513765163801864  0.4713508346992369  1.0000
  H   H31       1.0  0.2915292401413084  0.6247896102624325  0.9796733895905445  1.0000
  H   H32       1.0  0.7084701543747655  0.6247928040141275  0.4796744107143808  1.0000
  H   H33       1.0  0.18827349781010133  0.6460787394303297  0.7206638309271156  1.0000
  H   H34       1.0  0.8117240780881972  0.6460781055236638  0.22066184386945759  1.0000
  H   H35       1.0  0.011668434192557704  0.4649633834030098  0.7215720952586366  1.0000
  H   H36       1.0  0.9883291875609713  0.46496263394139714  0.22157249454149758  1.0000
  H   H37       1.0  0.8768103114363585  0.9134628372174022  0.6210361121210326  1.0000
  H   H38       1.0  0.12318954336817001  0.9134605985218726  0.12103115234486239  1.0000
  H   H39       1.0  0.6909406586774764  0.7380497791009546  0.590232529392594  1.0000
  H   H40       1.0  0.3090581879327346  0.7380445663213708  0.09022835576282519  1.0000
  H   H41       1.0  0.7840804699484992  0.648007893355093  0.8374031957148347  1.0000
  H   H42       1.0  0.21592023088155804  0.6480055697962471  0.3374006666005584  1.0000
  H   H43       1.0  0.9624651855994983  0.8294371101696639  0.8576300346987435  1.0000
  H   H44       1.0  0.0375354377330694  0.8294348900841658  0.3576257401000547  1.0000
  H   H45       1.0  0.3158683634210249  0.22264109330220097  0.8750608523000238  1.0000
  H   H46       1.0  0.6841323920608033  0.22264339942235276  0.37505866821732775  1.0000
  H   H47       1.0  0.4824003705756682  0.40991994462292075  0.8789926074525167  1.0000
  H   H48       1.0  0.5176003302157001  0.4099213642119892  0.37898977296438113  1.0000
  H   H49       1.0  0.4388592123055944  0.3626872074813719  0.6077755013579349  1.0000
  H   H50       1.0  0.5611386060392364  0.36268381013026396  0.10777205141673109  1.0000
  H   H51       1.0  0.273620700071696  0.17597435962368022  0.6158430321538687  1.0000
  H   H52       1.0  0.7263749550623262  0.1759680084709316  0.11583975934567547  1.0000
  C   C1        1.0  0.873755894074762  0.24013175383772994  0.6637985994798115  1.0000
  C   C2        1.0  0.12624407239821522  0.24013142169489754  0.16379449498352727  1.0000
  C   C3        1.0  0.8809208342732548  0.23089838817417532  0.5686934842538633  1.0000
  C   C4        1.0  0.1190814764593853  0.23089613824950564  0.0686891465648145  1.0000
  C   C5        1.0  0.8862202947558799  0.0931901958390284  0.5204357348293271  1.0000
  C   C6        1.0  0.1137832238510228  0.09318787145640782  0.0204351194343957  1.0000
  C   C7        1.0  0.8931025560426846  0.08275675720965128  0.4254081300979919  1.0000
  C   C8        1.0  0.1069058601508175  0.08275168514848022  0.925408209388884  1.0000
  C   C9        1.0  0.2280323029113732  0.8389524622799628  0.6102388540727758  1.0000
  C   C10       1.0  0.7719642876814278  0.8389508572548435  0.11023800936707318  1.0000
  C   C11       1.0  0.22938197455520282  0.7336374528826821  0.5323833364496622  1.0000
  C   C12       1.0  0.7706180595043791  0.7336397273557013  0.0323811066657456  1.0000
  C   C13       1.0  0.2808097607745168  0.60267262970023  0.5487030005408257  1.0000
  C   C14       1.0  0.7191858833853786  0.6026740391879101  0.048696959950490275  1.0000
  C   C15       1.0  0.249249872483098  0.4944815854938511  0.4761282307315469  1.0000
  C   C16       1.0  0.7507451616294888  0.49448221730447267  0.9761200019146584  1.0000
  C   C17       1.0  0.674371312586338  0.11449621694355021  0.9353531574925922  1.0000
  C   C18       1.0  0.3256337807285874  0.11450445365509414  0.4353500140377449  1.0000
  C   C19       1.0  0.5863866459815981  0.014823524087773902  0.9523895886919646  1.0000
  C   C20       1.0  0.41361514812031425  0.014830730204337797  0.45238814000276045  1.0000
  C   C21       1.0  0.514264930828034  0.935783042067925  0.8859069746411521  1.0000
  C   C22       1.0  0.4857334227176793  0.9357882886581738  0.3859058707794958  1.0000
  C   C23       1.0  0.5345914792946117  0.9613024675440371  0.8040783036238748  1.0000
  C   C24       1.0  0.4654091896272663  0.9613058266342023  0.30407573369299706  1.0000
  C   C25       1.0  0.6248432034691193  0.0633507761480487  0.7925794411744035  1.0000
  C   C26       1.0  0.375159916538884  0.06335320806123691  0.2925768004448343  1.0000
  C   C27       1.0  0.12820463126320902  0.49657437207532246  0.9166341664219144  1.0000
  C   C28       1.0  0.8717948908100724  0.4965746254581164  0.41663474577381976  1.0000
  C   C29       1.0  0.23028693457827384  0.5956408884723388  0.9217988848805874  1.0000
  C   C30       1.0  0.7697125539580654  0.5956431123453285  0.4217991352377338  1.0000
  C   C31       1.0  0.25328847276530553  0.6524996046730678  0.8501064285058745  1.0000
  C   C32       1.0  0.7467100080863105  0.6524999292926099  0.35010583412388735  1.0000
  C   C33       1.0  0.17367864520333853  0.6031358051980789  0.7767998892206264  1.0000
  C   C34       1.0  0.8263221578174083  0.6031370481550056  0.2767999911751673  1.0000
  C   C35       1.0  0.0762126949512165  0.5032298938999278  0.7773518130271027  1.0000
  C   C36       1.0  0.9237848335339649  0.503231101192533  0.2773518634792537  1.0000
  C   C37       1.0  0.42319938949363234  0.8278986617513266  0.9090560511074839  1.0000
  C   C38       1.0  0.5768000575257374  0.8279009562152099  0.409056403404044  1.0000
  C   C39       1.0  0.8523613006853951  0.851851183959241  0.6668307576688406  1.0000
  C   C40       1.0  0.14763850179726032  0.8518470031812486  0.1668261679106635  1.0000
  C   C41       1.0  0.7505198883663697  0.7530598461197827  0.649721457509784  1.0000
  C   C42       1.0  0.2494788654982685  0.7530546296759156  0.14971855519443977  1.0000
  C   C43       1.0  0.7248917564813909  0.6748677587677251  0.710045129322438  1.0000
  C   C44       1.0  0.2751047278524155  0.674862558412016  0.2100409736338378  1.0000
  C   C45       1.0  0.7988084064024293  0.7043629960445158  0.78732419434143  1.0000
  C   C46       1.0  0.201186854925723  0.7043606778759468  0.2873216730111777  1.0000
  C   C47       1.0  0.899408014445534  0.8055661856087968  0.799303051251556  1.0000
  C   C48       1.0  0.1005905023693501  0.8055639297168611  0.2992993432482436  1.0000
  C   C49       1.0  0.3459698671736788  0.2562845260713332  0.8171184531805975  1.0000
  C   C50       1.0  0.6540309660605956  0.25628588300465793  0.3171161665150705  1.0000
  C   C51       1.0  0.4380770127654828  0.3605868006891626  0.8192376357458642  1.0000
  C   C52       1.0  0.5619248900332324  0.3605872311247041  0.3192352792624646  1.0000
  C   C53       1.0  0.4745503555996109  0.40269895768592084  0.743465098890958  1.0000
  C   C54       1.0  0.5254505494490828  0.40270033620400625  0.24346412000166845  1.0000
  C   C55       1.0  0.41515153141546085  0.33438830654122853  0.6679684220760933  1.0000
  C   C56       1.0  0.5848462044221989  0.33438583525094867  0.1679663179277213  1.0000
  C   C57       1.0  0.323268764083565  0.23093412695071444  0.6725037451779767  1.0000
  C   C58       1.0  0.6767278920303427  0.23093254404187047  0.17250357071308284  1.0000
  C   C59       1.0  0.6240644769426638  0.5616670163537022  0.6846264986023411  1.0000
  C   C60       1.0  0.3759309749377806  0.561662726572074  0.1846230280393613  1.0000
  N   N1        1.0  0.6936485367384864  0.1387000853184333  0.8567405494886982  1.0000
  N   N2        1.0  0.30635776757409167  0.1387035153428471  0.356737443690072  1.0000
  N   N3        1.0  0.3495544159918325  0.75281378643529  0.844299873389005  1.0000
  N   N4        1.0  0.6504462472171043  0.7528160794162845  0.3442989469381742  1.0000
  N   N5        1.0  0.05152498348982701  0.45015393962063394  0.8463452093039193  1.0000
  N   N6        1.0  0.9484746556435726  0.4501551378790793  0.3463452467099586  1.0000
  N   N7        1.0  0.9279157327413758  0.876858908441463  0.7398774809862942  1.0000
  N   N8        1.0  0.07208395414550492  0.8768557282449408  0.23987242972631148  1.0000
  N   N9        1.0  0.5639956954638167  0.5102362828797311  0.7495390148259415  1.0000
  N   N10       1.0  0.4360029726478985  0.5102348644546808  0.24953524807211383  1.0000
  N   N11       1.0  0.28807462830057773  0.1913861733429485  0.7451018131165483  1.0000
  N   N12       1.0  0.7119252294718521  0.19138364281923972  0.24510026173292224  1.0000
  O   O1        1.0  0.9304907661247699  0.1530737937618127  0.6993756514290084  1.0000
  O   O2        1.0  0.0695080699972053  0.153076337518911  0.19937317221179998  1.0000
  O   O3        1.0  0.8102388658221359  0.3379445633959294  0.7064291174632442  1.0000
  O   O4        1.0  0.18976211141259822  0.337943222343398  0.20642610074505538  1.0000
  O   O5        1.0  0.8257995688740111  0.9884634336597886  0.3806194162059455  1.0000
  O   O6        1.0  0.17421307777308928  0.9884573640357817  0.8806199613578156  1.0000
  O   O7        1.0  0.9637800220984264  0.16500272806844413  0.3922091970284852  1.0000
  O   O8        1.0  0.0362306220694535  0.1649948776613783  0.8922052387049177  1.0000
  O   O9        1.0  0.16739599762884447  0.9453033203952828  0.6019971158043589  1.0000
  O   O10       1.0  0.8326005775466641  0.9453026406508089  0.10199697746185168  1.0000
  O   O11       1.0  0.2800671896717262  0.8183742172876836  0.6801170000905613  1.0000
  O   O12       1.0  0.7199293019405246  0.8183678175624183  0.1801162103513363  1.0000
  O   O13       1.0  0.2872884022586534  0.5068217787534979  0.40131936060171103  1.0000
  O   O14       1.0  0.7127056404245664  0.5068271872930269  0.9013136040782256  1.0000
  O   O15       1.0  0.1838828281757259  0.39410097137203337  0.490980401950992  1.0000
  O   O16       1.0  0.8161144097617027  0.39410251399899476  0.9909734969125523  1.0000
  O   O17       1.0  0.5980602693531624  0.522412458486393  0.6090871027556657  1.0000
  O   O18       1.0  0.40193860531456954  0.5224091321230591  0.1090831170240136  1.0000
  O   O19       1.0  0.4214702652349517  0.8091355197509675  0.982845476159234  1.0000
  O   O20       1.0  0.5785290764903266  0.8091387992493893  0.4828447061998844  1.0000
