data_image0
_chemical_formula_structural       Dy2H54C48S12N6O18
_chemical_formula_sum              "Dy2 H54 C48 S12 N6 O18"
_cell_length_a       7.733314073744234
_cell_length_b       11.645038275797184
_cell_length_c       17.456
_cell_angle_alpha    93.89469033580266
_cell_angle_beta     94.77278800412627
_cell_angle_gamma    91.85264252168366

_space_group_name_H-M_alt    "P 1"
_space_group_IT_number       1

loop_
  _space_group_symop_operation_xyz
  'x, y, z'

loop_
  _atom_site_type_symbol
  _atom_site_label
  _atom_site_symmetry_multiplicity
  _atom_site_fract_x
  _atom_site_fract_y
  _atom_site_fract_z
  _atom_site_occupancy
  Dy  Dy1       1.0  0.7804753826904121  0.5887749754116101  0.7535749514904565  1.0000
  Dy  Dy2       1.0  0.21952784123416794  0.4112237654650244  0.24642516758054006  1.0000
  H   H1        1.0  0.4386652002253015  0.6933214924675964  0.9622702880417935  1.0000
  H   H2        1.0  0.5613431645178224  0.3066763870577134  0.037728262889103796  1.0000
  H   H3        1.0  0.33678150466503354  0.8200460834363099  0.07257607580037022  1.0000
  H   H4        1.0  0.6632177272291744  0.17995093473767546  0.9274198079787086  1.0000
  H   H5        1.0  0.5375420140136599  0.9805614868796368  0.1306845000114194  1.0000
  H   H6        1.0  0.46245102748581973  0.0194406994022955  0.8693153998421581  1.0000
  H   H7        1.0  0.18084680150893462  0.4261725177081246  0.7198534859754275  1.0000
  H   H8        1.0  0.8191539760213546  0.5738288072224833  0.28014608713822753  1.0000
  H   H9        1.0  0.9588485520916309  0.2619171268122145  0.7110108411199363  1.0000
  H   H10       1.0  0.0411419934075639  0.7380867821723669  0.2889930548697492  1.0000
  H   H11       1.0  0.0659640304343654  0.061582312971516694  0.7210445548858928  1.0000
  H   H12       1.0  0.9340253166706776  0.9384233187157207  0.27895593777500244  1.0000
  H   H13       1.0  0.7201168598114834  0.12171411031194879  0.49048799912029745  1.0000
  H   H14       1.0  0.2798927033257925  0.878282046510705  0.5095087993190432  1.0000
  H   H15       1.0  0.7288830889738878  0.9261249444992358  0.4218485980494862  1.0000
  H   H16       1.0  0.2711275733455594  0.07386776691812  0.5781561049541182  1.0000
  H   H17       1.0  0.7000968005122061  0.7526970233447939  0.5014763653971173  1.0000
  H   H18       1.0  0.299912613807102  0.2472965494238863  0.49852603915758925  1.0000
  H   H19       1.0  0.19936545604681305  0.7514454798697585  0.8635883035710705  1.0000
  H   H20       1.0  0.8006392639078685  0.2485567064121739  0.13641145389403422  1.0000
  H   H21       1.0  0.34896657568601347  0.8515095246311261  0.8278079099373131  1.0000
  H   H22       1.0  0.6510419874810652  0.1484918002994817  0.1721919501633167  1.0000
  H   H23       1.0  0.3437713379639575  0.7017946054503312  0.7920596301789828  1.0000
  H   H24       1.0  0.6562320347785973  0.2982067194802767  0.20793946572806732  1.0000
  H   H25       1.0  0.1491222897012392  0.857390831477332  0.6172689947049719  1.0000
  H   H26       1.0  0.8508797854351827  0.1426104934532759  0.3827311991087683  1.0000
  H   H27       1.0  0.31638161872790255  0.7648627494572438  0.6536459499992732  1.0000
  H   H28       1.0  0.6836231012267718  0.23513943682468855  0.3463560989415484  1.0000
  H   H29       1.0  0.3178042337050897  0.9162366312897419  0.6878632201876871  1.0000
  H   H30       1.0  0.6821990894314711  0.0837638322895415  0.3121369805992488  1.0000
  H   H31       1.0  0.8304727653069294  0.3293135612265985  0.8915169787500262  1.0000
  H   H32       1.0  0.16952267298086104  0.6706851796500359  0.1084817075961411  1.0000
  H   H33       1.0  0.9879498608100266  0.3107634990942145  0.9722563081110353  1.0000
  H   H34       1.0  0.012045428659789106  0.6892326577284393  0.027742828530151104  1.0000
  H   H35       1.0  0.041799711604994606  0.2785549890033892  0.8744799992756143  1.0000
  H   H36       1.0  0.9581891890461378  0.7214428905219207  0.1255195527946213  1.0000
  H   H37       1.0  0.334950123669188  0.5425858719668284  0.9092357094327996  1.0000
  H   H38       1.0  0.6650516042253047  0.457409423504501  0.0907607611615902  1.0000
  H   H39       1.0  0.30911759905511366  0.38919556668282235  0.8935283268770038  1.0000
  H   H40       1.0  0.6908827816272594  0.6107988674371896  0.1064686278971863  1.0000
  H   H41       1.0  0.29693902363928265  0.45680303217179125  0.9890747752911511  1.0000
  H   H42       1.0  0.7030614066490771  0.5431922632995381  0.010921074603146496  1.0000
  H   H43       1.0  0.09306105282363572  0.3529886637419466  0.5538274049429504  1.0000
  H   H44       1.0  0.9069356334642935  0.6470092157833562  0.4461724341142599  1.0000
  H   H45       1.0  0.9344131130105567  0.3162141302779915  0.4749478292660712  1.0000
  H   H46       1.0  0.0655874660957707  0.6837837492473184  0.5250504346778513  1.0000
  H   H47       1.0  0.9199620312915828  0.2502707955486585  0.5661538725182638  1.0000
  H   H48       1.0  0.08003245663200431  0.7497339747872472  0.433846770609307  1.0000
  H   H49       1.0  0.531508979070253  0.43986628107089126  0.5776584699356562  1.0000
  H   H50       1.0  0.4684999809447491  0.5601419346703125  0.4223417170287291  1.0000
  H   H51       1.0  0.6171570289093682  0.2971894635656014  0.5780776813496971  1.0000
  H   H52       1.0  0.382846691075116  0.7028178908242778  0.4219211276942119  1.0000
  H   H53       1.0  0.5862402998475318  0.3687048800155068  0.4886146224182256  1.0000
  H   H54       1.0  0.41376851134950243  0.6313007516717235  0.5113848691033243  1.0000
  C   C1        1.0  0.7765335503699405  0.8882005070165775  0.9940572186764883  1.0000
  C   C2        1.0  0.22346597916020275  0.11180167926535488  0.005944638939688199  1.0000
  C   C3        1.0  0.6761238781378298  0.7908488575772239  0.959727478047711  1.0000
  C   C4        1.0  0.3238794946047251  0.20915246735338397  0.040273336466121606  1.0000
  C   C5        1.0  0.5166944332867303  0.7671169058744312  0.9887905212736641  1.0000
  C   C6        1.0  0.48330739381974314  0.23288011229955427  0.011209468250228805  1.0000
  C   C7        1.0  0.4610601191425304  0.8355995043094708  0.049522048396454514  1.0000
  C   C8        1.0  0.5389445016001632  0.1644009592698126  0.9504787730905732  1.0000
  C   C9        1.0  0.5722322541411772  0.9263514798976757  0.08111834321586292  1.0000
  C   C10       1.0  0.4277645313587328  0.0736481223302832  0.9188815775572863  1.0000
  C   C11       1.0  0.7332887519644872  0.715010318827801  0.8953866790448333  1.0000
  C   C12       1.0  0.26671481920202933  0.2849944515081049  0.1046125802940949  1.0000
  C   C13       1.0  0.44391802694815413  0.200087606010463  0.7411898382152915  1.0000
  C   C14       1.0  0.5560709233089725  0.7999111348661712  0.25880689036827687  1.0000
  C   C15       1.0  0.3956992382793629  0.3161064613623807  0.73742669104481  1.0000
  C   C16       1.0  0.6042936047961549  0.6838922795142537  0.2625718996390347  1.0000
  C   C17       1.0  0.21980652986611915  0.337608374485086  0.7238806096779912  1.0000
  C   C18       1.0  0.7801876108155315  0.6623903663915485  0.2761180288370184  1.0000
  C   C19       1.0  0.09709030613350222  0.2465308080960824  0.7185105098708533  1.0000
  C   C20       1.0  0.9029014873658384  0.7534722395371816  0.2814916744852383  1.0000
  C   C21       1.0  0.15745834712151927  0.1357351871781702  0.7237183631800832  1.0000
  C   C22       1.0  0.8425295535594162  0.8642678604550866  0.27628310481359364  1.0000
  C   C23       1.0  0.5251424398474924  0.41419456618449857  0.7479940603998685  1.0000
  C   C24       1.0  0.4748515520161903  0.5858015906381624  0.25200560127908034  1.0000
  C   C25       1.0  0.6815111842032879  0.8560712412476333  0.6059433925414909  1.0000
  C   C26       1.0  0.3184932877214379  0.1439266382776765  0.3940590249784108  1.0000
  C   C27       1.0  0.68265693971361  0.9704853990813191  0.6397337633528225  1.0000
  C   C28       1.0  0.3173424409985657  0.029514203146639797  0.3602645344758741  1.0000
  C   C29       1.0  0.7125488358540937  0.04422177701877669  0.5221806395750264  1.0000
  C   C30       1.0  0.2874606280712015  0.9557726571012279  0.4778172228862233  1.0000
  C   C31       1.0  0.7169865970780551  0.9356325404231426  0.4836242284391262  1.0000
  C   C32       1.0  0.2830370909087066  0.0643610323455448  0.5163804208651541  1.0000
  C   C33       1.0  0.7000616509363342  0.8407254060437666  0.5270139836833181  1.0000
  C   C34       1.0  0.2999555490197708  0.1592681667249209  0.4729904264651453  1.0000
  C   C35       1.0  0.6695415828622517  0.7532293384635622  0.6517032432021352  1.0000
  C   C36       1.0  0.3304527066373737  0.2467719864670457  0.34830296518283893  1.0000
  C   C37       1.0  0.2674365199268394  0.7729620359649942  0.8136277709814621  1.0000
  C   C38       1.0  0.7325707952401076  0.2270401503169452  0.18637208214597223  1.0000
  C   C39       1.0  0.23728729147643435  0.8388778074519223  0.6670476593682437  1.0000
  C   C40       1.0  0.7627146844480067  0.1611217947760366  0.3329518798606373  1.0000
  C   C41       1.0  0.9683597338713953  0.3338778618970792  0.912318030180906  1.0000
  C   C42       1.0  0.03163445641624921  0.6661217403308797  0.0876823677988483  1.0000
  C   C43       1.0  0.2689254263005694  0.4652821746138045  0.9270068004547484  1.0000
  C   C44       1.0  0.7310763511999102  0.5347139822088494  0.0729902838665453  1.0000
  C   C45       1.0  0.9564040396698135  0.3277570993825591  0.538014973445776  1.0000
  C   C46       1.0  0.04359279543608351  0.6722433641967243  0.461983842447495  1.0000
  C   C47       1.0  0.6193767627672386  0.3798266483222221  0.5511981739766156  1.0000
  C   C48       1.0  0.3806296020354979  0.6201815674189888  0.4488019173254401  1.0000
  S   S1        1.0  0.9738205416846955  0.9286263087466577  0.9584842968467486  1.0000
  S   S2        1.0  0.02617908705742881  0.0713776002379234  0.0415176424853598  1.0000
  S   S3        1.0  0.6688169733118415  0.170196130983534  0.7568009445218778  1.0000
  S   S4        1.0  0.331179613764114  0.8298000258391269  0.24319422986798142  1.0000
  S   S5        1.0  0.6685184765371732  0.9935394672914413  0.74136458291585  1.0000
  S   S6        1.0  0.3314768625386364  0.0064575508825441994  0.2586345945833061  1.0000
  S   S7        1.0  0.10121374265922613  0.8036597358319995  0.7409556369366115  1.0000
  S   S8        1.0  0.8987911261134233  0.1963450345039064  0.2590453888402635  1.0000
  S   S9        1.0  0.03903810349223851  0.48187352383343546  0.90801005731457  1.0000
  S   S10       1.0  0.9609638228262086  0.5181252170431989  0.091988868187407  1.0000
  S   S11       1.0  0.8328300254206484  0.4470318627424774  0.5705257843520358  1.0000
  S   S12       1.0  0.16717489295798776  0.5529737689447529  0.42947299080709916  1.0000
  N   N1        1.0  0.7247789331399517  0.9523996053130402  0.05454632399226258  1.0000
  N   N2        1.0  0.2752166539658063  0.0476017196175675  0.9454547764035227  1.0000
  N   N3        1.0  0.3267124832106063  0.1122952335745069  0.7328267446329877  1.0000
  N   N4        1.0  0.6732726734400956  0.8877052300047765  0.2671727865176763  1.0000
  N   N5        1.0  0.696574848992711  0.0620362451197209  0.5978218053073264  1.0000
  N   N6        1.0  0.3034323173562613  0.937963357108238  0.4021779252461997  1.0000
  O   O1        1.0  0.8751091537950517  0.7392513291635865  0.8665609273603679  1.0000
  O   O2        1.0  0.12488797894678783  0.2607543025236438  0.133436987942865  1.0000
  O   O3        1.0  0.6383889255479859  0.6258862972435963  0.8694542259503919  1.0000
  O   O4        1.0  0.3616107528001252  0.3741184730923095  0.1305425984193391  1.0000
  O   O5        1.0  0.49034034567206686  0.5097227348691007  0.7194850113235916  1.0000
  O   O6        1.0  0.5096523981914702  0.49027428330488476  0.2805186534646609  1.0000
  O   O7        1.0  0.6715510800932949  0.3992742385351136  0.7849856253804717  1.0000
  O   O8        1.0  0.328444060558553  0.6007193342335739  0.21501510729358841  1.0000
  O   O9        1.0  0.6747306511211593  0.6527380634450637  0.6192395579105607  1.0000
  O   O10       1.0  0.32526618398474494  0.3472624001342197  0.3807667052787664  1.0000
  O   O11       1.0  0.662441896122921  0.7704124360433795  0.7247877379008474  1.0000
  O   O12       1.0  0.3375474013761349  0.22959233429252626  0.2752172968534978  1.0000
  O   O13       1.0  0.0172575540927724  0.6868381010453035  0.7101717766477762  1.0000
  O   O14       1.0  0.9827446202556305  0.3131649465879534  0.2898296446197648  1.0000
  O   O15       1.0  0.013993145645528704  0.5085306246354833  0.8237450311967436  1.0000
  O   O16       1.0  0.9860074830667929  0.49146811624115117  0.1762532736051483  1.0000
  O   O17       1.0  0.8680487370301581  0.4539106144228811  0.6579577400849106  1.0000
  O   O18       1.0  0.1319548341363515  0.5460941559130248  0.3420415192540176  1.0000
