data_image0
_chemical_formula_structural       Gd4H28C44N12O28
_chemical_formula_sum              "Gd4 H28 C44 N12 O28"
_cell_length_a       8.185251988811995
_cell_length_b       11.576518735984966
_cell_length_c       14.921310522010762
_cell_angle_alpha    90.00005544241624
_cell_angle_beta     89.99987234317015
_cell_angle_gamma    91.82182824820552

_space_group_name_H-M_alt    "P 1"
_space_group_IT_number       1

loop_
  _space_group_symop_operation_xyz
  'x, y, z'

loop_
  _atom_site_type_symbol
  _atom_site_label
  _atom_site_symmetry_multiplicity
  _atom_site_fract_x
  _atom_site_fract_y
  _atom_site_fract_z
  _atom_site_occupancy
  Gd  Gd1       1.0  0.222847160135025  0.07403734499804669  0.8688645922355677  1.0000
  Gd  Gd2       1.0  0.7771564140373215  0.42596147421373604  0.3688660784538982  1.0000
  Gd  Gd3       1.0  0.7771536594636856  0.9259629782719191  0.1311331262620428  1.0000
  Gd  Gd4       1.0  0.2228467609320788  0.5740362695780592  0.631132980406143  1.0000
  H   H1        1.0  0.835401166831069  0.6480366144204623  0.9436762266239853  1.0000
  H   H2        1.0  0.16460053298806798  0.8519656011846594  0.4436777358496968  1.0000
  H   H3        1.0  0.1645994756273055  0.3519585234756165  0.0563235024190476  1.0000
  H   H4        1.0  0.8353981083668458  0.14804248694122182  0.5563233335642581  1.0000
  H   H5        1.0  0.46475699242905233  0.0381395829225966  0.726525056857625  1.0000
  H   H6        1.0  0.5352459894983213  0.46186079334546554  0.22652820605836874  1.0000
  H   H7        1.0  0.5352449310495544  0.9618572900349636  0.2734726616380101  1.0000
  H   H8        1.0  0.46475494818588453  0.5381429868427504  0.7734721931701429  1.0000
  H   H9        1.0  0.5318904813526828  0.16084519411406722  0.7729110679050637  1.0000
  H   H10       1.0  0.4681110631065549  0.3391543650252089  0.2729135369093285  1.0000
  H   H11       1.0  0.46810899818439117  0.8391516656349087  0.2270866505920637  1.0000
  H   H12       1.0  0.5318898450562771  0.6608485509334373  0.7270861921364612  1.0000
  H   H13       1.0  0.9139965694715142  0.4017055740837351  0.9391181755350858  1.0000
  H   H14       1.0  0.08600556010841129  0.09829504832030271  0.4391189203059866  1.0000
  H   H15       1.0  0.0860041910817628  0.5982930207278798  0.060879542961913606  1.0000
  H   H16       1.0  0.913995318533047  0.9017070034087808  0.5608801385570743  1.0000
  H   H17       1.0  0.7462371227090331  0.22058074899534574  0.9168326340842797  1.0000
  H   H18       1.0  0.253763903774022  0.27942070523126006  0.41683263952946703  1.0000
  H   H19       1.0  0.2537696591272293  0.7794152861509788  0.08316642477291943  1.0000
  H   H20       1.0  0.7462309240590416  0.7205830419347238  0.5831664193379281  1.0000
  H   H21       1.0  0.5863349775427196  0.3283921549555018  0.6677775706670985  1.0000
  H   H22       1.0  0.4136658255083887  0.17160900431452572  0.1677779699549475  1.0000
  H   H23       1.0  0.4136548443110398  0.6716081088781679  0.3322241689317238  1.0000
  H   H24       1.0  0.5863423554282221  0.8283922228130723  0.832224439815441  1.0000
  H   H25       1.0  0.7493294642012812  0.5151984006585196  0.6792457027150434  1.0000
  H   H26       1.0  0.2506708813890626  0.9848043598116334  0.17924452568181687  1.0000
  H   H27       1.0  0.2506579137122884  0.4848018499661819  0.3207553667028549  1.0000
  H   H28       1.0  0.7493398025398932  0.015198608981343406  0.8207552033580117  1.0000
  C   C1        1.0  0.9621788845666047  0.859573789781507  0.933745465402815  1.0000
  C   C2        1.0  0.0378215445224299  0.6404258150360462  0.43375032177412015  1.0000
  C   C3        1.0  0.03783028216575699  0.14042053011505126  0.0662535934522808  1.0000
  C   C4        1.0  0.962170809828919  0.3595770546972261  0.5662574494659225  1.0000
  C   C5        1.0  0.9952807927191784  0.7609298798891119  0.8736266941499622  1.0000
  C   C6        1.0  0.0047188030500891  0.7390739698646273  0.3736303246343837  1.0000
  C   C7        1.0  0.004726018631743003  0.23906701948871503  0.126376385802061  1.0000
  C   C8        1.0  0.9952724769414019  0.26093321441099704  0.6263787869727722  1.0000
  C   C9        1.0  0.07251226374197729  0.745430344951103  0.7915379479748736  1.0000
  C   C10       1.0  0.9274863506100529  0.7545708104689551  0.2915404622084311  1.0000
  C   C11       1.0  0.9274908226512081  0.2545648061554999  0.20846513197876965  1.0000
  C   C12       1.0  0.0725072847628709  0.2454337943254005  0.7084646283017975  1.0000
  C   C13       1.0  0.18727158915544354  0.8202343764433453  0.7372055469071483  1.0000
  C   C14       1.0  0.8127321604418044  0.6797676067166379  0.23720613473032162  1.0000
  C   C15       1.0  0.8127340592687986  0.17976424478892747  0.2627982032286482  1.0000
  C   C16       1.0  0.18726630377277328  0.32023529603537076  0.7627969452290557  1.0000
  C   C17       1.0  0.932810834557621  0.5853675443104436  0.8195684120744603  1.0000
  C   C18       1.0  0.06719258482031881  0.9146345342083678  0.31956941720128645  1.0000
  C   C19       1.0  0.0671887040208574  0.41463104389804795  0.1804313169705338  1.0000
  C   C20       1.0  0.9328083528638871  0.08536924597984101  0.6804309820272252  1.0000
  C   C21       1.0  0.8437117598621312  0.47404227791367515  0.8105946821526189  1.0000
  C   C22       1.0  0.15629088501027874  0.02595819568717421  0.31059461655625153  1.0000
  C   C23       1.0  0.15628527572938822  0.5259545686278813  0.1894050468932562  1.0000
  C   C24       1.0  0.8437112451233161  0.9740447268757678  0.6894051124887852  1.0000
  C   C25       1.0  0.8420213822863332  0.3899073642374944  0.8781832188927654  1.0000
  C   C26       1.0  0.1579822135731419  0.11009319422075242  0.37818321435921126  1.0000
  C   C27       1.0  0.1579793782642511  0.6100912305748949  0.12181583996907361  1.0000
  C   C28       1.0  0.8420186650683164  0.8899088575083384  0.6218158445038497  1.0000
  C   C29       1.0  0.7504998821003782  0.28756742427015786  0.8654075489518861  1.0000
  C   C30       1.0  0.24950012859124368  0.21243396381287744  0.3654075093454239  1.0000
  C   C31       1.0  0.2495008489288324  0.7124303063126762  0.134590839727224  1.0000
  C   C32       1.0  0.7504971136606287  0.7875689323325121  0.6345915495201737  1.0000
  C   C33       1.0  0.6623575421960268  0.3479076419583862  0.7263742612666847  1.0000
  C   C34       1.0  0.3376430259238178  0.15209358515373592  0.2263740686498608  1.0000
  C   C35       1.0  0.3376346645565107  0.6520909066247428  0.27362613796520213  1.0000
  C   C36       1.0  0.6623627996434465  0.8479102214516345  0.7736263305756739  1.0000
  C   C37       1.0  0.7510759377646465  0.45198735398779655  0.73304055062971  1.0000
  C   C38       1.0  0.2489258255986684  0.04801388744677131  0.23304038835598823  1.0000
  C   C39       1.0  0.2489162985106148  0.5480120588245114  0.2669598486024825  1.0000
  C   C40       1.0  0.7510811924179918  0.9519890615333324  0.7669593406860784  1.0000
  C   C41       1.0  0.5346841110719467  0.06332625134574241  0.0007074096273527002  1.0000
  C   C42       1.0  0.46531244441102604  0.4366738238460925  0.5007072395082375  1.0000
  C   C43       1.0  0.4653257346963429  0.9366879458179369  0.9992849474105798  1.0000
  C   C44       1.0  0.5346731801389879  0.5633108640445388  0.4992857877158414  1.0000
  N   N1        1.0  0.9122860387663323  0.6577745636930958  0.8902411985529214  1.0000
  N   N2        1.0  0.0877134313488313  0.8422275768371607  0.3902427944479713  1.0000
  N   N3        1.0  0.0877158551828359  0.34222144503723234  0.1097598708545107  1.0000
  N   N4        1.0  0.9122790411014491  0.15777874981047552  0.6097609556987749  1.0000
  N   N5        1.0  0.0316352349459876  0.6364930261051499  0.7591687913675216  1.0000
  N   N6        1.0  0.9683683970671026  0.8635081182555382  0.2591713373745037  1.0000
  N   N7        1.0  0.9683678809793222  0.36350298922791774  0.24082959730948525  1.0000
  N   N8        1.0  0.0316300376301299  0.13649392026574964  0.740829061854882  1.0000
  N   N9        1.0  0.6627119168434845  0.2667993804704238  0.790773399754393  1.0000
  N   N10       1.0  0.3372895855293478  0.23320106357689951  0.2907725982459013  1.0000
  N   N11       1.0  0.3372863111947311  0.7331966084466401  0.20922699947285392  1.0000
  N   N12       1.0  0.6627113226334841  0.7668018523817469  0.7092271307998886  1.0000
  O   O1        1.0  0.8877528767171227  0.8314870715987158  0.0056574493990809  1.0000
  O   O2        1.0  0.1122444398772089  0.6685137396244017  0.5056601903471076  1.0000
  O   O3        1.0  0.11225634905529351  0.1685089767577423  0.9943442901863123  1.0000
  O   O4        1.0  0.8877492250184389  0.3314917293991329  0.4943449001634193  1.0000
  O   O5        1.0  0.9962295335795516  0.9611615588675025  0.9074347910662226  1.0000
  O   O6        1.0  0.0037735630337039066  0.538841485612011  0.40743760228432546  1.0000
  O   O7        1.0  0.0037759967618811005  0.038833605445745406  0.0925649379738331  1.0000
  O   O8        1.0  0.9962250783077805  0.461166602517757  0.5925701689538343  1.0000
  O   O9        1.0  0.230211697113468  0.9203244006287509  0.7642581417940378  1.0000
  O   O10       1.0  0.769791973541551  0.5796784780822861  0.2642600473660366  1.0000
  O   O11       1.0  0.7697879300277891  0.07967678026881232  0.23574426798156625  1.0000
  O   O12       1.0  0.230210068018522  0.4203218517946823  0.7357423624077626  1.0000
  O   O13       1.0  0.23557206578427534  0.7758463101287564  0.6643553312820742  1.0000
  O   O14       1.0  0.7644331388147236  0.724153866833021  0.1643573518111339  1.0000
  O   O15       1.0  0.7644396039296808  0.2241497514362792  0.3356464083018267  1.0000
  O   O16       1.0  0.23556288145832843  0.2758490227104033  0.8356457281497285  1.0000
  O   O17       1.0  0.4338629816717301  0.10527933537198922  0.7609195329201769  1.0000
  O   O18       1.0  0.5661386108654726  0.3947202098836088  0.2609219238005593  1.0000
  O   O19       1.0  0.5661328614797939  0.8947183687921269  0.2390761750322241  1.0000
  O   O20       1.0  0.43386346022806077  0.6052809842194338  0.7390751245141944  1.0000
  O   O21       1.0  0.4578484723114613  0.13680505240165533  0.9560230362930895  1.0000
  O   O22       1.0  0.5421510274585657  0.3631921194495079  0.45602409247108266  1.0000
  O   O23       1.0  0.542163669791492  0.8632048368227956  0.0439659698297206  1.0000
  O   O24       1.0  0.4578370115196719  0.6367917174178148  0.5439642434742639  1.0000
  O   O25       1.0  0.6633238814376625  0.0821704460075026  0.0466141636898527  1.0000
  O   O26       1.0  0.3366675725900948  0.4178287916867306  0.5466114559380344  1.0000
  O   O27       1.0  0.3366797954273366  0.917841989677534  0.9533802038984477  1.0000
  O   O28       1.0  0.6633191558331006  0.582152445893435  0.4533849221961788  1.0000
