data_image0
_chemical_formula_structural       Cd2H32C48N8O20
_chemical_formula_sum              "Cd2 H32 C48 N8 O20"
_cell_length_a       6.674342255517671
_cell_length_b       12.709229669606382
_cell_length_c       15.033200348053697
_cell_angle_alpha    115.01598140584464
_cell_angle_beta     98.49230604369986
_cell_angle_gamma    90.06949089832906

_space_group_name_H-M_alt    "P 1"
_space_group_IT_number       1

loop_
  _space_group_symop_operation_xyz
  'x, y, z'

loop_
  _atom_site_type_symbol
  _atom_site_label
  _atom_site_symmetry_multiplicity
  _atom_site_fract_x
  _atom_site_fract_y
  _atom_site_fract_z
  _atom_site_occupancy
  Cd  Cd1       1.0  0.25008822389362  0.8718055447294545  0.00018056103326803027  1.0000
  Cd  Cd2       1.0  0.7499105112762692  0.12819328473514696  0.9998209993959577  1.0000
  H   H1        1.0  0.33072329111257653  0.5173199753367541  0.37483968564227144  1.0000
  H   H2        1.0  0.1685668521818187  0.1423315271050214  0.6254075762833295  1.0000
  H   H3        1.0  0.6692603458157719  0.48268049176145655  0.6251589426477508  1.0000
  H   H4        1.0  0.8314409739277905  0.8576690916262422  0.3745911465264413  1.0000
  H   H5        1.0  0.28311598405304034  0.4517193765699614  0.5044670881245422  1.0000
  H   H6        1.0  0.2158673064170316  0.9471706537950694  0.4955752069416021  1.0000
  H   H7        1.0  0.7168756552861736  0.5482854894447015  0.49553289964224934  1.0000
  H   H8        1.0  0.7841435526212662  0.0528291186940919  0.5044253814996438  1.0000
  H   H9        1.0  0.3690811161661784  0.09900127481360949  0.3047167392380743  1.0000
  H   H10       1.0  0.13129566360862546  0.7939071776457709  0.6952884084630495  1.0000
  H   H11       1.0  0.630933565269892  0.9010046180678302  0.6952895786403985  1.0000
  H   H12       1.0  0.8687169840249992  0.20609521580244208  0.30471321752850855  1.0000
  H   H13       1.0  0.07195810499427319  0.6922256695664898  0.7738565521813711  1.0000
  H   H14       1.0  0.4275754005410802  0.9183148585293706  0.2262016019683414  1.0000
  H   H15       1.0  0.9280362650802303  0.3077748717172425  0.22614537227878623  1.0000
  H   H16       1.0  0.5724302485157295  0.0816761935313011  0.7738008989993402  1.0000
  H   H17       1.0  0.0461957808681817  0.47697169364740677  0.6614872313124777  1.0000
  H   H18       1.0  0.4540318009594343  0.815142425437443  0.3382680722332266  1.0000
  H   H19       1.0  0.9538061644663357  0.5230306272247346  0.33851176616386874  1.0000
  H   H20       1.0  0.5459733299746432  0.18484513686824763  0.6617298262118891  1.0000
  H   H21       1.0  0.1284742527303493  0.33974834325211833  0.740506001038554  1.0000
  H   H22       1.0  0.3714613831565571  0.5988278301584413  0.2590536645956688  1.0000
  H   H23       1.0  0.8715184767069813  0.6602530475141605  0.25949147653479077  1.0000
  H   H24       1.0  0.628536107684873  0.40115968053711976  0.7409424517178563  1.0000
  H   H25       1.0  0.2396169508029757  0.4191629536127407  0.9220333775014565  1.0000
  H   H26       1.0  0.2595854923195873  0.4967698478663535  0.07755509463516565  1.0000
  H   H27       1.0  0.7603768410239695  0.5808332290985305  0.07796429602906577  1.0000
  H   H28       1.0  0.7404032976088571  0.5032219536754994  0.9224407304923614  1.0000
  H   H29       1.0  0.425384158551786  0.3057023135000065  0.13636735601756556  1.0000
  H   H30       1.0  0.07539664737468849  0.16889242908345636  0.8640316333976301  1.0000
  H   H31       1.0  0.574591718034263  0.6942963643531072  0.8636301933267345  1.0000
  H   H32       1.0  0.9245990517279665  0.8311089778204207  0.13596468759456565  1.0000
  C   C1        1.0  0.38593249591905726  0.22500709154054013  0.2454620415818667  1.0000
  C   C2        1.0  0.1145374808551338  0.9791799230812402  0.7547346457894619  1.0000
  C   C3        1.0  0.6140602659345902  0.7749934352366024  0.7545377905491717  1.0000
  C   C4        1.0  0.8854720737249833  0.020822447791580597  0.2452654661635592  1.0000
  C   C5        1.0  0.3770398205230877  0.3449279182998239  0.2659567353144254  1.0000
  C   C6        1.0  0.1232736060609056  0.07868154847363229  0.7343527025293639  1.0000
  C   C7        1.0  0.6229451192941724  0.6550708160133211  0.7340406825610444  1.0000
  C   C8        1.0  0.8767312780918886  0.9213207869266566  0.2656444707109172  1.0000
  C   C9        1.0  0.3403217882053438  0.42599189424204537  0.36003379872336433  1.0000
  C   C10       1.0  0.15926882091827815  0.06577972406824269  0.6401916235435505  1.0000
  C   C11       1.0  0.6596646657223602  0.5740077153479318  0.6399620216136767  1.0000
  C   C12       1.0  0.840743795868306  0.9342226677705197  0.3598093347930912  1.0000
  C   C13       1.0  0.3143512674146223  0.38968402363190785  0.4324867339473926  1.0000
  C   C14       1.0  0.18502224758417898  0.9570573432884966  0.5676073834372415  1.0000
  C   C15       1.0  0.6856374315370387  0.6103216934532013  0.5675133911526941  1.0000
  C   C16       1.0  0.8149919758539852  0.042945928655441896  0.4323939803257346  1.0000
  C   C17       1.0  0.32892449260889833  0.2716567754022208  0.41225784157611395  1.0000
  C   C18       1.0  0.17087023791948036  0.859210678303846  0.5878047062802807  1.0000
  C   C19       1.0  0.6710795759306619  0.7283507809286718  0.5877444769463622  1.0000
  C   C20       1.0  0.8291425006860249  0.14079258557129748  0.4121972357732702  1.0000
  C   C21       1.0  0.3624166095777994  0.19013040456596292  0.3195120714657307  1.0000
  C   C22       1.0  0.13780063868807696  0.8703060459380862  0.680572196778243  1.0000
  C   C23       1.0  0.6375826714233241  0.8098736474602434  0.6804913853354293  1.0000
  C   C24       1.0  0.8622150094579268  0.12969636525717476  0.31942894028708935  1.0000
  C   C25       1.0  0.4175686385224821  0.13718096432086918  0.1455438798198045  1.0000
  C   C26       1.0  0.08310384208017038  0.9910907100258867  0.8546139526106555  1.0000
  C   C27       1.0  0.5824256975664424  0.8628213065505932  0.8544540031798745  1.0000
  C   C28       1.0  0.9168998934189433  0.0089133662067127  0.1453877693187806  1.0000
  C   C29       1.0  0.10813948445248657  0.627979480387644  0.8030009238218765  1.0000
  C   C30       1.0  0.39137328251959497  0.824866706264764  0.19694744215175303  1.0000
  C   C31       1.0  0.8918518218462808  0.37202190552874004  0.1969984673518823  1.0000
  C   C32       1.0  0.6086308492882324  0.1751252017162486  0.8030532825488024  1.0000
  C   C33       1.0  0.09307524262929688  0.5091254237240789  0.7414797706622664  1.0000
  C   C34       1.0  0.4067420178150839  0.7673973064363439  0.2582979579979821  1.0000
  C   C35       1.0  0.9069192152785419  0.4908777191837642  0.25851909605432866  1.0000
  C   C36       1.0  0.5932573834406014  0.23259369725464998  0.7417001795827716  1.0000
  C   C37       1.0  0.1393753996838143  0.43329276012286033  0.7853231392575352  1.0000
  C   C38       1.0  0.3603119460865755  0.6476627450812984  0.21435105026659326  1.0000
  C   C39       1.0  0.8606141488666664  0.5667060064439224  0.21467588202082763  1.0000
  C   C40       1.0  0.6396860304612773  0.3523291193583802  0.7856473140118041  1.0000
  C   C41       1.0  0.200547625161505  0.47832707232127075  0.8879213967750985  1.0000
  C   C42       1.0  0.2986399305036258  0.590129919898736  0.11177509081626619  1.0000
  C   C43       1.0  0.7994420143608565  0.5216725646724426  0.11207794056524988  1.0000
  C   C44       1.0  0.7013564686704186  0.4098619316437961  0.8882218487879284  1.0000
  C   C45       1.0  0.21495288222273953  0.5989895982641471  0.9450957719841354  1.0000
  C   C46       1.0  0.2840315384839299  0.6537505194616385  0.054719347538785594  1.0000
  C   C47       1.0  0.7850364843840012  0.4010074274487608  0.054902617170256456  1.0000
  C   C48       1.0  0.7159668003821408  0.34624569228436997  0.9452785940847903  1.0000
  N   N1        1.0  0.3101298456626153  0.23245807846438277  0.48816008791742854  1.0000
  N   N2        1.0  0.18974768741593104  0.7441568955686294  0.5118409793373715  1.0000
  N   N3        1.0  0.6898848650512335  0.7675486816250939  0.5118452107131899  1.0000
  N   N4        1.0  0.8102632918720188  0.2558446145555067  0.4881589059180058  1.0000
  N   N5        1.0  0.16736240847114908  0.6715373051037827  0.9016413084915766  1.0000
  N   N6        1.0  0.3316808925432255  0.7698448865859502  0.09832734033079042  1.0000
  N   N7        1.0  0.8326287775779662  0.32846234317762674  0.09835878586804364  1.0000
  N   N8        1.0  0.6683192380567176  0.2301522149219294  0.9016750126486528  1.0000
  O   O1        1.0  0.40855153305773934  0.030910698732753893  0.1291354351844731  1.0000
  O   O2        1.0  0.09223046972725508  0.9011981261371601  0.870922605594174  1.0000
  O   O3        1.0  0.591446199847361  0.9690942076043497  0.870865577694637  1.0000
  O   O4        1.0  0.9077702344124389  0.09880593073895477  0.1290789376065717  1.0000
  O   O5        1.0  0.4547982338616663  0.17595251925458646  0.0826689245566143  1.0000
  O   O6        1.0  0.0459856979618252  0.0927002855116328  0.9175976507863268  1.0000
  O   O7        1.0  0.5451944061730669  0.824047135486168  0.9173299238575151  1.0000
  O   O8        1.0  0.9540103357505529  0.9073037358919436  0.08240095370167912  1.0000
  O   O9        1.0  0.397869105856131  0.3808663213538566  0.1959446829154885  1.0000
  O   O10       1.0  0.10265423506926649  0.18459773559982293  0.8044728404804857  1.0000
  O   O11       1.0  0.6021052242031573  0.619132345211561  0.8040521094095325  1.0000
  O   O12       1.0  0.8973461036136712  0.8154037051671421  0.19552575156952648  1.0000
  O   O13       1.0  0.2748295014017117  0.30503507831721066  0.5705675551742075  1.0000
  O   O14       1.0  0.22510863670034814  0.7344399592122387  0.4294734333580834  1.0000
  O   O15       1.0  0.7251804494822166  0.6949699102742029  0.4294361755844632  1.0000
  O   O16       1.0  0.7749131358585828  0.2655624939148993  0.5705293964744911  1.0000
  O   O17       1.0  0.33065331924124314  0.12757823537123159  0.468438955661881  1.0000
  O   O18       1.0  0.16930472231751986  0.6589111402444843  0.5314907072112262  1.0000
  O   O19       1.0  0.6693783075872587  0.8724303752517246  0.5315692934104063  1.0000
  O   O20       1.0  0.8306970426425196  0.34108857417520255  0.46850934504391967  1.0000
