data_image0
_chemical_formula_structural       Ni2H28C48N8O16
_chemical_formula_sum              "Ni2 H28 C48 N8 O16"
_cell_length_a       8.756637613599473
_cell_length_b       11.667108789797725
_cell_length_c       11.667094776181958
_cell_angle_alpha    108.63315428629828
_cell_angle_beta     93.61416327996815
_cell_angle_gamma    93.61411199378679

_space_group_name_H-M_alt    "P 1"
_space_group_IT_number       1

loop_
  _space_group_symop_operation_xyz
  'x, y, z'

loop_
  _atom_site_type_symbol
  _atom_site_label
  _atom_site_symmetry_multiplicity
  _atom_site_fract_x
  _atom_site_fract_y
  _atom_site_fract_z
  _atom_site_occupancy
  Ni  Ni1       1.0  0.7500007133032086  0.55853664437916  0.4414626857395163  1.0000
  Ni  Ni2       1.0  0.24999968383320953  0.4414644363704597  0.5585361073783872  1.0000
  H   H1        1.0  0.5391849116924304  0.37055706732630983  0.09478704936270081  1.0000
  H   H2        1.0  0.9608145904726445  0.9052097935840425  0.6294402072972431  1.0000
  H   H3        1.0  0.4608148778496927  0.6294385757623219  0.905209062587616  1.0000
  H   H4        1.0  0.039186111290234714  0.09479395991986912  0.370563768475499  1.0000
  H   H5        1.0  0.06915815280176223  0.5236176329445075  0.35213903803479246  1.0000
  H   H6        1.0  0.43084307473501593  0.6478606054707472  0.47638291319614007  1.0000
  H   H7        1.0  0.9308412013209022  0.4763843559417113  0.647860006550765  1.0000
  H   H8        1.0  0.5691584672030318  0.3521404444081711  0.5236184943971551  1.0000
  H   H9        1.0  0.6465439216356046  0.5799933685233469  0.2070722542562251  1.0000
  H   H10       1.0  0.8534563219406197  0.7929265872102889  0.42000559811503996  1.0000
  H   H11       1.0  0.35345647531653407  0.4200077224654353  0.7929256850681198  1.0000
  H   H12       1.0  0.1465439737765095  0.20707359579513707  0.5799920366469635  1.0000
  H   H13       1.0  0.20061554616501812  0.2377489480480932  0.2837548385652724  1.0000
  H   H14       1.0  0.2993824177738773  0.7162467531822118  0.762250155707548  1.0000
  H   H15       1.0  0.7993845483721459  0.7622493473165123  0.7162481636270144  1.0000
  H   H16       1.0  0.7006191239798838  0.2837543069358618  0.23775039809218163  1.0000
  H   H17       1.0  0.1152559516128377  0.06736826473073172  0.0924117757469105  1.0000
  H   H18       1.0  0.384740713389384  0.9075902158008022  0.9326316084283234  1.0000
  H   H19       1.0  0.8847495610159797  0.9326272752001542  0.9075931396125085  1.0000
  H   H20       1.0  0.615251371590773  0.09240807039729765  0.0673718758946791  1.0000
  H   H21       1.0  0.737949244352329  0.5439009370444482  0.00480764065351744  1.0000
  H   H22       1.0  0.762051799802613  0.995192495402876  0.4560993219027979  1.0000
  H   H23       1.0  0.2620529044428537  0.45610559145208657  0.9951930329331091  1.0000
  H   H24       1.0  0.2379484949930628  0.004807738798334104  0.5438940438913844  1.0000
  H   H25       1.0  0.18085581419546773  0.48805067123370094  0.15671375020119882  1.0000
  H   H26       1.0  0.3191462933160309  0.8432864002175083  0.5119495713243154  1.0000
  H   H27       1.0  0.8191459300282987  0.5119522048510917  0.8432874127232067  1.0000
  H   H28       1.0  0.6808563925022001  0.15671466998648503  0.48805018177653636  1.0000
  C   C1        1.0  0.3765097944901044  0.31423955077389104  0.20248354740941465  1.0000
  C   C2        1.0  0.12348933347752931  0.7975159723356386  0.6857588541328141  1.0000
  C   C3        1.0  0.6234914442958157  0.6857587444374789  0.79751950787756  1.0000
  C   C4        1.0  0.8765082699078306  0.20248051760788144  0.3142425789518483  1.0000
  C   C5        1.0  0.43700959569397213  0.41157985448869283  0.319969717412377  1.0000
  C   C6        1.0  0.06299322760038001  0.6800294494884441  0.5884171864594805  1.0000
  C   C7        1.0  0.5630147274041448  0.5884204276903446  0.6800204944025053  1.0000
  C   C8        1.0  0.9369850937037614  0.31997893914939374  0.4115795660890313  1.0000
  C   C9        1.0  0.44426112783223454  0.306076762091152  0.0955204437256612  1.0000
  C   C10       1.0  0.05573475000559114  0.9044788532877351  0.6939210837357023  1.0000
  C   C11       1.0  0.5557433404927892  0.6939197576504272  0.9044787465464593  1.0000
  C   C12       1.0  0.9442574356566953  0.09552037161119391  0.3060801437689448  1.0000
  C   C13       1.0  0.393842232700365  0.21184051506806878  0.9888959812622742  1.0000
  C   C14       1.0  0.1061532351394021  0.011103582115325103  0.7881602015771704  1.0000
  C   C15       1.0  0.6061576588139276  0.7881559950472978  0.01110385042463964  1.0000
  C   C16       1.0  0.8938425866606111  0.9888974070948254  0.21184606330405142  1.0000
  C   C17       1.0  0.2761023661096544  0.12268940941168444  0.985130582484629  1.0000
  C   C18       1.0  0.22389296794564473  0.014870049837711003  0.8773105490318613  1.0000
  C   C19       1.0  0.7238965838101663  0.8773089065844746  0.014870659025831519  1.0000
  C   C20       1.0  0.7761016076334429  0.9851300724989474  0.12269194301807573  1.0000
  C   C21       1.0  0.9994290798282892  0.5267937655864047  0.2724820825921555  1.0000
  C   C22       1.0  0.500571583931027  0.7275175308390944  0.4732066257531926  1.0000
  C   C23       1.0  0.0005703757136715076  0.47320912104400753  0.7275181203493019  1.0000
  C   C24       1.0  0.4994299576384478  0.27248353951813453  0.5267930742529713  1.0000
  C   C25       1.0  0.7640864940627594  0.5581840362480863  0.19140612628668668  1.0000
  C   C26       1.0  0.7359155474705973  0.8085937741317513  0.4418147414297665  1.0000
  C   C27       1.0  0.23591524979242  0.4418188603150171  0.8085933290505877  1.0000
  C   C28       1.0  0.264087137610467  0.19140733702887772  0.55818159649683  1.0000
  C   C29       1.0  0.25584203544011797  0.22870537288087434  0.20038609240486238  1.0000
  C   C30       1.0  0.24415519260809054  0.7996150526709018  0.7712946520789146  1.0000
  C   C31       1.0  0.7441581599634689  0.7712938509454048  0.7996155067626275  1.0000
  C   C32       1.0  0.755840527035467  0.20038507975168332  0.22870703927215166  1.0000
  C   C33       1.0  0.2084898484499575  0.13430630226081774  0.0936647341419103  1.0000
  C   C34       1.0  0.29150886559320816  0.9063344088282296  0.8656932444441594  1.0000
  C   C35       1.0  0.7915124331654299  0.8656910950531159  0.9063372158838519  1.0000
  C   C36       1.0  0.7084865507139284  0.09366297916596276  0.1343092408070206  1.0000
  C   C37       1.0  0.9696277831725411  0.5108193456862723  0.05978444820330961  1.0000
  C   C38       1.0  0.5303734400993605  0.9402156120431044  0.48917911552995713  1.0000
  C   C39       1.0  0.030374264387646118  0.4891862748269064  0.9402159208209822  1.0000
  C   C40       1.0  0.46962675327702624  0.059783724413904324  0.5108130919083251  1.0000
  C   C41       1.0  0.8172219483403751  0.5379769226932183  0.0778767888011132  1.0000
  C   C42       1.0  0.6827792527301784  0.9221231386054997  0.46202275272541743  1.0000
  C   C43       1.0  0.18278238753303813  0.46202870775263716  0.922122832618996  1.0000
  C   C44       1.0  0.31721999905174403  0.07787800373230172  0.5379708645364117  1.0000
  C   C45       1.0  0.06090300800958202  0.5067280858447065  0.1614747810777217  1.0000
  C   C46       1.0  0.43909895038613916  0.8385245398816539  0.49327104717641396  1.0000
  C   C47       1.0  0.9390989381313094  0.4932766369242716  0.8385244295906631  1.0000
  C   C48       1.0  0.5609024892111663  0.1614756634488472  0.5067249330931531  1.0000
  N   N1        1.0  0.4736939209177535  0.20788644132235853  0.8806961493813857  1.0000
  N   N2        1.0  0.026301506920454205  0.11930330711876282  0.792111212446649  1.0000
  N   N3        1.0  0.5263032771590161  0.7921064371660482  0.1193023578667934  1.0000
  N   N4        1.0  0.973696806031363  0.88069948751248  0.20789662154220417  1.0000
  N   N5        1.0  0.8523678722054839  0.5513155848879806  0.28744670406275924  1.0000
  N   N6        1.0  0.647632705514944  0.7125517126496705  0.448683507918311  1.0000
  N   N7        1.0  0.1476334663411123  0.4486837002200021  0.7125498254380318  1.0000
  N   N8        1.0  0.35236779340934987  0.28745024536583946  0.5513181511426309  1.0000
  O   O1        1.0  0.5785862073431716  0.44626024968493283  0.323838951441175  1.0000
  O   O2        1.0  0.9214145921703859  0.6761607843153712  0.5537371384830932  1.0000
  O   O3        1.0  0.42140150182193287  0.5537399247669299  0.6761589530727861  1.0000
  O   O4        1.0  0.07859620443984741  0.32384120303848374  0.4462624370493841  1.0000
  O   O5        1.0  0.345399037145235  0.449815410580854  0.4000011758807815  1.0000
  O   O6        1.0  0.1546035591717398  0.5999992980822739  0.5501823484919726  1.0000
  O   O7        1.0  0.6545890797242323  0.5501882422170823  0.6000107537860088  1.0000
  O   O8        1.0  0.8454094546275925  0.3999918339682083  0.44981031640226377  1.0000
  O   O9        1.0  0.530964640929632  0.305764535201  0.8743999645748203  1.0000
  O   O10       1.0  0.9690336053554133  0.12559842079456732  0.6942350882070228  1.0000
  O   O11       1.0  0.46903359923943805  0.6942274863465913  0.12559402223789112  1.0000
  O   O12       1.0  0.03096615536587423  0.8744071078726636  0.30577285876997007  1.0000
  O   O13       1.0  0.4814242370205762  0.10745827429630594  0.8028850947312588  1.0000
  O   O14       1.0  0.0185759767788696  0.1971170653282996  0.8925415083169312  1.0000
  O   O15       1.0  0.5185705718765589  0.8925336657977355  0.19711556314588566  1.0000
  O   O16       1.0  0.9814324315731754  0.8028839324354142  0.10746448681234014  1.0000
