data_image0
_chemical_formula_structural       Rb4H8C24N12O36
_chemical_formula_sum              "Rb4 H8 C24 N12 O36"
_cell_length_a       9.472616706065558
_cell_length_b       9.827547590012031
_cell_length_c       11.77763024269652
_cell_angle_alpha    85.95297137302217
_cell_angle_beta     66.28070892120523
_cell_angle_gamma    79.87404251193314

_space_group_name_H-M_alt    "P 1"
_space_group_IT_number       1

loop_
  _space_group_symop_operation_xyz
  'x, y, z'

loop_
  _atom_site_type_symbol
  _atom_site_label
  _atom_site_symmetry_multiplicity
  _atom_site_fract_x
  _atom_site_fract_y
  _atom_site_fract_z
  _atom_site_occupancy
  Rb  Rb1       1.0  0.6844296181160203  0.7612533654741185  0.10046396061601828  1.0000
  Rb  Rb2       1.0  0.21520932162881928  0.7387959356478008  0.10028711495365172  1.0000
  Rb  Rb3       1.0  0.31557467365644937  0.23874446162365365  0.8995308456036782  1.0000
  Rb  Rb4       1.0  0.7847922460609879  0.2612070569934631  0.8997118343788842  1.0000
  H   H1        1.0  0.39784444035049643  0.9636039360526356  0.6146446743745885  1.0000
  H   H2        1.0  0.9873692995755612  0.5362443310900533  0.6148356636912596  1.0000
  H   H3        1.0  0.6021557755971544  0.03639699975606451  0.38535597162064045  1.0000
  H   H4        1.0  0.01263194368132028  0.46375556599118556  0.3851641338224781  1.0000
  H   H5        1.0  0.6461480458006861  0.5894069813707008  0.44075994570673765  1.0000
  H   H6        1.0  0.9126999774086286  0.9108215737249166  0.4408053655379405  1.0000
  H   H7        1.0  0.3538540824584402  0.4105918643560216  0.5592414492501733  1.0000
  H   H8        1.0  0.08729679235944597  0.08917631240022669  0.559194630414865  1.0000
  C   C1        1.0  0.09198957243567217  0.7499763138728639  0.8159757923703952  1.0000
  C   C2        1.0  0.9080108192310521  0.2500235883639661  0.1840248535497651  1.0000
  C   C3        1.0  0.20904017320946605  0.8373949124310944  0.7419415615312559  1.0000
  C   C4        1.0  0.04885474501246266  0.6625506494850343  0.7420171080106855  1.0000
  C   C5        1.0  0.790959262301527  0.16260603484672495  0.2580587099080631  1.0000
  C   C6        1.0  0.9511475255536368  0.33744820886874294  0.2579818410215752  1.0000
  C   C7        1.0  0.27977742735558986  0.8321508270570493  0.6092426491386789  1.0000
  C   C8        1.0  0.11082007081049723  0.6677144387602427  0.609297856109528  1.0000
  C   C9        1.0  0.7202232111837003  0.1678480479214315  0.3907567737440801  1.0000
  C   C10       1.0  0.8891795404195619  0.3322854749457065  0.3907024152547294  1.0000
  C   C11       1.0  0.22718490727201865  0.7499596303903573  0.5453780318525077  1.0000
  C   C12       1.0  0.7728142479543081  0.2500433903447288  0.45462101677462396  1.0000
  C   C13       1.0  0.6028653623256442  0.750012851000818  0.7943975720466271  1.0000
  C   C14       1.0  0.39713733723897343  0.2499880630275868  0.20560175169167386  1.0000
  C   C15       1.0  0.5725838672932753  0.6544227776717124  0.7209841551372875  1.0000
  C   C16       1.0  0.7066786432618456  0.8455027970587141  0.7209890667233907  1.0000
  C   C17       1.0  0.42741283772818417  0.34557921864474395  0.2790186615963605  1.0000
  C   C18       1.0  0.29332362730426087  0.15449606129506321  0.27900988230886276  1.0000
  C   C19       1.0  0.6300543071558521  0.6567525393392729  0.5918456318672441  1.0000
  C   C20       1.0  0.7780951227572427  0.8433191612439688  0.5918382345785956  1.0000
  C   C21       1.0  0.36994289161074073  0.3432474024604986  0.4081547387916089  1.0000
  C   C22       1.0  0.2219044884728234  0.15668075246198043  0.4081620367856544  1.0000
  C   C23       1.0  0.7375833433670136  0.7500268561329833  0.5248127583424278  1.0000
  C   C24       1.0  0.26241566314546105  0.24997203547020766  0.4751871383908509  1.0000
  N   N1        1.0  0.25043509503394984  0.9313054856051866  0.8023465459650938  1.0000
  N   N2        1.0  0.9470715018651391  0.5686343839237508  0.8024797914582252  1.0000
  N   N3        1.0  0.7495643404770362  0.06869546167263252  0.19765372547422538  1.0000
  N   N4        1.0  0.05292838964958685  0.43136345632492373  0.19752170271821265  1.0000
  N   N5        1.0  0.2938396050065819  0.7500029334177968  0.4118055292308753  1.0000
  N   N6        1.0  0.706159901657898  0.24999802017354272  0.5881935192461185  1.0000
  N   N7        1.0  0.48149725479186123  0.5486772738819355  0.7859131052460813  1.0000
  N   N8        1.0  0.7326816643694014  0.9513794876487226  0.7858851108491863  1.0000
  N   N9        1.0  0.5185022852847112  0.45132263351048624  0.21408838908050146  1.0000
  N   N10       1.0  0.2673178422950783  0.04862146594261671  0.21411393762780767  1.0000
  N   N11       1.0  0.8018050817611239  0.7500863418541075  0.3962350546789041  1.0000
  N   N12       1.0  0.19819470518801544  0.24991253827996468  0.6037652166102846  1.0000
  O   O1        1.0  0.034422744000771346  0.7499587580454801  0.9312790132954661  1.0000
  O   O2        1.0  0.9655778233850327  0.2500401106194801  0.06872163254962521  1.0000
  O   O3        1.0  0.18760553799677368  0.9512760533263531  0.9159957335089218  1.0000
  O   O4        1.0  0.896251534629506  0.5487252650594744  0.9161393657603369  1.0000
  O   O5        1.0  0.8123951005425168  0.048722821652134485  0.08400368937383723  1.0000
  O   O6        1.0  0.10374704929132852  0.45127568737393636  0.08386175408540453  1.0000
  O   O7        1.0  0.35994163069327806  0.002859746941332703  0.7363016291190335  1.0000
  O   O8        1.0  0.9036571992828683  0.49699259062375484  0.7364705366811962  1.0000
  O   O9        1.0  0.6400548922022367  0.9971391664421535  0.26369958987116604  1.0000
  O   O10       1.0  0.09634258766627099  0.5030062895103173  0.2635297346079853  1.0000
  O   O11       1.0  0.3870719751401809  0.9083114935007617  0.5452047469389569  1.0000
  O   O12       1.0  0.06758433062541487  0.5914799252276809  0.5453114386074988  1.0000
  O   O13       1.0  0.6129265376271604  0.09168945261912143  0.4547975958691097  1.0000
  O   O14       1.0  0.9324169837849537  0.40851997816708524  0.45468713594391386  1.0000
  O   O15       1.0  0.43616657818161275  0.7542116092605298  0.3569524851217666  1.0000
  O   O16       1.0  0.20617317639415936  0.745827002640013  0.35712850822938697  1.0000
  O   O17       1.0  0.5638330330484536  0.2457883044454192  0.6430477862424837  1.0000
  O   O18       1.0  0.7938270061413988  0.2541749793676118  0.6428696919162603  1.0000
  O   O19       1.0  0.5445501304009356  0.7501416377465945  0.910537457768342  1.0000
  O   O20       1.0  0.45544920054447147  0.24986034941662186  0.08946159078372058  1.0000
  O   O21       1.0  0.5160377325271738  0.481312081065802  0.8673176208794188  1.0000
  O   O22       1.0  0.6166228486933747  0.018664898058965197  0.8672917797052692  1.0000
  O   O23       1.0  0.4839630105777032  0.5186857540272882  0.1326830248906035  1.0000
  O   O24       1.0  0.3833781854323348  0.9813370787930682  0.13270557203395586  1.0000
  O   O25       1.0  0.3716621080516018  0.5293440200987191  0.7591004268998562  1.0000
  O   O26       1.0  0.8692904893923837  0.9708101940261574  0.759132432605398  1.0000
  O   O27       1.0  0.6283397335159933  0.4706527825804301  0.2408981474263499  1.0000
  O   O28       1.0  0.13070809452845109  0.029190758407246203  0.24086868724034363  1.0000
  O   O29       1.0  0.5910683128165316  0.570035979440668  0.5326402830953897  1.0000
  O   O30       1.0  0.8759518743256788  0.9302941300867292  0.5326520368340651  1.0000
  O   O31       1.0  0.40893303500593  0.42996287775517333  0.4673607373056115  1.0000
  O   O32       1.0  0.12404600031198486  0.0697068401293208  0.46734748549344124  1.0000
  O   O33       1.0  0.7676220469891959  0.6678284447482811  0.3356343909887087  1.0000
  O   O34       1.0  0.8965348812743837  0.8323833231980446  0.33568081709102415  1.0000
  O   O35       1.0  0.2323762836522079  0.33216941843863174  0.6643663540759165  1.0000
  O   O36       1.0  0.10346696029320394  0.16761347948110478  0.6643177572351818  1.0000
