data_image0
_chemical_formula_structural       Ni2H48C60N36
_chemical_formula_sum              "Ni2 H48 C60 N36"
_cell_length_a       9.33848356545096
_cell_length_b       11.97755744531094
_cell_length_c       13.524696290798785
_cell_angle_alpha    90.00077421619383
_cell_angle_beta     105.15848298242928
_cell_angle_gamma    89.99994952760152

_space_group_name_H-M_alt    "P 1"
_space_group_IT_number       1

loop_
  _space_group_symop_operation_xyz
  'x, y, z'

loop_
  _atom_site_type_symbol
  _atom_site_label
  _atom_site_symmetry_multiplicity
  _atom_site_fract_x
  _atom_site_fract_y
  _atom_site_fract_z
  _atom_site_occupancy
  Ni  Ni1       1.0  1.0219346933009452e-06  1.4747503059000006e-06  0.9999989948996911  1.0000
  Ni  Ni2       1.0  0.5000018929019417  0.5000068855982815  0.49999610927544325  1.0000
  H   H1        1.0  0.621008692040192  0.8495182895083743  0.31241722441066594  1.0000
  H   H2        1.0  0.12100679057752466  0.6504857619441892  0.8124077154669749  1.0000
  H   H3        1.0  0.3789854592953859  0.15047460945009308  0.687592315605805  1.0000
  H   H4        1.0  0.8789868085632405  0.349509641595155  0.18758766186063272  1.0000
  H   H5        1.0  0.7620509165326154  0.011902192703921302  0.6070351241724622  1.0000
  H   H6        1.0  0.2620231719873658  0.4880985147991268  0.10701626570433122  1.0000
  H   H7        1.0  0.23795272271026843  0.988101559782386  0.39296076350458253  1.0000
  H   H8        1.0  0.737992784090025  0.511919430888959  0.8929791042329782  1.0000
  H   H9        1.0  0.8786744886581628  0.15126752627560336  0.3435706753587482  1.0000
  H   H10       1.0  0.3786695341703775  0.34874822966175156  0.8435770689737937  1.0000
  H   H11       1.0  0.12133571694864292  0.8487245377068718  0.6564287324039669  1.0000
  H   H12       1.0  0.6213292878637234  0.6512571926795871  0.15642747951599742  1.0000
  H   H13       1.0  0.9850127046622603  0.048493567743364  0.22457714846029833  1.0000
  H   H14       1.0  0.48502546148404935  0.45151283858819374  0.7245720518206014  1.0000
  H   H15       1.0  0.014965162598784285  0.9515043405022823  0.7754202889089825  1.0000
  H   H16       1.0  0.5149771273175148  0.5484884092019299  0.2754221483883867  1.0000
  H   H17       1.0  0.6649071088854298  0.9158221030772183  0.9736615175954881  1.0000
  H   H18       1.0  0.1649072346799869  0.584154213817918  0.4736527970351219  1.0000
  H   H19       1.0  0.3351053441055143  0.08415660258588528  0.026337595789691203  1.0000
  H   H20       1.0  0.8350851088757024  0.41584452932628585  0.5263460297322807  1.0000
  H   H21       1.0  0.5474191736683736  0.9140636475730588  0.14525613546918242  1.0000
  H   H22       1.0  0.047412536138665494  0.5859346821781414  0.6452456285895991  1.0000
  H   H23       1.0  0.45259555605495894  0.08592090234486699  0.8547419498268313  1.0000
  H   H24       1.0  0.9525908100312107  0.4140724099410633  0.3547575974941495  1.0000
  H   H25       1.0  0.6616736810283257  0.6991285723308774  0.4120909292568413  1.0000
  H   H26       1.0  0.161647018935092  0.8008677184695043  0.9120754167270136  1.0000
  H   H27       1.0  0.33832984097556107  0.3008718405979067  0.5879078937519965  1.0000
  H   H28       1.0  0.8383346737216613  0.1991318594775038  0.08791020472313703  1.0000
  H   H29       1.0  0.44696835937627094  0.7003109510279443  0.6502345767309238  1.0000
  H   H30       1.0  0.9469694118834082  0.7996971185907354  0.15023146632498202  1.0000
  H   H31       1.0  0.5530447923792323  0.29967944323836093  0.349775030244544  1.0000
  H   H32       1.0  0.053045464416669574  0.20030496409032142  0.8497629498945116  1.0000
  H   H33       1.0  0.5468517862552743  0.914992241166999  0.6275535736098308  1.0000
  H   H34       1.0  0.04684318972694259  0.5850200231382061  0.1275394368603315  1.0000
  H   H35       1.0  0.4531545060528047  0.0850081718674431  0.3724598516535806  1.0000
  H   H36       1.0  0.9531660533975382  0.41498623402723206  0.8724560820292242  1.0000
  H   H37       1.0  0.07308348969571908  0.21305344902807383  0.45982339798248273  1.0000
  H   H38       1.0  0.5730910853099688  0.2869626078178698  0.9598194792264537  1.0000
  H   H39       1.0  0.9269132607952458  0.7869619920212828  0.5401770418319958  1.0000
  H   H40       1.0  0.4269024845227917  0.7130327957268606  0.04017663193960887  1.0000
  H   H41       1.0  0.019180901172440187  0.3506853683241714  0.7328591516737221  1.0000
  H   H42       1.0  0.5191533332970549  0.1493123855787672  0.2328551649491004  1.0000
  H   H43       1.0  0.9808071820352211  0.649319219046596  0.2671343930031753  1.0000
  H   H44       1.0  0.4808324145727171  0.8506913669165357  0.7671408755269766  1.0000
  H   H45       1.0  0.7975688483941923  0.19324090889600143  0.6649549010110222  1.0000
  H   H46       1.0  0.2975591683745478  0.30676979901603113  0.1649381171475213  1.0000
  H   H47       1.0  0.2024243697478099  0.8067569993976279  0.3350500162331612  1.0000
  H   H48       1.0  0.7024398002030593  0.6932372930879254  0.8350627621609732  1.0000
  C   C1        1.0  0.7571044196038058  0.996033959781265  0.3189754344231445  1.0000
  C   C2        1.0  0.257120875171104  0.503982591246178  0.8189647909174909  1.0000
  C   C3        1.0  0.24289416793829582  0.003958104286923  0.6810349846861286  1.0000
  C   C4        1.0  0.7428872295968034  0.49602533571304974  0.1810312420469771  1.0000
  C   C5        1.0  0.6813842759635874  0.9159186270260165  0.3600461872602096  1.0000
  C   C6        1.0  0.1813825358136967  0.5840885730590983  0.8600247936179954  1.0000
  C   C7        1.0  0.3185979689072198  0.0840876301825162  0.6399535969394563  1.0000
  C   C8        1.0  0.8186221831767568  0.41591684922324396  0.1399720476831163  1.0000
  C   C9        1.0  0.6839066615040252  0.9226611581747547  0.4634804277119429  1.0000
  C   C10       1.0  0.183881163374096  0.5773433793470703  0.9634653372947072  1.0000
  C   C11       1.0  0.3160987562142381  0.07733841992072849  0.53652690706366  1.0000
  C   C12       1.0  0.8161091379272065  0.42265619865735715  0.03652864689826167  1.0000
  C   C13       1.0  0.7582223996153415  0.008795791986337098  0.5258931525434392  1.0000
  C   C14       1.0  0.2582189206969617  0.4912054009693703  0.025882839346870412  1.0000
  C   C15       1.0  0.2417796616404644  0.9912046210059344  0.4741142567524009  1.0000
  C   C16       1.0  0.7417760512818745  0.5087966816807635  0.9741061532532456  1.0000
  C   C17       1.0  0.8298037274541626  0.09023608356731931  0.4819549013096563  1.0000
  C   C18       1.0  0.3297997614391051  0.40976170347085633  0.9819437550641368  1.0000
  C   C19       1.0  0.1702085497307735  0.9097626596024352  0.518048615238655  1.0000
  C   C20       1.0  0.6702127795265866  0.5902412141242692  0.018053156965564202  1.0000
  C   C21       1.0  0.8284060820738474  0.08523931540503328  0.3783197377539764  1.0000
  C   C22       1.0  0.32840849828422586  0.41478200275173555  0.8783173147028622  1.0000
  C   C23       1.0  0.1716185412221023  0.9147585928553638  0.6216825271168815  1.0000
  C   C24       1.0  0.6715973004677878  0.5852317684847532  0.12168048026644128  1.0000
  C   C25       1.0  0.8803909569975586  0.015064096722291302  0.1793911959454491  1.0000
  C   C26       1.0  0.38039728754077373  0.48493840069394867  0.6793830207172958  1.0000
  C   C27       1.0  0.11961875039247614  0.9849371511941242  0.8206206871318216  1.0000
  C   C28       1.0  0.619603869806717  0.5150561679961639  0.32061903189610774  1.0000
  C   C29       1.0  0.7125661313819691  0.942299032631958  0.05191502100655041  1.0000
  C   C30       1.0  0.21256941557770395  0.55769361090222  0.5519046513968604  1.0000
  C   C31       1.0  0.2874337117469564  0.05769052672614091  0.9480919486684415  1.0000
  C   C32       1.0  0.7874331732221123  0.4423068019931407  0.44808954880660673  1.0000
  C   C33       1.0  0.6550203756815448  0.9386837402082548  0.13545987257285927  1.0000
  C   C34       1.0  0.15500560779465639  0.5613018280209303  0.6354541065039498  1.0000
  C   C35       1.0  0.34499414889978647  0.06130748890547721  0.86454334963652  1.0000
  C   C36       1.0  0.844981161180435  0.4386910708597043  0.36454435519041795  1.0000
  C   C37       1.0  0.6083727080310907  0.7268082848617822  0.46987798012515475  1.0000
  C   C38       1.0  0.10835632171092162  0.7731930731642719  0.9698538062150561  1.0000
  C   C39       1.0  0.3916293532002228  0.27318043960378446  0.5301294290934777  1.0000
  C   C40       1.0  0.8916344778456348  0.22681568859103143  0.030127702784675088  1.0000
  C   C41       1.0  0.5043733933244781  0.7315823486904802  0.5962167957892106  1.0000
  C   C42       1.0  0.004372742772758899  0.7684386782823153  0.0962212971167418  1.0000
  C   C43       1.0  0.4956266256664461  0.26841388979342173  0.4037857708991055  1.0000
  C   C44       1.0  0.9956192491184197  0.23157509303225507  0.9037863358114964  1.0000
  C   C45       1.0  0.5531556585264567  0.8379712269871149  0.5866180541542221  1.0000
  C   C46       1.0  0.0531602538350668  0.6620421024427968  0.0866185797241954  1.0000
  C   C47       1.0  0.44684100399325644  0.16202167191975292  0.41338458702676206  1.0000
  C   C48       1.0  0.9468522871446154  0.3379674943104405  0.9133783323496233  1.0000
  C   C49       1.0  0.03086518917018569  0.2313089222512374  0.5254900229867587  1.0000
  C   C50       1.0  0.530866663947364  0.2686974745067019  0.02550066579482289  1.0000
  C   C51       1.0  0.9691262211954381  0.7686965000176614  0.4745041810193982  1.0000
  C   C52       1.0  0.4691329154183065  0.7312962593736715  0.9745129084539175  1.0000
  C   C53       1.0  0.00018341363588089717  0.29636413474649  0.6667449691152783  1.0000
  C   C54       1.0  0.5001646527904029  0.20363767753764955  0.1667507965772543  1.0000
  C   C55       1.0  0.9998146217219029  0.7036354432711602  0.3332512873382143  1.0000
  C   C56       1.0  0.4998219110479383  0.7963644052230807  0.8332528020470278  1.0000
  C   C57       1.0  0.8891691027171547  0.21884436164470594  0.634259245496807  1.0000
  C   C58       1.0  0.3891477852347974  0.2811633116736445  0.1342509332251751  1.0000
  C   C59       1.0  0.11082210250120988  0.7811652351357025  0.36574009540616714  1.0000
  C   C60       1.0  0.6108377281762144  0.7188429455490206  0.8657509779751676  1.0000
  N   N1        1.0  0.18179903364469402  0.044012546350821004  0.1569725770835646  1.0000
  N   N2        1.0  0.6818215209787012  0.4559939723350226  0.656979619056564  1.0000
  N   N3        1.0  0.8181912383486035  0.955987031658985  0.8430221409478733  1.0000
  N   N4        1.0  0.31818742905702624  0.5440081104104307  0.34302323819006386  1.0000
  N   N5        1.0  0.2690929946544145  0.9747184221303938  0.1974892074520014  1.0000
  N   N6        1.0  0.7690869128997518  0.525280477106193  0.6974889543920852  1.0000
  N   N7        1.0  0.730909594134907  0.025276981396388  0.80250499271839  1.0000
  N   N8        1.0  0.23090210346649087  0.4747024030341294  0.3025092129468021  1.0000
  N   N9        1.0  0.3567574069964721  0.9063107487118032  0.23883120132033753  1.0000
  N   N10       1.0  0.8567603964944509  0.59370370664125  0.7388358117342831  1.0000
  N   N11       1.0  0.6432464080786671  0.09368548968932089  0.7611602832762827  1.0000
  N   N12       1.0  0.14324493328582122  0.40628919231227195  0.2611737245125951  1.0000
  N   N13       1.0  0.7624435624439272  0.9856287433033443  0.2157410554031074  1.0000
  N   N14       1.0  0.2624433671819801  0.5143662543944174  0.7157287202652753  1.0000
  N   N15       1.0  0.23756062896227806  0.014357476496321896  0.7842689948635383  1.0000
  N   N16       1.0  0.7375492108359651  0.4856316538119501  0.2842642357888963  1.0000
  N   N17       1.0  0.8528535656426399  0.9889814873613287  0.08069456955517748  1.0000
  N   N18       1.0  0.352867363718154  0.5110256472165914  0.5806953210161154  1.0000
  N   N19       1.0  0.14713988696512095  0.011017255783997398  0.9193044769868026  1.0000
  N   N20       1.0  0.6471416449458188  0.4889822797814458  0.41930606859218494  1.0000
  N   N21       1.0  0.6176378713219391  0.8343797202576867  0.5051918006211693  1.0000
  N   N22       1.0  0.11760754883061249  0.6656148275480759  0.005171397793176903  1.0000
  N   N23       1.0  0.38237974594984075  0.1656106740077092  0.49481795161415226  1.0000
  N   N24       1.0  0.8823871007602122  0.3343872551612819  0.9948256670300568  1.0000
  N   N25       1.0  0.5401481584983544  0.6631471469122872  0.5235311072487008  1.0000
  N   N26       1.0  0.0401304895671046  0.836869444914072  0.023521988599405606  1.0000
  N   N27       1.0  0.4598607035993751  0.33684825669120494  0.4764739514692097  1.0000
  N   N28       1.0  0.9598599289714543  0.16313263775311532  0.9764690602562497  1.0000
  N   N29       1.0  0.909508628589819  0.1770054385131914  0.5430245957070454  1.0000
  N   N30       1.0  0.4094938477098821  0.32300422104348314  0.0430254931689902  1.0000
  N   N31       1.0  0.09049597315288338  0.8229924697378053  0.4569751808982972  1.0000
  N   N32       1.0  0.5905106954290673  0.6769995314816343  0.9569757511518803  1.0000
  N   N33       1.0  0.0885738772323208  0.30270295822813853  0.5993109940536883  1.0000
  N   N34       1.0  0.5885613971120875  0.19731114730979726  0.0992987569344024  1.0000
  N   N35       1.0  0.9114073172164155  0.6973099781266257  0.400687102738587  1.0000
  N   N36       1.0  0.41141763780301926  0.8026800817680805  0.9006974324884068  1.0000
