data_image0
_chemical_formula_structural       Ca4H44C36S4N4O24
_chemical_formula_sum              "Ca4 H44 C36 S4 N4 O24"
_cell_length_a       10.313681210883619
_cell_length_b       10.16190872470056
_cell_length_c       11.480237782011637
_cell_angle_alpha    90.0001427193502
_cell_angle_beta     90.00006787467355
_cell_angle_gamma    94.62738322310845

_space_group_name_H-M_alt    "P 1"
_space_group_IT_number       1

loop_
  _space_group_symop_operation_xyz
  'x, y, z'

loop_
  _atom_site_type_symbol
  _atom_site_label
  _atom_site_symmetry_multiplicity
  _atom_site_fract_x
  _atom_site_fract_y
  _atom_site_fract_z
  _atom_site_occupancy
  Ca  Ca1       1.0  0.15356591278154502  0.6819999042766016  0.0879450072194388  1.0000
  Ca  Ca2       1.0  0.3464332540304795  0.31799946736531837  0.5879439321763087  1.0000
  Ca  Ca3       1.0  0.8464348044477391  0.3180005953831184  0.9120559505142722  1.0000
  Ca  Ca4       1.0  0.6535663131884917  0.6819990703814655  0.4120561544925252  1.0000
  H   H1        1.0  0.09195171977471261  0.891470368803283  0.8243210689679329  1.0000
  H   H2        1.0  0.40805168950793563  0.10852964588308818  0.3243194025035264  1.0000
  H   H3        1.0  0.9080499659691127  0.10853011835595076  0.17567988876627538  1.0000
  H   H4        1.0  0.5919499054876667  0.8914698540687952  0.675680684167446  1.0000
  H   H5        1.0  0.13372234080868847  0.06161834004574019  0.7789160612338577  1.0000
  H   H6        1.0  0.366279847694635  0.9383795795991362  0.2789118312796361  1.0000
  H   H7        1.0  0.8662781949268635  0.9383801852043874  0.2210866386217631  1.0000
  H   H8        1.0  0.6337196287754381  0.061617970939025206  0.7210865132638632  1.0000
  H   H9        1.0  0.0202920361810754  0.028252124299292795  0.8952375967535245  1.0000
  H   H10       1.0  0.47971139288387116  0.9717471111064171  0.39523617389778565  1.0000
  H   H11       1.0  0.9797085903013425  0.9717473881556343  0.10476423204114128  1.0000
  H   H12       1.0  0.5202882650826338  0.028252413846445296  0.6047639127721921  1.0000
  H   H13       1.0  0.4467846101756052  0.9389277926826836  0.9102350350161998  1.0000
  H   H14       1.0  0.0532178737504125  0.061071499197034  0.41023463001761934  1.0000
  H   H15       1.0  0.5532160163061307  0.06107171977096471  0.08976592271637429  1.0000
  H   H16       1.0  0.946783811992056  0.9389289879596493  0.5897645855923912  1.0000
  H   H17       1.0  0.37902050446317054  0.02674913617272519  0.7917512525109132  1.0000
  H   H18       1.0  0.1209808262811762  0.973249820817216  0.2917511953214671  1.0000
  H   H19       1.0  0.6209801220172153  0.9732503762783722  0.20824796309745608  1.0000
  H   H20       1.0  0.8790207687144331  0.026749679134660205  0.7082488913494983  1.0000
  H   H21       1.0  0.3216636480717057  0.8563812613560698  0.8206783700564273  1.0000
  H   H22       1.0  0.17833694073927123  0.14361976736115167  0.3206791512190533  1.0000
  H   H23       1.0  0.6783380376707627  0.143619225800613  0.1793208455535833  1.0000
  H   H24       1.0  0.8216637764893236  0.8563807322972963  0.6793209354525587  1.0000
  H   H25       1.0  0.2886238622416499  0.5706576342720454  0.8197825846495307  1.0000
  H   H26       1.0  0.21137645293038787  0.42934043020024143  0.3197831618883598  1.0000
  H   H27       1.0  0.7113748272103069  0.4293419031813102  0.18021750201994283  1.0000
  H   H28       1.0  0.7886250513176803  0.5706580825455704  0.6802169247814689  1.0000
  H   H29       1.0  0.7010196018580076  0.6814464982408737  0.8175939464584372  1.0000
  H   H30       1.0  0.7989804000344592  0.31855290306103257  0.31759175813783  1.0000
  H   H31       1.0  0.2989770598186682  0.3185520770099401  0.182407882333095  1.0000
  H   H32       1.0  0.20102313199024746  0.6814465718898646  0.6824083285341371  1.0000
  H   H33       1.0  0.685759761374392  0.7166605073276883  0.0338279812948983  1.0000
  H   H34       1.0  0.8142390112265191  0.2833400488978838  0.5338285376072988  1.0000
  H   H35       1.0  0.31423786881547505  0.2833380554200815  0.9661721053729337  1.0000
  H   H36       1.0  0.18576373377939603  0.7166614129669356  0.4661724201285509  1.0000
  H   H37       1.0  0.878024315487231  0.6902949977457524  0.1437491220859286  1.0000
  H   H38       1.0  0.6219755969464914  0.3097058682581065  0.6437451778740736  1.0000
  H   H39       1.0  0.12197534248063141  0.30970452720966796  0.8562527067082327  1.0000
  H   H40       1.0  0.37802415176620485  0.6902946438982765  0.3562531666728432  1.0000
  H   H41       1.0  0.8911624452488667  0.6328922521948925  0.0115627790858071  1.0000
  H   H42       1.0  0.608838592665606  0.3671121625666843  0.5115589479727234  1.0000
  H   H43       1.0  0.108836244204447  0.3671072852610138  0.9884390497078641  1.0000
  H   H44       1.0  0.391164424580893  0.6328922609125271  0.48843939658025437  1.0000
  C   C1        1.0  0.10643739391465351  0.9950452747274386  0.8518162663170373  1.0000
  C   C2        1.0  0.39356490821050727  0.0049528586594221  0.35181261323069885  1.0000
  C   C3        1.0  0.8935631418202233  0.004953250521410302  0.1481855624764847  1.0000
  C   C4        1.0  0.6064356275216554  0.9950456665843178  0.6481857313144346  1.0000
  C   C5        1.0  0.3588877212848089  0.9508187009634098  0.858787460989383  1.0000
  C   C6        1.0  0.1411146824556866  0.0491804400737124  0.35878712273744623  1.0000
  C   C7        1.0  0.6411138737107934  0.04918079898846631  0.14121262568158238  1.0000
  C   C8        1.0  0.8588870032874569  0.9508200470842497  0.6412129639346631  1.0000
  C   C9        1.0  0.3783729559434549  0.606194804713347  0.8635979660274345  1.0000
  C   C10       1.0  0.12162437018891838  0.39381232308193154  0.36359924069452637  1.0000
  C   C11       1.0  0.6216238872262636  0.39380574494578713  0.1364012495800893  1.0000
  C   C12       1.0  0.878375923011049  0.6061941123147322  0.6364017170455227  1.0000
  C   C13       1.0  0.47851736479933743  0.6724823210939733  0.035739804023819495  1.0000
  C   C14       1.0  0.02147978361828249  0.3275169224869714  0.5357401481388209  1.0000
  C   C15       1.0  0.5214775413406018  0.3275182535648611  0.9642585405206032  1.0000
  C   C16       1.0  0.9785212965997943  0.6724875259944981  0.4642590674752539  1.0000
  C   C17       1.0  0.6080041167267183  0.667664291065762  0.862494519904665  1.0000
  C   C18       1.0  0.8919931403532714  0.33233626659480103  0.36249507373774037  1.0000
  C   C19       1.0  0.3919927264443572  0.33233625859592303  0.1375064378270423  1.0000
  C   C20       1.0  0.1080075768766875  0.6676642330661977  0.6375067550580624  1.0000
  C   C21       1.0  0.6000947072722981  0.6879709625849272  0.9818675011836789  1.0000
  C   C22       1.0  0.8999035228797467  0.3120279581595398  0.4818671473984963  1.0000
  C   C23       1.0  0.3999018636561615  0.31202662545853593  0.0181334565446178  1.0000
  C   C24       1.0  0.10009701285309089  0.6879705670854789  0.518132068208736  1.0000
  C   C25       1.0  0.4952204420835784  0.6251944188874105  0.8011995155575349  1.0000
  C   C26       1.0  0.004779601591302192  0.3748115012497593  0.3012006244829947  1.0000
  C   C27       1.0  0.5047775510957707  0.3748080926833808  0.1987997000527599  1.0000
  C   C28       1.0  0.9952197230947918  0.6251949466486693  0.6988012043186486  1.0000
  C   C29       1.0  0.49811924727964657  0.6046835647409098  0.6715270931617283  1.0000
  C   C30       1.0  0.001878203520547585  0.3953170641675782  0.1715256312049576  1.0000
  C   C31       1.0  0.5018807736770229  0.39531990903624603  0.3284729935128041  1.0000
  C   C32       1.0  0.9981194266686444  0.6046814985789125  0.8284735844007756  1.0000
  C   C33       1.0  0.4661316077736117  0.6987869305626332  0.16493488577776816  1.0000
  C   C34       1.0  0.033868466053768004  0.3012106798993131  0.6649343137441902  1.0000
  C   C35       1.0  0.533868927959908  0.30121159468365727  0.835065200891563  1.0000
  C   C36       1.0  0.9661304048925885  0.6987908319649064  0.335064901865465  1.0000
  S   S1        1.0  0.2381902497006081  0.010522248879141199  0.9544838520936736  1.0000
  S   S2        1.0  0.2618142402185626  0.9894771477326997  0.45448136671747363  1.0000
  S   S3        1.0  0.7618132823254555  0.9894772260743138  0.045517976702484496  1.0000
  S   S4        1.0  0.7381873547763647  0.010522352217904502  0.5455178488914001  1.0000
  N   N1        1.0  0.3684628677524345  0.6335240136618266  0.977370024730369  1.0000
  N   N2        1.0  0.1315348782372183  0.36647553755915396  0.4773703783530934  1.0000
  N   N3        1.0  0.6315337031753431  0.3664735743803575  0.0226300619358284  1.0000
  N   N4        1.0  0.8684658389920656  0.6335249621005659  0.5226305793806176  1.0000
  O   O1        1.0  0.2088835646171603  0.9059707232706913  0.047852909116130604  1.0000
  O   O2        1.0  0.29111738598960096  0.094027518615853  0.5478521510356842  1.0000
  O   O3        1.0  0.7911169711163595  0.0940278019756065  0.9521471775532006  1.0000
  O   O4        1.0  0.7088832404907778  0.9059719938352374  0.4521470645726922  1.0000
  O   O5        1.0  0.3978736895524335  0.5433883564452345  0.6244913611590306  1.0000
  O   O6        1.0  0.10212650273609108  0.45661110985130915  0.12449188307098778  1.0000
  O   O7        1.0  0.6021262406573696  0.4566141301271215  0.3755095965764568  1.0000
  O   O8        1.0  0.8978729737373784  0.543386440693233  0.8755108167829987  1.0000
  O   O9        1.0  0.5977119599120967  0.6521685459925807  0.6171955711532034  1.0000
  O   O10       1.0  0.9022886981565537  0.34783025524727407  0.11719355698033948  1.0000
  O   O11       1.0  0.4022886665669248  0.34783096645595885  0.382801902330975  1.0000
  O   O12       1.0  0.09771077831148028  0.6521672952870503  0.8828021743768631  1.0000
  O   O13       1.0  0.5705270341945123  0.7254373601884512  0.2210008824142378  1.0000
  O   O14       1.0  0.929470789374747  0.27456079570467296  0.7210015413003106  1.0000
  O   O15       1.0  0.42947244227556053  0.27456019034970314  0.7789974621292615  1.0000
  O   O16       1.0  0.0705271130563858  0.725440728658768  0.2789968032467485  1.0000
  O   O17       1.0  0.3511539964655768  0.6917324024869275  0.2075001375580712  1.0000
  O   O18       1.0  0.1488435104032533  0.30826833189619407  0.7075005739223315  1.0000
  O   O19       1.0  0.6488454800051714  0.3082651480525059  0.792499078047527  1.0000
  O   O20       1.0  0.8511564198052  0.6917341546736182  0.2924986416889652  1.0000
  O   O21       1.0  0.9208219372777434  0.7040462971111053  0.0663622611038051  1.0000
  O   O22       1.0  0.5791735564562188  0.2959603277394933  0.56636085434819  1.0000
  O   O23       1.0  0.079174905892657  0.29595425254930063  0.9336378255658103  1.0000
  O   O24       1.0  0.4208256774796269  0.7040451329477548  0.4336374902039282  1.0000
