data_image0
_chemical_formula_structural       U2H8C12N4O14
_chemical_formula_sum              "U2 H8 C12 N4 O14"
_cell_length_a       7.44290379773172
_cell_length_b       7.442958896646732
_cell_length_c       9.794176368023823
_cell_angle_alpha    97.6161840941438
_cell_angle_beta     97.61676229612938
_cell_angle_gamma    103.54502498162616

_space_group_name_H-M_alt    "P 1"
_space_group_IT_number       1

loop_
  _space_group_symop_operation_xyz
  'x, y, z'

loop_
  _atom_site_type_symbol
  _atom_site_label
  _atom_site_symmetry_multiplicity
  _atom_site_fract_x
  _atom_site_fract_y
  _atom_site_fract_z
  _atom_site_occupancy
  U   U1        1.0  0.29497462683736586  0.24844814205420815  0.6649284360698999  1.0000
  U   U2        1.0  0.7515315129339157  0.7050152624164736  0.3350746970438435  1.0000
  H   H1        1.0  0.6287859364972803  0.23170397444082613  0.8773643046112696  1.0000
  H   H2        1.0  0.7682963549530228  0.3712177818797641  0.12263737136054688  1.0000
  H   H3        1.0  0.4444407793574782  0.1845346113221709  0.9575352858949203  1.0000
  H   H4        1.0  0.8154673884065815  0.5555572837218604  0.04246756231789557  1.0000
  H   H5        1.0  0.12059905785008598  0.23380808096090522  0.0657626320097435  1.0000
  H   H6        1.0  0.7662019194451446  0.8793980422289067  0.9342376064201262  1.0000
  H   H7        1.0  0.06774723020099319  0.2741343064041358  0.3159847306132022  1.0000
  H   H8        1.0  0.7258707393210743  0.9322511546657279  0.6840168621472954  1.0000
  C   C1        1.0  0.43913625496158903  0.10762370566271069  0.3500742072357923  1.0000
  C   C2        1.0  0.8923803769474148  0.5608650840086183  0.6499263617388209  1.0000
  C   C3        1.0  0.4709158984764343  0.088872819706495  0.21159044817277106  1.0000
  C   C4        1.0  0.9111323609955306  0.5290874771661435  0.7884116298731882  1.0000
  C   C5        1.0  0.2144220386667826  0.19995202622114044  0.1481377715532588  1.0000
  C   C6        1.0  0.8000525021508906  0.7855796084567715  0.8518617893251134  1.0000
  C   C7        1.0  0.18402570721828942  0.22093496139261498  0.2868442692671138  1.0000
  C   C8        1.0  0.7790661027263893  0.815970481720107  0.7131542185192784  1.0000
  C   C9        1.0  0.5600181543982642  0.0615499227809195  0.4680808258968341  1.0000
  C   C10       1.0  0.9384510771304518  0.4399822769837555  0.5319188915077149  1.0000
  C   C11       1.0  0.6342918232656842  0.023981558137393198  0.1635489166017408  1.0000
  C   C12       1.0  0.9760185041109962  0.3657111163998221  0.8364503201312843  1.0000
  N   N1        1.0  0.2992233225625681  0.17954313095229676  0.3874775438484973  1.0000
  N   N2        1.0  0.8204565421385155  0.7007760773820662  0.6125206413307964  1.0000
  N   N3        1.0  0.3603854349266414  0.1407541871437132  0.1119231580982643  1.0000
  N   N4        1.0  0.8592532897789837  0.6396160595534254  0.8880773854225551  1.0000
  O   O1        1.0  0.1546836471275199  0.015007832865954598  0.6621423230796424  1.0000
  O   O2        1.0  0.9849913930651084  0.8453168288681498  0.3378570147295292  1.0000
  O   O3        1.0  0.4384190733225281  0.4782950851086695  0.6598544452260952  1.0000
  O   O4        1.0  0.5216993846546885  0.5615906971158607  0.3401426931337141  1.0000
  O   O5        1.0  0.5361269142162897  0.11818864361701029  0.590702553331603  1.0000
  O   O6        1.0  0.8818085307201997  0.4638722505426712  0.40929739757893197  1.0000
  O   O7        1.0  0.6819040097474129  0.9734386370845839  0.4437455689969028  1.0000
  O   O8        1.0  0.026562707287027393  0.3180976106193043  0.5562526227421358  1.0000
  O   O9        1.0  0.6289400634964933  0.8492737889220191  0.1597501095900923  1.0000
  O   O10       1.0  0.1507271170240543  0.3710603435398809  0.8402502014698214  1.0000
  O   O11       1.0  0.7571961176077764  0.14167589620743826  0.12474197782653816  1.0000
  O   O12       1.0  0.8583222834938339  0.24280505165156535  0.8752589513271116  1.0000
  O   O13       1.0  0.4913171342122169  0.22242840769801828  0.8708111657157217  1.0000
  O   O14       1.0  0.7775635303362165  0.5086833828837313  0.12918788494580008  1.0000
