data_image0
_chemical_formula_structural       Zn2H52C52N4O8
_chemical_formula_sum              "Zn2 H52 C52 N4 O8"
_cell_length_a       14.114453454825343
_cell_length_b       15.223578386508676
_cell_length_c       17.09757105847987
_cell_angle_alpha    88.08577351772739
_cell_angle_beta     86.67666636208513
_cell_angle_gamma    85.48192378166749

_space_group_name_H-M_alt    "P 1"
_space_group_IT_number       1

loop_
  _space_group_symop_operation_xyz
  'x, y, z'

loop_
  _atom_site_type_symbol
  _atom_site_label
  _atom_site_symmetry_multiplicity
  _atom_site_fract_x
  _atom_site_fract_y
  _atom_site_fract_z
  _atom_site_occupancy
  Zn  Zn1       1.0  0.6043282517545165  0.49468150806202255  0.5065291436629735  1.0000
  Zn  Zn2       1.0  0.3955703702255919  0.508964746530509  0.49789424831389084  1.0000
  H   H1        1.0  0.39730263887861367  0.42259061047791147  0.27363373077275094  1.0000
  H   H2        1.0  0.6290974988227589  0.3891692728193305  0.0015075129127239976  1.0000
  H   H3        1.0  0.7045440163244123  0.3996720409474506  0.1165610412061895  1.0000
  H   H4        1.0  0.34192938537135115  0.37663962960783703  0.8853664738440157  1.0000
  H   H5        1.0  0.6327909086849175  0.4444492617758797  0.8884967326218599  1.0000
  H   H6        1.0  0.40034464776420003  0.3824031460257231  0.1345276694551174  1.0000
  H   H7        1.0  0.6319903345234011  0.9354309966929649  0.41471098099565745  1.0000
  H   H8        1.0  0.3827015174488367  0.07817320378346439  0.3956088041573338  1.0000
  H   H9        1.0  0.6363487473923826  0.7710694233639828  0.4213087073910841  1.0000
  H   H10       1.0  0.36971040820851897  0.24123138819761894  0.41252534024413007  1.0000
  H   H11       1.0  0.35362221397866733  0.7876870488846986  0.528316898130754  1.0000
  H   H12       1.0  0.6292479916643857  0.49007635624305823  0.7483758303814909  1.0000
  H   H13       1.0  0.6026141549498335  0.21243290396284212  0.5631843175121247  1.0000
  H   H14       1.0  0.9742679037221507  0.5597674582135  0.376035061383142  1.0000
  H   H15       1.0  0.07507639320579781  0.5833901757810123  0.3218332516819018  1.0000
  H   H16       1.0  0.040162310595683  0.37058808905329943  0.5574670815876388  1.0000
  H   H17       1.0  0.9446974915486733  0.30883265840547125  0.5787915318728025  1.0000
  H   H18       1.0  0.1544720819041316  0.7100601540609757  0.2793103191053419  1.0000
  H   H19       1.0  0.14337708250017306  0.7231731744150024  0.38269081809435324  1.0000
  H   H20       1.0  0.2173985309774409  0.7898716179749103  0.32307682236183405  1.0000
  H   H21       1.0  0.3190255574642721  0.672786681223414  0.39058495943802274  1.0000
  H   H22       1.0  0.3277049589297221  0.6571917198467929  0.2888562290745043  1.0000
  H   H23       1.0  0.24807729566603604  0.5073152811844466  0.6159653743618918  1.0000
  H   H24       1.0  0.3187809140424561  0.5171724647745178  0.3540101839460021  1.0000
  H   H25       1.0  0.21230599706885303  0.5392833968105534  0.3053213999120316  1.0000
  H   H26       1.0  0.7028592416176876  0.2015964222633784  0.6555296835937766  1.0000
  H   H27       1.0  0.8239330347235098  0.20737559496223673  0.6759594187829876  1.0000
  H   H28       1.0  0.7322663992117171  0.23954063137048823  0.7472148424023428  1.0000
  H   H29       1.0  0.800755666509687  0.3719632997911971  0.6806216501347393  1.0000
  H   H30       1.0  0.6791158511918595  0.36983018550731134  0.6645509732801997  1.0000
  H   H31       1.0  0.7035236926437705  0.3358286181362544  0.5317098561521901  1.0000
  H   H32       1.0  0.8194000120785178  0.28667246123143286  0.5415371911345445  1.0000
  H   H33       1.0  0.2207249097042734  0.1105820224469554  0.6038923692432263  1.0000
  H   H34       1.0  0.730644082776486  0.6311437085677056  0.49077388571046743  1.0000
  H   H35       1.0  0.18127344610527976  0.013284630277063102  0.651410202647021  1.0000
  H   H36       1.0  0.24876291179469937  0.08439981659478242  0.7023331141938413  1.0000
  H   H37       1.0  0.3540735709748404  0.9524006679622518  0.658087871641861  1.0000
  H   H38       1.0  0.3905162986647639  0.04934598002714811  0.6099873385826271  1.0000
  H   H39       1.0  0.2982252564999044  0.016914658682331704  0.494382921982769  1.0000
  H   H40       1.0  0.2648626954448615  0.9186431805953603  0.5418131019115932  1.0000
  H   H41       1.0  0.7083750997773564  0.893493043054768  0.6580760051049805  1.0000
  H   H42       1.0  0.7256976332934643  0.992094871300864  0.7062540144549061  1.0000
  H   H43       1.0  0.6421326057339911  0.9194285815951415  0.7468568757725577  1.0000
  H   H44       1.0  0.5570565578326309  0.050129845485010094  0.6794982084233183  1.0000
  H   H45       1.0  0.0698975900754135  0.5042288915696745  0.6331573485491688  1.0000
  H   H46       1.0  0.5400113790262537  0.9518117736206264  0.6323690147911449  1.0000
  H   H47       1.0  0.6688897998214074  0.9821639276605721  0.5319907788532987  1.0000
  H   H48       1.0  0.6907106896944981  0.07895662360181178  0.5794101353835543  1.0000
  H   H49       1.0  0.9056945960343227  0.6539476070364999  0.48662501939234915  1.0000
  H   H50       1.0  0.34036811317815113  0.4229407290855818  0.7440337951884856  1.0000
  H   H51       1.0  0.6999847297049867  0.4366821440682855  0.258054322437104  1.0000
  H   H52       1.0  0.4112804311576213  0.38355405195025566  0.008856441915050106  1.0000
  C   C1        1.0  0.4974672193928527  0.6711375324166228  0.4852514178051734  1.0000
  C   C2        1.0  0.5537398606859512  0.18160786405371002  0.5274308411002764  1.0000
  C   C3        1.0  0.4110821634520648  0.9133345649267285  0.5024959029298302  1.0000
  C   C4        1.0  0.5608602484087797  0.0900183306668083  0.5209555042321836  1.0000
  C   C5        1.0  0.4923348056041591  0.9548548522505411  0.47194436378111937  1.0000
  C   C6        1.0  0.49558106998194523  0.052108955650687995  0.47469311282803517  1.0000
  C   C7        1.0  0.0965240852134812  0.5419217835145105  0.4354789582025801  1.0000
  C   C8        1.0  0.9101543793039183  0.43469526985516876  0.535724358000202  1.0000
  C   C9        1.0  0.19729888302516232  0.5432608754491  0.4309455107182599  1.0000
  C   C10       1.0  0.8101430615679704  0.42762450456743295  0.5369204885344132  1.0000
  C   C11       1.0  0.20245000394930915  0.5169061208730382  0.5666068080126223  1.0000
  C   C12       1.0  0.47715723438095387  0.3333081117066214  0.5020219912845931  1.0000
  C   C13       1.0  0.7839757854073215  0.5774552063312798  0.5028017034278207  1.0000
  C   C14       1.0  0.10436815666798793  0.5145903186184242  0.5751747840261031  1.0000
  C   C15       1.0  0.8806047958675832  0.5888964493934238  0.5001853854535055  1.0000
  C   C16       1.0  0.5435828570005798  0.4680425704661603  0.35543664093857064  1.0000
  C   C17       1.0  0.48464300474385164  0.4895743555529393  0.6530860039651145  1.0000
  C   C18       1.0  0.04974346634487152  0.5256874609100208  0.5094177669301843  1.0000
  C   C19       1.0  0.9457393192433229  0.5172571404022365  0.5156771827479361  1.0000
  C   C20       1.0  0.5479644230509209  0.43583969490119057  0.2735170225675461  1.0000
  C   C21       1.0  0.48452203493219775  0.4599662650739659  0.7375260917487978  1.0000
  C   C22       1.0  0.46430984343182763  0.4175841027564431  0.2385058121837815  1.0000
  C   C23       1.0  0.5714678162978188  0.9026631949340498  0.4412707574013551  1.0000
  C   C24       1.0  0.5671513288626001  0.46396387333542316  0.7788856258420366  1.0000
  C   C25       1.0  0.4665383439837213  0.3949791451578264  0.1605022837183228  1.0000
  C   C26       1.0  0.5687400748159561  0.4376423081478578  0.8572007184267818  1.0000
  C   C27       1.0  0.5525868443400057  0.3917851942813257  0.11393096776428276  1.0000
  C   C28       1.0  0.487393470348799  0.4066001055751443  0.8977856542613053  1.0000
  C   C29       1.0  0.6369608191281131  0.40407552345632064  0.1512651882621867  1.0000
  C   C30       1.0  0.40548673091918636  0.40096220259886906  0.8552173924984032  1.0000
  C   C31       1.0  0.6349208305909428  0.425391095320208  0.2298317136258206  1.0000
  C   C32       1.0  0.40404403783624326  0.4270544394514104  0.7764640602978261  1.0000
  C   C33       1.0  0.5573580619916356  0.38660543330402675  0.02898482070725089  1.0000
  C   C34       1.0  0.4295846229623521  0.10762961870220521  0.4341348349894715  1.0000
  C   C35       1.0  0.4830045743643865  0.38889576470007364  0.9821022107096482  1.0000
  C   C36       1.0  0.251989163635443  0.5594353035408872  0.3544958246628198  1.0000
  C   C37       1.0  0.2784209428490243  0.6554611621232239  0.34108727091872026  1.0000
  C   C38       1.0  0.19377292841807053  0.722929107325399  0.33109876201207555  1.0000
  C   C39       1.0  0.7697115997661256  0.3420751995719158  0.5611775983035372  1.0000
  C   C40       1.0  0.7492448965026953  0.33546183634681637  0.6511300023264538  1.0000
  C   C41       1.0  0.7521742540424726  0.2409516205518187  0.6841098313118933  1.0000
  C   C42       1.0  0.3221163415046533  0.9639668592775195  0.5357361965044588  1.0000
  C   C43       1.0  0.3325645179032293  0.004943663225354597  0.6153543917614428  1.0000
  C   C44       1.0  0.24079491560706864  0.056022812086950986  0.6450344083308153  1.0000
  C   C45       1.0  0.5741375982439436  0.8110438219405225  0.44431594425143567  1.0000
  C   C46       1.0  0.6343155139414522  0.0361616430445864  0.5669676269168347  1.0000
  C   C47       1.0  0.5941923791514583  0.9968474117405038  0.6447339300632036  1.0000
  C   C48       1.0  0.671730398061321  0.947801567210796  0.6916569060153178  1.0000
  C   C49       1.0  0.42236209304336103  0.19846100442106968  0.4426747600349401  1.0000
  C   C50       1.0  0.4956583474656783  0.7694775365322287  0.47720731310046455  1.0000
  C   C51       1.0  0.48419266662555316  0.23597119788511378  0.4908184040826312  1.0000
  C   C52       1.0  0.41478240922108256  0.821236116867098  0.5041316485461138  1.0000
  N   N1        1.0  0.2471110522045237  0.5294719052699934  0.49569266084446173  1.0000
  N   N2        1.0  0.750467375245677  0.49796613847869525  0.5198084560532479  1.0000
  N   N3        1.0  0.04609299925288471  0.5506037145798289  0.36858102756603006  1.0000
  N   N4        1.0  0.9709129563429784  0.36161250801775674  0.5502977983903036  1.0000
  O   O1        1.0  0.5779340417980451  0.6274348249698815  0.4776839999866239  1.0000
  O   O2        1.0  0.39761419004975823  0.37516102789031447  0.4886725146262804  1.0000
  O   O3        1.0  0.4175691766289162  0.6385949148592758  0.5000383592896824  1.0000
  O   O4        1.0  0.5506546047123138  0.36730188342450987  0.5238615671530339  1.0000
  O   O5        1.0  0.6207707687870113  0.46211101922192904  0.39122753482025974  1.0000
  O   O6        1.0  0.40692112852673296  0.4901178427834267  0.6187396269952216  1.0000
  O   O7        1.0  0.4629604732674153  0.49984853545166896  0.3833996105240161  1.0000
  O   O8        1.0  0.5641133762791313  0.5111383725548748  0.6216205195096549  1.0000
