data_image0
_chemical_formula_structural       Zr6H48C88Br4O42
_chemical_formula_sum              "Zr6 H48 C88 Br4 O42"
_cell_length_a       19.233548566290317
_cell_length_b       19.188432330025254
_cell_length_c       19.186697607453116
_cell_angle_alpha    59.604742592882
_cell_angle_beta     59.92580934657634
_cell_angle_gamma    59.915695592781795

_space_group_name_H-M_alt    "P 1"
_space_group_IT_number       1

loop_
  _space_group_symop_operation_xyz
  'x, y, z'

loop_
  _atom_site_type_symbol
  _atom_site_label
  _atom_site_symmetry_multiplicity
  _atom_site_fract_x
  _atom_site_fract_y
  _atom_site_fract_z
  _atom_site_occupancy
  Zr  Zr1       1.0  0.9076898926949184  0.4073439914490963  0.5926377911726917  1.0000
  Zr  Zr2       1.0  0.09233008533273337  0.5920910890335306  0.4079062464267266  1.0000
  Zr  Zr3       1.0  0.09189335310669111  0.40671015177219527  0.5932052002277217  1.0000
  Zr  Zr4       1.0  0.9081586608306651  0.5926654042583337  0.4072745919656028  1.0000
  Zr  Zr5       1.0  0.9082136337365226  0.5915505414970356  0.5920196559222148  1.0000
  Zr  Zr6       1.0  0.09182353025563843  0.4079577089831687  0.4083817786043439  1.0000
  H   H1        1.0  0.9270595112519898  0.4266029780904861  0.7185175800200978  1.0000
  H   H2        1.0  0.9277602271013948  0.7179816404718194  0.4272328400775151  1.0000
  H   H3        1.0  0.21705805400667788  0.4268761181760824  0.4283245373927045  1.0000
  H   H4        1.0  0.9277248935858396  0.42783226682330183  0.42737614361246995  1.0000
  H   H5        1.0  0.3183087988277364  0.6136270998373092  0.17852568611887415  1.0000
  H   H6        1.0  0.6787349506785887  0.3890593049288497  0.8190087204209814  1.0000
  H   H7        1.0  0.6783212953072709  0.6123938669535319  0.8191696315916203  1.0000
  H   H8        1.0  0.5525830542057479  0.609686950343054  0.9483214769374654  1.0000
  H   H9        1.0  0.31914236787685013  0.38999499385921876  0.17852065399682707  1.0000
  H   H10       1.0  0.44833076975382363  0.3892634569357085  0.05289474506895416  1.0000
  H   H11       1.0  0.11313334684453492  0.818708844032308  0.38921960887076773  1.0000
  H   H12       1.0  0.889535534200533  0.17819075525859762  0.613807361451279  1.0000
  H   H13       1.0  0.11228399167567463  0.17832613108710396  0.39013422684542576  1.0000
  H   H14       1.0  0.1093857282564201  0.05281919261788201  0.38922699450099435  1.0000
  H   H15       1.0  0.8900155587780603  0.8190166297046064  0.6125310771016359  1.0000
  H   H16       1.0  0.8892984942417217  0.9482420882678819  0.6096675575159122  1.0000
  H   H17       1.0  0.31781076486176124  0.17934010653789306  0.38970830112206295  1.0000
  H   H18       1.0  0.6796438507672704  0.817613282599936  0.6131976990575367  1.0000
  H   H19       1.0  0.6781606363878722  0.8204414272722291  0.3892567086501585  1.0000
  H   H20       1.0  0.552381513213824  0.9492725302703563  0.388931696133575  1.0000
  H   H21       1.0  0.31959601325547043  0.1767422948458517  0.613362041247953  1.0000
  H   H22       1.0  0.4490421601010511  0.05168455022168674  0.609944082632765  1.0000
  H   H23       1.0  0.8896107027354174  0.6130459589957697  0.8177763864770992  1.0000
  H   H24       1.0  0.11317185368524464  0.38953076808942916  0.1795604881370139  1.0000
  H   H25       1.0  0.8903351906599184  0.613210977945954  0.17704544882078457  1.0000
  H   H26       1.0  0.8894357567188751  0.609976270992945  0.05184727027680934  1.0000
  H   H27       1.0  0.11220141418940005  0.3891075607487764  0.820745354212235  1.0000
  H   H28       1.0  0.10950865478763212  0.3889531582937736  0.9494611413325343  1.0000
  H   H29       1.0  0.11232034209044893  0.8198355928658358  0.17771141565248164  1.0000
  H   H30       1.0  0.8898824432055933  0.819987618899809  0.1775868929081879  1.0000
  H   H31       1.0  0.890136506838594  0.17692771046620237  0.8206482217167801  1.0000
  H   H32       1.0  0.11254246320066136  0.17679985850445226  0.8208149200346142  1.0000
  H   H33       1.0  0.31865404665376934  0.3883428559688583  0.6144122615073471  1.0000
  H   H34       1.0  0.6786967345648663  0.6140715763510868  0.3886658608561291  1.0000
  H   H35       1.0  0.6779508573716413  0.3894856334117236  0.612934951428677  1.0000
  H   H36       1.0  0.5526737639394456  0.38862696967404287  0.6102498294805442  1.0000
  H   H37       1.0  0.3195076560181605  0.6125930763338161  0.38983097760739577  1.0000
  H   H38       1.0  0.4483594613618821  0.6100553068726596  0.3888180777946104  1.0000
  H   H39       1.0  0.4150798689596087  0.6648800017674148  0.08265145236180868  1.0000
  H   H40       1.0  0.5848192430422403  0.335057417908466  0.9176111167717591  1.0000
  H   H41       1.0  0.1624327895386201  0.917414448177034  0.33507540761534227  1.0000
  H   H42       1.0  0.8373119591624915  0.082474515933889  0.6648868085819186  1.0000
  H   H43       1.0  0.4155107312060127  0.08499192153458066  0.3361981255399016  1.0000
  H   H44       1.0  0.5847457274759974  0.9148749568700011  0.6638176492084468  1.0000
  H   H45       1.0  0.836607996298483  0.6637731409574601  0.9150097072856623  1.0000
  H   H46       1.0  0.16335683144303917  0.3361565157702557  0.08514520037555678  1.0000
  H   H47       1.0  0.41607548627928276  0.33522881373785657  0.6646802280229167  1.0000
  H   H48       1.0  0.584083973533815  0.6644555562654021  0.3354488482390251  1.0000
  C   C1        1.0  0.7638828555281875  0.5010012774521044  0.7320079898906398  1.0000
  C   C2        1.0  0.0030629222537898416  0.7316528482202854  0.5013580433842435  1.0000
  C   C3        1.0  0.23156582894473124  0.5031942608571924  0.2637896734018169  1.0000
  C   C4        1.0  0.0014862985123542975  0.2633679915711227  0.5035854619225546  1.0000
  C   C5        1.0  0.0019750637156264053  0.2614142289105743  0.7345996600121509  1.0000
  C   C6        1.0  0.7637950224372504  0.503100850998635  0.5012718096970729  1.0000
  C   C7        1.0  0.002019042223715208  0.73390883830843  0.2621012132847369  1.0000
  C   C8        1.0  0.23183453657675568  0.5008189939001682  0.5035469350306058  1.0000
  C   C9        1.0  0.0013384149529190354  0.501861429477998  0.7324172292001732  1.0000
  C   C10       1.0  0.231167732865984  0.262952314412594  0.5025810059329813  1.0000
  C   C11       1.0  0.00321751058018566  0.5022190916236866  0.26338195599706177  1.0000
  C   C12       1.0  0.7644224605762064  0.7320508549630984  0.502221833040238  1.0000
  C   C13       1.0  0.30958348324678286  0.5022979923959312  0.18691971297791085  1.0000
  C   C14       1.0  0.6869073256606271  0.5009899524101585  0.809931143060986  1.0000
  C   C15       1.0  0.34737695325148377  0.5641928743012984  0.1501312983000175  1.0000
  C   C16       1.0  0.4210008765361622  0.5644905797491688  0.07847291686430659  1.0000
  C   C17       1.0  0.6502731206795077  0.4379073932360101  0.8479707136168171  1.0000
  C   C18       1.0  0.5786770855143217  0.43559598960523993  0.9216763494872422  1.0000
  C   C19       1.0  0.6503191195080616  0.5628431200490098  0.8477415574536592  1.0000
  C   C20       1.0  0.5790623498866695  0.5607470148357051  0.9209300718329414  1.0000
  C   C21       1.0  0.34759121978659385  0.4390804645936441  0.15046343777803628  1.0000
  C   C22       1.0  0.4208170635635043  0.43920941844451267  0.07929305635136065  1.0000
  C   C23       1.0  0.46146820272593203  0.5010510905789332  0.039044336505774845  1.0000
  C   C24       1.0  0.5389075213762026  0.49838418419525976  0.9617532449042299  1.0000
  C   C25       1.0  0.0020916596408396544  0.8096800141943278  0.5011703658151277  1.0000
  C   C26       1.0  0.0011919173460909931  0.18661393092659745  0.5025072918953697  1.0000
  C   C27       1.0  0.06375755585929707  0.847719714478977  0.43802803801366946  1.0000
  C   C28       1.0  0.06394924743478485  0.9214776251869239  0.4356296010570232  1.0000
  C   C29       1.0  0.9382798161919864  0.1498319382360621  0.5643453709190354  1.0000
  C   C30       1.0  0.9359556743215122  0.07826853148527863  0.5645298756680714  1.0000
  C   C31       1.0  0.06280988179725  0.15026177421196954  0.43919790060256503  1.0000
  C   C32       1.0  0.06058543163052832  0.0791637799689653  0.4392217177849176  1.0000
  C   C33       1.0  0.9389953595262881  0.8475788978939746  0.5629422253335433  1.0000
  C   C34       1.0  0.9391536916994669  0.9208082675104594  0.5607617697915115  1.0000
  C   C35       1.0  0.000864898241858045  0.9616016515264574  0.49838351456921964  1.0000
  C   C36       1.0  0.9983511979113969  0.038891797148039815  0.5010475440584017  1.0000
  C   C37       1.0  0.30947152578543313  0.1864054075612245  0.5018902967609762  1.0000
  C   C38       1.0  0.6873265068084535  0.8098325028444222  0.5016962819710143  1.0000
  C   C39       1.0  0.3471436495416782  0.15047872896505513  0.43855022231377205  1.0000
  C   C40       1.0  0.4209335937414735  0.07901728147941615  0.4360061026668162  1.0000
  C   C41       1.0  0.6509303226859802  0.8470814697893445  0.5637338491231388  1.0000
  C   C42       1.0  0.5792489689740279  0.9207060096576498  0.5641131718107955  1.0000
  C   C43       1.0  0.6503538480956408  0.8483214174224827  0.4385462436950219  1.0000
  C   C44       1.0  0.5790377687868613  0.921432142340244  0.43892369353040533  1.0000
  C   C45       1.0  0.34789683170473035  0.14938144434723455  0.5635623433540076  1.0000
  C   C46       1.0  0.421316194657841  0.0784346905775949  0.5610359924616474  1.0000
  C   C47       1.0  0.4617022999116499  0.038863179804266804  0.49855926491589037  1.0000
  C   C48       1.0  0.5391770084878472  0.9615575254347847  0.500853498444023  1.0000
  C   C49       1.0  0.0011926452417867347  0.5014958514669985  0.8101103014552179  1.0000
  C   C50       1.0  0.0022254843858677134  0.5016822126537547  0.18671679298231678  1.0000
  C   C51       1.0  0.9383137124615075  0.5636050403396952  0.8472699455333623  1.0000
  C   C52       1.0  0.936002325739736  0.5640848623374735  0.920842019989095  1.0000
  C   C53       1.0  0.06384964407511981  0.43840987447047297  0.15071313262096442  1.0000
  C   C54       1.0  0.0641145446132684  0.4359824331087267  0.07916327975414818  1.0000
  C   C55       1.0  0.939194462774502  0.5634364197354247  0.14964740513190838  1.0000
  C   C56       1.0  0.939302676033897  0.5610283454672215  0.07860757200884884  1.0000
  C   C57       1.0  0.06284850419170607  0.438423170247681  0.8485885127102861  1.0000
  C   C58       1.0  0.06068900457282903  0.4389060501073915  0.9216284832199335  1.0000
  C   C59       1.0  0.9984814976633914  0.500865139671859  0.9617076583944453  1.0000
  C   C60       1.0  0.0009526080124544777  0.4985741571184191  0.039006739698550105  1.0000
  C   C61       1.0  0.06383232481006494  0.8498887247299078  0.14822248299457635  1.0000
  C   C62       1.0  0.06453362195446749  0.9240621473183523  0.07553052957312889  1.0000
  C   C63       1.0  0.12824342748013629  0.9637624963195536  0.03652864179578338  1.0000
  C   C64       1.0  0.9378731520425347  0.8499288525244709  0.14819499973671663  1.0000
  C   C65       1.0  0.9357940016316064  0.9241268068295769  0.0754724276579987  1.0000
  C   C66       1.0  0.8713114658562376  0.9638371528795987  0.0364502112195948  1.0000
  C   C67       1.0  0.9380819027457649  0.14747261524695424  0.8506672794082346  1.0000
  C   C68       1.0  0.935890529878307  0.07476295999258302  0.9248510347876787  1.0000
  C   C69       1.0  0.8714913193923409  0.03577709326000916  0.9644994218195675  1.0000
  C   C70       1.0  0.06397749817601552  0.1474489518729598  0.8507253345384527  1.0000
  C   C71       1.0  0.06458931256766226  0.07470110802129423  0.9249217009567161  1.0000
  C   C72       1.0  0.12840352242965744  0.03571491596102316  0.9645940555705151  1.0000
  C   C73       1.0  0.0013549611215282556  0.8131437914205506  0.18398365555383125  1.0000
  C   C74       1.0  0.9999680023984684  0.9623436395800623  0.03765609357076006  1.0000
  C   C75       1.0  0.001523914596568052  0.18327689877047246  0.8138874524812252  1.0000
  C   C76       1.0  4.317858552835505e-05  0.03684860983703705  0.9631561601970802  1.0000
  C   C77       1.0  0.30976195835543074  0.5007164868511537  0.5026231450369777  1.0000
  C   C78       1.0  0.6869003452265617  0.5022703544140441  0.5010630012553885  1.0000
  C   C79       1.0  0.34763053995536103  0.4375200503039807  0.5646647520297279  1.0000
  C   C80       1.0  0.4212067590324437  0.4353763972205941  0.5647230823156946  1.0000
  C   C81       1.0  0.6502591379114193  0.5643398928973582  0.43780965863805216  1.0000
  C   C82       1.0  0.5787548494109416  0.5644867433400976  0.4355920224255597  1.0000
  C   C83       1.0  0.6501404227159996  0.4388152496360789  0.5631336576058174  1.0000
  C   C84       1.0  0.5790761618723085  0.4389001728854253  0.5610269878129585  1.0000
  C   C85       1.0  0.3478428120147329  0.562834390561804  0.43912369712383986  1.0000
  C   C86       1.0  0.42094152618538067  0.5608130564959595  0.43911758716268406  1.0000
  C   C87       1.0  0.4616397635196068  0.49828755669752683  0.501108171587667  1.0000
  C   C88       1.0  0.5389609071646221  0.5009132127653473  0.4984803272117231  1.0000
  Br  Br1       1.0  0.21302978432525066  0.08672835623936959  0.9141203818071375  1.0000
  Br  Br2       1.0  0.2130764971186781  0.9131635913190763  0.08767831549375416  1.0000
  Br  Br3       1.0  0.7861504456631535  0.08693915349815054  0.9138410711373836  1.0000
  Br  Br4       1.0  0.7861391382981611  0.9133903947034342  0.08736778275995485  1.0000
  O   O1        1.0  0.7946903951860949  0.4409403911637569  0.7024551138922062  1.0000
  O   O2        1.0  0.061897836718436794  0.7020183483254668  0.4413596525527268  1.0000
  O   O3        1.0  0.20157835256762274  0.562269663210401  0.2944002111711229  1.0000
  O   O4        1.0  0.9418594464471823  0.2938464927127742  0.5627784611119111  1.0000
  O   O5        1.0  0.06070303222652036  0.292148113472827  0.7046813582399735  1.0000
  O   O6        1.0  0.7948021169404741  0.5622453921857301  0.44108916745721405  1.0000
  O   O7        1.0  0.9424469458230786  0.7040484231708605  0.2928070697197496  1.0000
  O   O8        1.0  0.20190605821750313  0.44061578717408156  0.5627035188092364  1.0000
  O   O9        1.0  0.9415371126373631  0.560741886372874  0.7021585378195353  1.0000
  O   O10       1.0  0.20123020770920158  0.29437702493871853  0.442476959373728  1.0000
  O   O11       1.0  0.06183866747323204  0.44208118835602767  0.29479908388042025  1.0000
  O   O12       1.0  0.7955489287644685  0.701795783189574  0.5611484034970002  1.0000
  O   O13       1.0  0.2001857744381753  0.2927189515142531  0.5624232866078954  1.0000
  O   O14       1.0  0.9445460224475114  0.561978924937314  0.2932409745650089  1.0000
  O   O15       1.0  0.7949472179901208  0.7018503579458156  0.44283192237399027  1.0000
  O   O16       1.0  0.06037034435910026  0.442387765359193  0.7023166216953455  1.0000
  O   O17       1.0  0.9429111452978135  0.2916271881065741  0.7042225308744319  1.0000
  O   O18       1.0  0.20120560704560114  0.5605208713637069  0.4440674963338722  1.0000
  O   O19       1.0  0.06125641486047349  0.7035401029411047  0.29228357461147425  1.0000
  O   O20       1.0  0.7941831626518765  0.44358879542977553  0.5609755476805772  1.0000
  O   O21       1.0  0.06062400850900232  0.2941428593904831  0.4443671295661033  1.0000
  O   O22       1.0  0.7945905159501551  0.5602597110470171  0.7010811809301172  1.0000
  O   O23       1.0  0.9440554304701936  0.7007069136552532  0.5606822118182817  1.0000
  O   O24       1.0  0.20090516750231308  0.4439481539944835  0.2945450265742551  1.0000
  O   O25       1.0  0.9481297540355271  0.4483068500422577  0.448251189426763  1.0000
  O   O26       1.0  0.15530162414567172  0.4477367626245581  0.44881990057452725  1.0000
  O   O27       1.0  0.9487160859191947  0.655894768935376  0.44729345602901555  1.0000
  O   O28       1.0  0.9481182676770883  0.44673072751692194  0.6564274250376769  1.0000
  O   O29       1.0  0.038413692744811295  0.537546628067382  0.5385596496158626  1.0000
  O   O30       1.0  0.8854741170919526  0.5380242360496582  0.5380846736806432  1.0000
  O   O31       1.0  0.038327613364714505  0.5388690050263633  0.3848920063801699  1.0000
  O   O32       1.0  0.037877372859575986  0.3844313877713716  0.5393601549788016  1.0000
  O   O33       1.0  0.4530727222548093  0.6286503496842357  0.047234329377964325  1.0000
  O   O34       1.0  0.5479107001136898  0.37011825294054285  0.9542437866710571  1.0000
  O   O35       1.0  0.12760706497802227  0.9540586547650777  0.3701239942637997  1.0000
  O   O36       1.0  0.870915435695764  0.047085127879370275  0.6286377059171783  1.0000
  O   O37       1.0  0.45296380312768747  0.048574003329321165  0.37064748082686794  1.0000
  O   O38       1.0  0.548567294716769  0.9525458729126509  0.6280841504902454  1.0000
  O   O39       1.0  0.870886518157256  0.6280868187428724  0.9526458170049564  1.0000
  O   O40       1.0  0.12792396857222602  0.37066621552927603  0.04867422486452708  1.0000
  O   O41       1.0  0.45340345720613573  0.3698000829859822  0.6289512662334643  1.0000
  O   O42       1.0  0.5479130250990636  0.6287251770888601  0.370017068932732  1.0000
