data_image0
_chemical_formula_structural       Co6H6C30O24
_chemical_formula_sum              "Co6 H6 C30 O24"
_cell_length_a       6.899252278979741
_cell_length_b       14.928402650785895
_cell_length_c       14.928088810788221
_cell_angle_alpha    117.78077058221264
_cell_angle_beta     98.95510320251981
_cell_angle_gamma    98.42812952972282

_space_group_name_H-M_alt    "P 1"
_space_group_IT_number       1

loop_
  _space_group_symop_operation_xyz
  'x, y, z'

loop_
  _atom_site_type_symbol
  _atom_site_label
  _atom_site_symmetry_multiplicity
  _atom_site_fract_x
  _atom_site_fract_y
  _atom_site_fract_z
  _atom_site_occupancy
  Co  Co1       1.0  0.8808304278985235  0.6868446561119795  0.4289986685933514  1.0000
  Co  Co2       1.0  0.19651379117560455  0.7426373631460522  0.314404127013276  1.0000
  Co  Co3       1.0  0.45717908901635707  0.5712359266555113  0.2577667273203091  1.0000
  Co  Co4       1.0  0.12618128665169343  0.3140143815755465  0.5841857256014437  1.0000
  Co  Co5       1.0  0.8038055839490923  0.2665994022412833  0.6829006526700426  1.0000
  Co  Co6       1.0  0.5468408650797445  0.42791117558670083  0.7409426026153911  1.0000
  H   H1        1.0  0.6330935356048215  0.44372464195497946  0.9757715675713216  1.0000
  H   H2        1.0  0.17943292781797746  0.5268634644725908  0.550351984881786  1.0000
  H   H3        1.0  0.6514134187396293  0.024750294530974805  0.46955913123758825  1.0000
  H   H4        1.0  0.36988997549712377  0.552811980031592  0.02103713582253866  1.0000
  H   H5        1.0  0.8175793587846343  0.46776977614859316  0.44873774078171647  1.0000
  H   H6        1.0  0.3450868919189391  0.9778656611727005  0.5295066497259457  1.0000
  C   C1        1.0  0.9201394777644156  0.5345860472679292  0.08723535586661774  1.0000
  C   C2        1.0  0.3814573135943604  0.5501099382441482  0.4629648882154172  1.0000
  C   C3        1.0  0.8291109031225474  0.9127975828822914  0.44797521689856995  1.0000
  C   C4        1.0  0.08229825322946738  0.46429379218186984  0.9093438916960893  1.0000
  C   C5        1.0  0.6127371673717975  0.44197008226216644  0.5338986758217318  1.0000
  C   C6        1.0  0.1672423357362334  0.0896627907771546  0.553713406501629  1.0000
  C   C7        1.0  0.7952409209591736  0.4687007134863422  0.9861249142543687  1.0000
  C   C8        1.0  0.31837774148355175  0.512939227731266  0.5265708695217982  1.0000
  C   C9        1.0  0.8036729408765596  0.014028724474030703  0.48353165233726264  1.0000
  C   C10       1.0  0.20764967196516443  0.5285229231404786  0.01061617943443588  1.0000
  C   C11       1.0  0.6766513760250136  0.4799036115819959  0.47098739771636394  1.0000
  C   C12       1.0  0.1925499793822993  0.9884900430761618  0.5166577377189868  1.0000
  C   C13       1.0  0.13278418530497763  0.5653187223545758  0.10006728695847045  1.0000
  C   C14       1.0  0.5654451811985839  0.5325376682728661  0.4336362905082184  1.0000
  C   C15       1.0  0.02951608477258823  0.8995730704181072  0.46526900044830205  1.0000
  C   C16       1.0  0.8704519424183843  0.4326635255629157  0.8969872054681147  1.0000
  C   C17       1.0  0.42844805235414907  0.4596066643058735  0.5628924269477836  1.0000
  C   C18       1.0  0.9670447962024158  0.10264881591788823  0.535716182087107  1.0000
  C   C19       1.0  0.8252458071919335  0.5637760048756917  0.1770556701120825  1.0000
  C   C20       1.0  0.25906128856330213  0.6125049232798291  0.4351190113070588  1.0000
  C   C21       1.0  0.6457416920907164  0.823152912845863  0.38737334848836  1.0000
  C   C22       1.0  0.1816481143033073  0.4373096570635653  0.8213948195748204  1.0000
  C   C23       1.0  0.7429535235655538  0.3833862660993575  0.5641357931601264  1.0000
  C   C24       1.0  0.3547485118283618  0.17708973294948294  0.6140080374575163  1.0000
  C   C25       1.0  0.8516708614441626  0.7600077294885567  0.5640197093170444  1.0000
  C   C26       1.0  0.09298726648197697  0.8044009331854484  0.24097161453579477  1.0000
  C   C27       1.0  0.291936863775959  0.43654370991301755  0.19596934322223797  1.0000
  C   C28       1.0  0.1510511621589217  0.24513320805489514  0.45608943588232626  1.0000
  C   C29       1.0  0.8995234675709726  0.20677250656187607  0.7505126728516487  1.0000
  C   C30       1.0  0.7084618636333746  0.5608044365851371  0.7999218797743668  1.0000
  O   O1        1.0  0.9404906421326373  0.6181414607002083  0.27037959826125757  1.0000
  O   O2        1.0  0.3233571549170549  0.6530435723686381  0.3826182988097457  1.0000
  O   O3        1.0  0.6697053088446268  0.7298938092302764  0.3484212687310802  1.0000
  O   O4        1.0  0.06638164262756163  0.3874821475612579  0.7265474764225247  1.0000
  O   O5        1.0  0.6756345785110653  0.33951406535002354  0.6144363085513904  1.0000
  O   O6        1.0  0.33421759954789115  0.27150194166962655  0.6618500773566184  1.0000
  O   O7        1.0  0.2671081578979655  0.6280015116775747  0.1935018646453417  1.0000
  O   O8        1.0  0.6393877425345382  0.5637698383395248  0.3720331244560314  1.0000
  O   O9        1.0  0.07329216453984347  0.8063582794503433  0.4350382814162543  1.0000
  O   O10       1.0  0.7328955193706295  0.36996293614968323  0.8033199682420291  1.0000
  O   O11       1.0  0.3563211479288597  0.43062578436353505  0.6274914038783309  1.0000
  O   O12       1.0  0.9206870871921213  0.1965650795378906  0.563560226248356  1.0000
  O   O13       1.0  0.6341605845028513  0.5304607516588649  0.1564376410226914  1.0000
  O   O14       1.0  0.10005475934600136  0.6247100771798629  0.4676922410102052  1.0000
  O   O15       1.0  0.4741422277605098  0.8434293269610723  0.37446358730229445  1.0000
  O   O16       1.0  0.372323620831537  0.46648244181916715  0.8437210335398647  1.0000
  O   O17       1.0  0.9082875776965622  0.37902826596917544  0.5382125739731691  1.0000
  O   O18       1.0  0.5247170015332188  0.1549066272050936  0.6178146830219404  1.0000
  O   O19       1.0  0.836229536476239  0.805682664289094  0.6487630275621968  1.0000
  O   O20       1.0  0.03015043000014824  0.8426538956914555  0.19484417775888827  1.0000
  O   O21       1.0  0.19148228284520744  0.3525678419455219  0.15809427615959493  1.0000
  O   O22       1.0  0.16523523169431806  0.20095923961751078  0.3708651996677049  1.0000
  O   O23       1.0  0.9611843078129996  0.16678862326405414  0.7952144949559854  1.0000
  O   O24       1.0  0.8088653859106786  0.6452041021768622  0.8397606395220765  1.0000
