data_image0
_chemical_formula_structural       MnH14C10N4O10
_chemical_formula_sum              "Mn1 H14 C10 N4 O10"
_cell_length_a       4.775277803445776
_cell_length_b       7.735940065619365
_cell_length_c       10.511600195598115
_cell_angle_alpha    105.32550911825143
_cell_angle_beta     99.7915122066411
_cell_angle_gamma    105.50334569416195

_space_group_name_H-M_alt    "P 1"
_space_group_IT_number       1

loop_
  _space_group_symop_operation_xyz
  'x, y, z'

loop_
  _atom_site_type_symbol
  _atom_site_label
  _atom_site_symmetry_multiplicity
  _atom_site_fract_x
  _atom_site_fract_y
  _atom_site_fract_z
  _atom_site_occupancy
  Mn  Mn1       1.0  0.4999997819427761  0.4999995365195815  0.9999969293172266  1.0000
  H   H1        1.0  0.7641681626524671  0.12183664550100559  0.5330143062372555  1.0000
  H   H2        1.0  0.2358205608916606  0.8781631152749724  0.4669866054593966  1.0000
  H   H3        1.0  0.3220890504239691  0.44870536639731984  0.36725168664020896  1.0000
  H   H4        1.0  0.677891652506858  0.5512873226551988  0.6327405704009974  1.0000
  H   H5        1.0  0.7408899922714056  0.40164242463195876  0.2630877951619438  1.0000
  H   H6        1.0  0.2591007339753801  0.5983531146592185  0.7369086161890406  1.0000
  H   H7        1.0  0.4489877392324359  0.07800934755901069  0.12911847809762378  1.0000
  H   H8        1.0  0.551018564768192  0.9219876765143693  0.8708765130028621  1.0000
  H   H9        1.0  0.7576502801236984  0.9951998558990026  0.15825695968484857  1.0000
  H   H10       1.0  0.24235256381204798  0.004798551504471499  0.8417418597851806  1.0000
  H   H11       1.0  0.008771462208059586  0.7745103847370556  0.20545127155635595  1.0000
  H   H12       1.0  0.9912236643852662  0.22548939185308828  0.7945510624477448  1.0000
  H   H13       1.0  0.7597779353171176  0.6991376443535557  0.2790893000013239  1.0000
  H   H14       1.0  0.2402257400970669  0.3008621497215032  0.7209155647822028  1.0000
  C   C1        1.0  0.8697347883932024  0.3044155145788777  0.23816372379241804  1.0000
  C   C2        1.0  0.130266001441221  0.6955871305122797  0.7618367413605538  1.0000
  C   C3        1.0  0.6579454953538146  0.10214462167235182  0.20308478363678253  1.0000
  C   C4        1.0  0.3420559486242778  0.897855197736767  0.796914214903566  1.0000
  C   C5        1.0  0.5869174727398274  0.0629260520221919  0.32820258807166874  1.0000
  C   C6        1.0  0.41308198566849075  0.9370779834707645  0.671801862368582  1.0000
  C   C7        1.0  0.08722250477435976  0.2867261845387858  0.46160821604661334  1.0000
  C   C8        1.0  0.9127705274459783  0.7132735741777267  0.538395864148228  1.0000
  C   C9        1.0  0.9801689947600705  0.33493618504114403  0.11447519377259134  1.0000
  C   C10       1.0  0.019865962097902937  0.6650708071548337  0.8855314877733277  1.0000
  N   N1        1.0  0.8069800084808917  0.15659114618325987  0.44765687879679206  1.0000
  N   N2        1.0  0.1930192725926503  0.8434086769560664  0.5523400597173447  1.0000
  N   N3        1.0  0.1200967585945776  0.34860942475430784  0.3559546526800758  1.0000
  N   N4        1.0  0.8799046913894056  0.6513946610180453  0.6440423422439918  1.0000
  O   O1        1.0  0.2618732920942434  0.3781992915501462  0.12683795000071996  1.0000
  O   O2        1.0  0.738132443427162  0.6218005312004637  0.8731632654835834  1.0000
  O   O3        1.0  0.7822843124376246  0.31477836116634705  0.010090748524802965  1.0000
  O   O4        1.0  0.21772908902753588  0.6852201086004756  0.9899040977627109  1.0000
  O   O5        1.0  0.3469449841710456  0.9483038128507173  0.32737372581883745  1.0000
  O   O6        1.0  0.653050125289397  0.05169596914038979  0.6726276566310218  1.0000
  O   O7        1.0  0.29099631187172287  0.3389860635814868  0.5701953884081516  1.0000
  O   O8        1.0  0.7089973170877215  0.661006619292628  0.4298063741276365  1.0000
  O   O9        1.0  0.7925914726154416  0.7081760430191435  0.1899086517731944  1.0000
  O   O10       1.0  0.20740656269643412  0.29182514351718686  0.8100970297994222  1.0000
