data_image0
_chemical_formula_structural       Cu2H32C40N12O12
_chemical_formula_sum              "Cu2 H32 C40 N12 O12"
_cell_length_a       9.168568541949886
_cell_length_b       9.278974872921768
_cell_length_c       14.035353501777882
_cell_angle_alpha    83.28768289366002
_cell_angle_beta     78.62108457762683
_cell_angle_gamma    91.83675010622177

_space_group_name_H-M_alt    "P 1"
_space_group_IT_number       1

loop_
  _space_group_symop_operation_xyz
  'x, y, z'

loop_
  _atom_site_type_symbol
  _atom_site_label
  _atom_site_symmetry_multiplicity
  _atom_site_fract_x
  _atom_site_fract_y
  _atom_site_fract_z
  _atom_site_occupancy
  Cu  Cu1       1.0  0.09242186750584117  0.2210642150418067  0.28581169744381185  1.0000
  Cu  Cu2       1.0  0.9075866599008222  0.7789295816124523  0.714186005183514  1.0000
  H   H1        1.0  0.0731260303749153  0.23234407602407006  0.5092971606522241  1.0000
  H   H2        1.0  0.9268750490217172  0.7676562308706423  0.49070453574553613  1.0000
  H   H3        1.0  0.9001861517693114  0.33961017158236473  0.6381082209443321  1.0000
  H   H4        1.0  0.09982708731514828  0.6603871403994219  0.3618942184862562  1.0000
  H   H5        1.0  0.7002519446056112  0.49199722353932174  0.5895355045661929  1.0000
  H   H6        1.0  0.2997580323364275  0.5080001507136771  0.4104709399142905  1.0000
  H   H7        1.0  0.6811414444603869  0.5329218658443083  0.412858095609522  1.0000
  H   H8        1.0  0.31886409684846473  0.46707444332891884  0.5871519043688951  1.0000
  H   H9        1.0  0.6635345869340767  0.5345267091300202  0.2657022240883579  1.0000
  H   H10       1.0  0.33646867027434263  0.4654745811333358  0.7342948083135425  1.0000
  H   H11       1.0  0.6529925464380639  0.5135611851598157  0.09176551089156251  1.0000
  H   H12       1.0  0.34701537572702523  0.4864435511168352  0.9082341328898097  1.0000
  H   H13       1.0  0.8424740268045168  0.36792614037254623  0.9946550822027547  1.0000
  H   H14       1.0  0.1575272464860618  0.6320785356086136  0.005346903881608989  1.0000
  H   H15       1.0  0.03255662896679469  0.24736777902512594  0.0783832150367871  1.0000
  H   H16       1.0  0.9674433016633017  0.7526344982716895  0.9216127583958098  1.0000
  H   H17       1.0  0.39175688428281313  0.3220538418257419  0.3117682607510304  1.0000
  H   H18       1.0  0.6082465442364009  0.6779477025897621  0.6882365648714598  1.0000
  H   H19       1.0  0.5803682693277351  0.22844507882523862  0.4040829233967146  1.0000
  H   H20       1.0  0.419637773653342  0.7715652392648097  0.5959221731477271  1.0000
  H   H21       1.0  0.2810292327854782  0.850454463187198  0.5159705845761238  1.0000
  H   H22       1.0  0.718968086102052  0.14955802451552103  0.48403978722697644  1.0000
  H   H23       1.0  0.1049059841557067  0.9614192437212596  0.41940065131280596  1.0000
  H   H24       1.0  0.8950986737258969  0.0385865720078158  0.5806007673976624  1.0000
  H   H25       1.0  0.1196386098777751  0.9409079218471206  0.20421391099395692  1.0000
  H   H26       1.0  0.8803653573060399  0.05908462488943662  0.7957816793344963  1.0000
  H   H27       1.0  0.3032467974285852  0.8297259251612773  0.08607480258738318  1.0000
  H   H28       1.0  0.6967364368505855  0.17025405024904225  0.9139155052996416  1.0000
  H   H29       1.0  0.5393222381200218  0.253861890313935  0.005978024496449994  1.0000
  H   H30       1.0  0.4606710296246916  0.7461192851397841  0.9940093737136877  1.0000
  H   H31       1.0  0.3459463973260526  0.3467239362098412  0.12714831414130157  1.0000
  H   H32       1.0  0.6540538066293706  0.6532618072542604  0.872841282300037  1.0000
  C   C1        1.0  0.9823754729512899  0.2954230025525391  0.4901780644952538  1.0000
  C   C2        1.0  0.017630137661839712  0.7045774908691983  0.509826557372975  1.0000
  C   C3        1.0  0.8856715923816834  0.3561321538700782  0.5623790755355389  1.0000
  C   C4        1.0  0.11432827108519916  0.6438649219970146  0.4376245061280458  1.0000
  C   C5        1.0  0.774764325681673  0.44097520251642675  0.5345854755624517  1.0000
  C   C6        1.0  0.22524144981905178  0.5590285966010669  0.46542024916397656  1.0000
  C   C7        1.0  0.7629546165941079  0.46194710793189847  0.4365024678188193  1.0000
  C   C8        1.0  0.23704412224421395  0.5380478927172236  0.5635050198373861  1.0000
  C   C9        1.0  0.8599064472925662  0.39316497604749406  0.368392471200778  1.0000
  C   C10       1.0  0.14009270619892078  0.6068408433463973  0.6316125525362537  1.0000
  C   C11       1.0  0.8504311956083652  0.39768440253456566  0.26464675532515264  1.0000
  C   C12       1.0  0.14956761039316288  0.6023157995442716  0.7353531241000725  1.0000
  C   C13       1.0  0.7427136935553021  0.47024288008391585  0.22267279906812834  1.0000
  C   C14       1.0  0.2572818460216766  0.5297594186285509  0.7773266251654007  1.0000
  C   C15       1.0  0.738199940047046  0.45990792445353174  0.12502421154340485  1.0000
  C   C16       1.0  0.2618015137048316  0.5401000803281308  0.874979585873767  1.0000
  C   C17       1.0  0.842871682525974  0.3792121226289424  0.07102932999890042  1.0000
  C   C18       1.0  0.1571271121839857  0.6207860219827523  0.9289743011933213  1.0000
  C   C19       1.0  0.94826653096149  0.31144822745955036  0.11714860519769138  1.0000
  C   C20       1.0  0.05173568649635029  0.6885551949390916  0.8828476635612504  1.0000
  C   C21       1.0  0.37229012583540566  0.21886593689340839  0.359468559140339  1.0000
  C   C22       1.0  0.6277144987577116  0.7811408498073861  0.640529212500134  1.0000
  C   C23       1.0  0.4762707185099372  0.16491760247268422  0.4115974375061243  1.0000
  C   C24       1.0  0.5237261927338679  0.835088158314811  0.5884071862075687  1.0000
  C   C25       1.0  0.4469109341050553  0.030418551777906103  0.470974807979502  1.0000
  C   C26       1.0  0.5530861640232486  0.9695874862664838  0.5290383174293825  1.0000
  C   C27       1.0  0.3115949420749685  0.9555692167651559  0.4726220392190045  1.0000
  C   C28       1.0  0.6884066985614012  0.04443906527340151  0.5273902598933589  1.0000
  C   C29       1.0  0.21153826834601117  0.0162193191707232  0.4196438443906346  1.0000
  C   C30       1.0  0.7884721678292478  0.9837899603224827  0.5803600314736743  1.0000
  C   C31       1.0  0.21408500816976073  0.006035174555208302  0.15800078516272012  1.0000
  C   C32       1.0  0.7859110029086123  0.993952925048582  0.8419970120077523  1.0000
  C   C33       1.0  0.31918613784395683  0.9450439635035651  0.0913378956116802  1.0000
  C   C34       1.0  0.6808052888735999  0.05494693180258991  0.9086481603021358  1.0000
  C   C35       1.0  0.441898989426214  0.031044382331678805  0.034953670771564305  1.0000
  C   C36       1.0  0.5580956102736536  0.9689442777124029  0.9650285894863516  1.0000
  C   C37       1.0  0.4496807723207538  0.17866389331209123  0.04799277867358852  1.0000
  C   C38       1.0  0.5503215648664009  0.8213217470252232  0.9519922584688986  1.0000
  C   C39       1.0  0.3404347351897031  0.23254370624987084  0.11570714781944964  1.0000
  C   C40       1.0  0.6595729500642306  0.7674345560020513  0.8842821019214568  1.0000
  N   N1        1.0  0.9679358065972394  0.3113104336730146  0.39626378829826353  1.0000
  N   N2        1.0  0.032061865625216505  0.6886846185394974  0.6037459790073783  1.0000
  N   N3        1.0  0.9516982697362905  0.3202003334618979  0.21123268648680962  1.0000
  N   N4        1.0  0.04829054523869299  0.679800772250168  0.7887677677975091  1.0000
  N   N5        1.0  0.24063295134619975  0.14633180169897034  0.3645230822070503  1.0000
  N   N6        1.0  0.7593804907827176  0.853672954017604  0.6354736650223602  1.0000
  N   N7        1.0  0.22450248742389078  0.1476530166672134  0.17037006303726807  1.0000
  N   N8        1.0  0.775496491451271  0.852326421120921  0.8296274005576907  1.0000
  N   N9        1.0  0.235691823479506  0.570347286961088  0.18354007046335138  1.0000
  N   N10       1.0  0.7642987079329727  0.4296439140606126  0.8164560583204905  1.0000
  N   N11       1.0  0.8183684227006933  0.9407315933893661  0.3269387948163143  1.0000
  N   N12       1.0  0.18162250622840756  0.0592914217152227  0.6730643706246084  1.0000
  O   O1        1.0  0.2481406827637969  0.4780333209375555  0.25588151704246104  1.0000
  O   O2        1.0  0.7518695922277842  0.5219506172358237  0.7441132770335843  1.0000
  O   O3        1.0  0.12492166433570155  0.6483199190069158  0.18896806650666065  1.0000
  O   O4        1.0  0.8750694084606818  0.35168126841628583  0.8110334962755986  1.0000
  O   O5        1.0  0.3360211391517537  0.5812052779041397  0.10555344206390062  1.0000
  O   O6        1.0  0.6639695797314714  0.4187933437476162  0.8944362860441616  1.0000
  O   O7        1.0  0.949805114858037  0.9864417778540755  0.33557426734928003  1.0000
  O   O8        1.0  0.0501881040164633  0.013553203355122898  0.6644361168588944  1.0000
  O   O9        1.0  0.772542047781975  0.8128921705122991  0.36397372585512505  1.0000
  O   O10       1.0  0.2274063300225748  0.1871477672841806  0.6360408639794957  1.0000
  O   O11       1.0  0.7406016464251263  0.024437592384458594  0.28381198452735396  1.0000
  O   O12       1.0  0.25942496788657365  0.9755952609011874  0.7161697169791523  1.0000
