data_image0
_chemical_formula_structural       Zn3H38C48N4O12
_chemical_formula_sum              "Zn3 H38 C48 N4 O12"
_cell_length_a       9.671897872250353
_cell_length_b       9.913534457887257
_cell_length_c       13.4437
_cell_angle_alpha    105.02362077018729
_cell_angle_beta     104.39547908850022
_cell_angle_gamma    104.81564816332913

_space_group_name_H-M_alt    "P 1"
_space_group_IT_number       1

loop_
  _space_group_symop_operation_xyz
  'x, y, z'

loop_
  _atom_site_type_symbol
  _atom_site_label
  _atom_site_symmetry_multiplicity
  _atom_site_fract_x
  _atom_site_fract_y
  _atom_site_fract_z
  _atom_site_occupancy
  Zn  Zn1       1.0  0.9999971169321781  0.9999984410645766  0.9999994094922189  1.0000
  Zn  Zn2       1.0  0.7130978823999428  0.9939872305292923  0.7517355436399883  1.0000
  Zn  Zn3       1.0  0.28690136940787886  0.0060112105352843  0.2482635038570322  1.0000
  H   H1        1.0  0.3383743613613817  0.6575817486354154  0.9785713326423674  1.0000
  H   H2        1.0  0.6616242117945389  0.3424178039695747  0.021428549783209367  1.0000
  H   H3        1.0  0.584754143123355  0.4832232968999365  0.7822412116919892  1.0000
  H   H4        1.0  0.4152477312659569  0.5167795903262729  0.2177598986098346  1.0000
  H   H5        1.0  0.1608505366683772  0.1972061648554302  0.7711327779440325  1.0000
  H   H6        1.0  0.839152306238823  0.8027933877495528  0.22886712433398065  1.0000
  H   H7        1.0  0.1333300275547202  0.4656620699681824  0.002686751388118625  1.0000
  H   H8        1.0  0.8666692242531013  0.5343363710963942  0.9973115522660622  1.0000
  H   H9        1.0  0.022492866771294504  0.46334339667369306  0.8750281843084764  1.0000
  H   H10       1.0  0.9775074524743487  0.5366550443908835  0.12497105411236482  1.0000
  H   H11       1.0  0.5626855181088359  0.8124237738585904  0.9911710797513251  1.0000
  H   H12       1.0  0.4373145112708201  0.1875768902867989  0.008829275607602915  1.0000
  H   H13       1.0  0.7027903024451733  0.732528472295165  0.9796652629295153  1.0000
  H   H14       1.0  0.29720933814856215  0.2674710803098179  0.02033406657704261  1.0000
  H   H15       1.0  0.4316343717676858  0.2298954567622573  0.6271813853767298  1.0000
  H   H16       1.0  0.5683663362638782  0.7701040958427257  0.3728181350536488  1.0000
  H   H17       1.0  0.2798702896565786  0.1081373202913198  0.6450235333451602  1.0000
  H   H18       1.0  0.7201318745987207  0.8918633438540696  0.3549779477042563  1.0000
  H   H19       1.0  0.9634900676796504  0.029124581813142897  0.6553074441809628  1.0000
  H   H20       1.0  0.0365110291378272  0.9708760823322535  0.344693845944633  1.0000
  H   H21       1.0  0.0480791649901207  0.8702283213210222  0.5227241377042731  1.0000
  H   H22       1.0  0.951921931827357  0.1297723428243742  0.47727640857848286  1.0000
  H   H23       1.0  0.6460393102472608  0.5039979871559339  0.46380283935830857  1.0000
  H   H24       1.0  0.35396246522211766  0.4960015654490491  0.5361991035244102  1.0000
  H   H25       1.0  0.5836585365187544  0.6778329033584711  0.6027091878803646  1.0000
  H   H26       1.0  0.41634149286090144  0.3221677607869253  0.3972919113214104  1.0000
  H   H27       1.0  0.013670156483797827  0.6317595533792826  0.39926289371882007  1.0000
  H   H28       1.0  0.9863294841099446  0.3682399992257004  0.600735691944891  1.0000
  H   H29       1.0  0.7136670092505425  0.3788407601123467  0.348979629960283  1.0000
  H   H30       1.0  0.2863330201291134  0.6211599040330498  0.651021469241492  1.0000
  H   H31       1.0  0.09253147521632597  0.4945565629165288  0.29308144578768497  1.0000
  H   H32       1.0  0.9074688440293172  0.5054418781480408  0.7069200241616755  1.0000
  H   H33       1.0  0.15060662122286317  0.313371029985106  0.1589697244209276  1.0000
  H   H34       1.0  0.8493930193708721  0.686628522619877  0.8410318366141497  1.0000
  H   H35       1.0  0.7577474456764363  0.9740184070702823  0.1059287842409447  1.0000
  H   H36       1.0  0.2422489926038409  0.0259811455347077  0.8940714601798304  1.0000
  H   H37       1.0  0.6747880320558437  0.142738461702713  0.23104014937249673  1.0000
  H   H38       1.0  0.32521092988599065  0.8572622024426835  0.7689607589054575  1.0000
  C   C1        1.0  0.23198104371207506  0.4254987803469987  0.8769276751696465  1.0000
  C   C2        1.0  0.7680192755335682  0.5744996607175707  0.12307156325118741  1.0000
  C   C3        1.0  0.3460079209948077  0.5648503784215677  0.9177605520906623  1.0000
  C   C4        1.0  0.6539913308130137  0.4351480626430018  0.08223849540635797  1.0000
  C   C5        1.0  0.47280438496741073  0.5870333903765683  0.8839004694656579  1.0000
  C   C6        1.0  0.5271960331981588  0.4129683853092345  0.11610016790280753  1.0000
  C   C7        1.0  0.48556232590717485  0.46710929558152264  0.808887732167257  1.0000
  C   C8        1.0  0.5144395484821372  0.5328935916446937  0.19111412197740663  1.0000
  C   C9        1.0  0.3741641901525271  0.3260903868925098  0.7680411976063439  1.0000
  C   C10       1.0  0.6258372954508644  0.673911388793293  0.23195888684310262  1.0000
  C   C11       1.0  0.2475966594875841  0.3073787156367871  0.8025365959401185  1.0000
  C   C12       1.0  0.7524051159817944  0.6926208369681959  0.19746311541407377  1.0000
  C   C13       1.0  0.09465131376706641  0.4088523511723707  0.9136887278601407  1.0000
  C   C14       1.0  0.9053490054785767  0.5911460898921987  0.0863097667178607  1.0000
  C   C15       1.0  0.0015843604075698  0.24748113758302276  0.8862312143705466  1.0000
  C   C16       1.0  0.9984159588380733  0.7525173034815538  0.11376802405029443  1.0000
  C   C17       1.0  0.5948507085975762  0.7373647846174691  0.9320965501180467  1.0000
  C   C18       1.0  0.40514970956799345  0.2626369910683337  0.06790334340757911  1.0000
  C   C19       1.0  0.6270324115396804  0.812242592771824  0.8516693526767369  1.0000
  C   C20       1.0  0.3729669391880748  0.1877591829139789  0.1483303499250681  1.0000
  C   C21       1.0  0.3909027963299039  0.1973806766997441  0.6897417795643648  1.0000
  C   C22       1.0  0.6090989791394747  0.8026188759052388  0.31025793178982747  1.0000
  C   C23       1.0  0.4984974382652608  0.1259808784871197  0.7429211817033305  1.0000
  C   C24       1.0  0.5015043372041177  0.8740186741178633  0.257077785808022  1.0000
  C   C25       1.0  0.8972103482488548  0.9117432440803128  0.6108139954767821  1.0000
  C   C26       1.0  0.10279035978270198  0.0882563085246701  0.3891862687964291  1.0000
  C   C27       1.0  0.942620909553824  0.8227788843147152  0.5365223671859738  1.0000
  C   C28       1.0  0.0573797984777329  0.1772206682902748  0.4634778970872445  1.0000
  C   C29       1.0  0.8542683072350952  0.6716694117870716  0.48070779129874813  1.0000
  C   C30       1.0  0.14573278958238228  0.3283312523583248  0.5192927549840007  1.0000
  C   C31       1.0  0.7203750202926072  0.6195192703884302  0.5039522647075572  1.0000
  C   C32       1.0  0.2796260765248703  0.3804813937569662  0.49604976926087824  1.0000
  C   C33       1.0  0.6835416905488074  0.7148171874081086  0.5798863142058721  1.0000
  C   C34       1.0  0.31645940626867025  0.2851834767372807  0.4201149759197165  1.0000
  C   C35       1.0  0.9041767535354452  0.5773574311107339  0.405559505642188  1.0000
  C   C36       1.0  0.09582327584421078  0.4226432330346626  0.5944408497167402  1.0000
  C   C37       1.0  0.8257999151887887  0.4322280459869035  0.3463905515961585  1.0000
  C   C38       1.0  0.17419904675304562  0.5677726181584859  0.6536103566817957  1.0000
  C   C39       1.0  0.8757263740959829  0.3349249100682528  0.27330321377104383  1.0000
  C   C40       1.0  0.12427152040802981  0.6650757540771437  0.7266967597402427  1.0000
  C   C41       1.0  0.013200180358978702  0.3807992943141159  0.2530615152258733  1.0000
  C   C42       1.0  0.9867998490206701  0.6192013698312806  0.7469395839759015  1.0000
  C   C43       1.0  0.0475925753457531  0.2801737641110762  0.1790041763228913  1.0000
  C   C44       1.0  0.9524063865960812  0.7198269000343132  0.8209959881122231  1.0000
  C   C45       1.0  0.8273815751608922  0.0906016587889908  0.1478980026319476  1.0000
  C   C46       1.0  0.17261738678094224  0.9093990053564056  0.8521021618031668  1.0000
  C   C47       1.0  0.7829145380842419  0.1849125279249151  0.21918286976069368  1.0000
  C   C48       1.0  0.2170852014294269  0.8150903593012941  0.7808163710078091  1.0000
  N   N1        1.0  0.7704766821303649  0.8592918752306673  0.6336628697970781  1.0000
  N   N2        1.0  0.22952373603521176  0.1407099004551355  0.36633851141422713  1.0000
  N   N3        1.0  0.9563735638151268  0.1372229981901256  0.12617965862877156  1.0000
  N   N4        1.0  0.04362539812670718  0.8627776659552708  0.8738205058063431  1.0000
  O   O1        1.0  0.0517740581208201  0.18230930028556  0.9490478812740335  1.0000
  O   O2        1.0  0.9482241262491797  0.8176891407790166  0.05095097529916609  1.0000
  O   O3        1.0  0.8841002284406372  0.1893164510278709  0.8002174427856233  1.0000
  O   O4        1.0  0.1159000908050132  0.8106819900366986  0.19978030794953847  1.0000
  O   O5        1.0  0.551382791559341  0.0533850627937369  0.6752904301927956  1.0000
  O   O6        1.0  0.4486150040247452  0.9466122667304262  0.3247074005280268  1.0000
  O   O7        1.0  0.5275229059459149  0.1371496365230911  0.8411363018822868  1.0000
  O   O8        1.0  0.4724813931850207  0.8628510276223054  0.15886332948624476  1.0000
  O   O9        1.0  0.5367577649524263  0.770981101225928  0.7557342117148025  1.0000
  O   O10       1.0  0.4632419745612423  0.2290217860002883  0.2442657728965401  1.0000
  O   O11       1.0  0.7524939403698738  0.9262343964006732  0.8861614745562393  1.0000
  O   O12       1.0  0.2475050215719605  0.0737662677447233  0.1138379460360284  1.0000
