data_image0
_chemical_formula_structural       Ag5H16C25N9
_chemical_formula_sum              "Ag5 H16 C25 N9"
_cell_length_a       8.595716964838845
_cell_length_b       8.892488096956033
_cell_length_c       9.224627364180064
_cell_angle_alpha    73.15785488930392
_cell_angle_beta     76.25156125879141
_cell_angle_gamma    80.51698526447092

_space_group_name_H-M_alt    "P 1"
_space_group_IT_number       1

loop_
  _space_group_symop_operation_xyz
  'x, y, z'

loop_
  _atom_site_type_symbol
  _atom_site_label
  _atom_site_symmetry_multiplicity
  _atom_site_fract_x
  _atom_site_fract_y
  _atom_site_fract_z
  _atom_site_occupancy
  Ag  Ag1       1.0  0.3237037662772834  0.23140244342726388  0.31608022286113885  1.0000
  Ag  Ag2       1.0  0.975516594298085  0.23177379723689023  0.5257731676933235  1.0000
  Ag  Ag3       1.0  0.2288484257587767  0.6275160442948858  0.6731485972549721  1.0000
  Ag  Ag4       1.0  0.8791315301079619  0.613007346576424  0.8936762386920877  1.0000
  Ag  Ag5       1.0  0.601247297755229  0.42174844155929486  0.10384827887031634  1.0000
  H   H1        1.0  0.141318904079121  0.3331671638265873  0.03429001873460894  1.0000
  H   H2        1.0  0.09602905371740177  0.22351009741201006  0.8301593148052149  1.0000
  H   H3        1.0  0.20708300152504214  0.9430874511955024  0.8303293575336568  1.0000
  H   H4        1.0  0.36534999889573067  0.790160901870216  0.02890291294134075  1.0000
  H   H5        1.0  0.43003141279233864  0.6606007587106149  0.23596928265479988  1.0000
  H   H6        1.0  0.6054814942309009  0.5352387183667487  0.4263775491524557  1.0000
  H   H7        1.0  0.7079685274962982  0.7057725315729186  0.5497553768657397  1.0000
  H   H8        1.0  0.6284918287430585  0.9995199301896986  0.47295232551329064  1.0000
  H   H9        1.0  0.05676837237781033  0.5090673452741611  0.17852295375846694  1.0000
  H   H10       1.0  0.10950539860017021  0.6220953493970001  0.377674265310965  1.0000
  H   H11       1.0  0.005570241101160897  0.9055233829814708  0.3715293791995294  1.0000
  H   H12       1.0  0.8479789268939656  0.05771159445625779  0.17327703382493811  1.0000
  H   H13       1.0  0.7751933181809605  0.18515401508192034  0.9715560456752786  1.0000
  H   H14       1.0  0.6024675042464621  0.3105646356079745  0.7790355326133495  1.0000
  H   H15       1.0  0.5039603166403878  0.14097041111768496  0.6521142752404857  1.0000
  H   H16       1.0  0.5839476197554204  0.8471671447872281  0.7284443965656778  1.0000
  C   C1        1.0  0.30263552292308293  0.3618551438457942  0.46763514708669623  1.0000
  C   C2        1.0  0.7578803526262518  0.32848905235928055  0.24787517080085322  1.0000
  C   C3        1.0  0.4462889829923141  0.5093020571156401  0.9573641520923959  1.0000
  C   C4        1.0  0.12658267231346806  0.8565201956531323  0.6155032062804511  1.0000
  C   C5        1.0  0.8998625898099777  0.48064746207980136  0.7447216083495152  1.0000
  C   C6        1.0  0.18942615215419778  0.2129645628180441  0.03004302534721859  1.0000
  C   C7        1.0  0.16340573689812743  0.15086180463238458  0.9165441624499664  1.0000
  C   C8        1.0  0.2257604649066422  0.9959087702044798  0.916907958865281  1.0000
  C   C9        1.0  0.3134327840348305  0.9103926012774721  0.028587360077260454  1.0000
  C   C10       1.0  0.3379929398538125  0.9811219800174622  0.13743208710666038  1.0000
  C   C11       1.0  0.43729624310611115  0.8971178401800798  0.25371770906115654  1.0000
  C   C12       1.0  0.4768400566581974  0.7333047221407655  0.28934130549137654  1.0000
  C   C13       1.0  0.5736074103745706  0.6624887875404325  0.3976005081325838  1.0000
  C   C14       1.0  0.6288140464079391  0.7569435460946747  0.4675531835292549  1.0000
  C   C15       1.0  0.5841148123786866  0.9193738755320309  0.4258638681118968  1.0000
  C   C16       1.0  0.012687074401270605  0.6308156935288095  0.18003320463613195  1.0000
  C   C17       1.0  0.04263455993832112  0.6945197791829968  0.2907573289419221  1.0000
  C   C18       1.0  0.9843196233312103  0.8510271326533426  0.2872354140116968  1.0000
  C   C19       1.0  0.896703791557819  0.9363858167711354  0.17547500261201796  1.0000
  C   C20       1.0  0.8685297387505101  0.8643137677455214  0.06921988454139712  1.0000
  C   C21       1.0  0.7702342534508871  0.9487195013367892  0.9521105143235575  1.0000
  C   C22       1.0  0.7302715866289873  0.11245055394852697  0.9168085220984071  1.0000
  C   C23       1.0  0.6350445845501014  0.18347157652846846  0.8072595937509421  1.0000
  C   C24       1.0  0.5816657954111618  0.08949151799156138  0.735578728802814  1.0000
  C   C25       1.0  0.6265560295994702  0.9271423725881929  0.7770742129178815  1.0000
  N   N1        1.0  0.2972399298842632  0.4348133697762507  0.5566797589539193  1.0000
  N   N2        1.0  0.8491179397967342  0.2792745401006513  0.33095356189339503  1.0000
  N   N3        1.0  0.3602171237302443  0.5486745141232773  0.8689250126862479  1.0000
  N   N4        1.0  0.0743908079972044  0.9900400825833982  0.5914433685524261  1.0000
  N   N5        1.0  0.9099624779660475  0.4095054352162748  0.6532047866834461  1.0000
  N   N6        1.0  0.27447538915657793  0.13112558985112346  0.138050408279625  1.0000
  N   N7        1.0  0.4903597882072503  0.9876966452425932  0.3229590558282427  1.0000
  N   N8        1.0  0.9282635500635974  0.7128020859514236  0.07160136871946327  1.0000
  N   N9        1.0  0.7184630651141647  0.8586241705368352  0.8814990729228428  1.0000
