data_image0
_chemical_formula_structural       Zn2H16C20Br4N4O4
_chemical_formula_sum              "Zn2 H16 C20 Br4 N4 O4"
_cell_length_a       8.585716544176796
_cell_length_b       9.07997154953385
_cell_length_c       9.23999885030975
_cell_angle_alpha    67.72364702521618
_cell_angle_beta     85.05549102397232
_cell_angle_gamma    66.79125587751965

_space_group_name_H-M_alt    "P 1"
_space_group_IT_number       1

loop_
  _space_group_symop_operation_xyz
  'x, y, z'

loop_
  _atom_site_type_symbol
  _atom_site_label
  _atom_site_symmetry_multiplicity
  _atom_site_fract_x
  _atom_site_fract_y
  _atom_site_fract_z
  _atom_site_occupancy
  Zn  Zn1       1.0  0.04667193554220013  0.17972059321865427  0.012794487696140803  1.0000
  Zn  Zn2       1.0  0.9533256174927871  0.8202835041030668  0.9872025291606337  1.0000
  H   H1        1.0  0.0626165274123949  0.2206720449318311  0.6802529465182233  1.0000
  H   H2        1.0  0.9373829363805085  0.7793243013351443  0.3197490382384844  1.0000
  H   H3        1.0  0.4186251986881261  0.7388982795639548  0.9440340474105897  1.0000
  H   H4        1.0  0.5813755439218016  0.2611007553420066  0.055972218885465046  1.0000
  H   H5        1.0  0.23652513140702783  0.2457338205335162  0.4485947553587908  1.0000
  H   H6        1.0  0.7634726564831591  0.7542638022612567  0.5514068782361295  1.0000
  H   H7        1.0  0.6133282564648895  0.7406490061157242  0.7285973434064492  1.0000
  H   H8        1.0  0.3866736485761351  0.25935004578107623  0.271408822030999  1.0000
  H   H9        1.0  0.1279962629133422  0.5228898544034593  0.8016897827356858  1.0000
  H   H10       1.0  0.8720047965167979  0.47711422627079975  0.1983015442479116  1.0000
  H   H11       1.0  0.682378450804258  0.2053364723710231  0.645416037538162  1.0000
  H   H12       1.0  0.3176238589632093  0.7946585873109908  0.35458404260278803  1.0000
  H   H13       1.0  0.2300427906973538  0.6793120855512245  0.5571814925766747  1.0000
  H   H14       1.0  0.7699613572033144  0.3206842069631363  0.4428103916103583  1.0000
  H   H15       1.0  0.5585984057048208  0.0691896932480134  0.8824359510247393  1.0000
  H   H16       1.0  0.4414006762839122  0.9308105640897538  0.11756565427164381  1.0000
  C   C1        1.0  0.18607199500894472  0.12088131534801512  0.68056207692419  1.0000
  C   C2        1.0  0.8139264456610817  0.8791176044322598  0.3194379263322489  1.0000
  C   C3        1.0  0.3898505996157839  0.8461511742632837  0.8313542414875602  1.0000
  C   C4        1.0  0.6101506641065342  0.15384654007602447  0.16865032190994367  1.0000
  C   C5        1.0  0.2862014591996385  0.1303821996790901  0.5550254480112571  1.0000
  C   C6        1.0  0.7137985142445089  0.8696128665932362  0.44497806622531755  1.0000
  C   C7        1.0  0.44495824580788945  0.9954398749493193  0.5656246731360001  1.0000
  C   C8        1.0  0.5550428938877302  0.004555194789851696  0.4343776627824953  1.0000
  C   C9        1.0  0.4929686814319184  0.8512865933511621  0.7080723934526107  1.0000
  C   C10       1.0  0.5070337447214897  0.14871113797899943  0.2919320690862933  1.0000
  C   C11       1.0  0.2481667822660328  0.4608283993684167  0.7585810892104947  1.0000
  C   C12       1.0  0.7518352926462342  0.5391731348405387  0.24141437419230974  1.0000
  C   C13       1.0  0.4665559440148428  0.45733330365322894  0.5724460099143301  1.0000
  C   C14       1.0  0.53344651652197  0.5426643059609332  0.42754875548933324  1.0000
  C   C15       1.0  0.5579734496808088  0.2841951252917881  0.670359322755836  1.0000
  C   C16       1.0  0.4420300263381235  0.715799937857071  0.32963957906703467  1.0000
  C   C17       1.0  0.3091383930941021  0.543830073542324  0.6221165890046623  1.0000
  C   C18       1.0  0.6908663923048907  0.4561675700535304  0.3778779746817806  1.0000
  C   C19       1.0  0.4932252251475191  0.20385140428584947  0.8047056995774046  1.0000
  C   C20       1.0  0.5067755403846804  0.7961475494761102  0.19529410196182084  1.0000
  Br  Br1       1.0  0.0630016647905975  0.10983454439047342  0.28683072394419185  1.0000
  Br  Br2       1.0  0.936993973666091  0.8901773175099803  0.713162402472122  1.0000
  Br  Br3       1.0  0.8407107463988693  0.42660082671558547  0.8216045350408694  1.0000
  Br  Br4       1.0  0.159282261836566  0.5734059148628887  0.17840050002670443  1.0000
  N   N1        1.0  0.2409812054559736  0.9818809774216817  0.8180643173399748  1.0000
  N   N2        1.0  0.7590183900043856  0.018117986397435  0.18193773997680307  1.0000
  N   N3        1.0  0.3389362410011357  0.2912852234976597  0.8472415416369689  1.0000
  N   N4        1.0  0.6610641541880327  0.7087176007630944  0.1527546480635209  1.0000
  O   O1        1.0  0.14711597165280219  0.9732549624182455  0.941002949221961  1.0000
  O   O2        1.0  0.8528824537357167  0.026744011458021102  0.059001363872368984  1.0000
  O   O3        1.0  0.2828481322213107  0.20976007099163502  0.9788085646229593  1.0000
  O   O4        1.0  0.7171511005367677  0.79024273627828  0.02118772593613026  1.0000
