data_image0
_chemical_formula_structural       Zn3H72C36S6N6O24
_chemical_formula_sum              "Zn3 H72 C36 S6 N6 O24"
_cell_length_a       8.828741489741912
_cell_length_b       10.745502966465134
_cell_length_c       14.66817348963199
_cell_angle_alpha    91.92429728235528
_cell_angle_beta     92.10688940195658
_cell_angle_gamma    90.70345859797409

_space_group_name_H-M_alt    "P 1"
_space_group_IT_number       1

loop_
  _space_group_symop_operation_xyz
  'x, y, z'

loop_
  _atom_site_type_symbol
  _atom_site_label
  _atom_site_symmetry_multiplicity
  _atom_site_fract_x
  _atom_site_fract_y
  _atom_site_fract_z
  _atom_site_occupancy
  Zn  Zn1       1.0  0.19601777359304856  0.39390575650902804  0.3040325112898615  1.0000
  Zn  Zn2       1.0  0.8039815004624343  0.6060946733332315  0.6959658028404547  1.0000
  Zn  Zn3       1.0  0.9999967038131174  2.8903986050019955e-07  8.413188400569846e-09  1.0000
  H   H1        1.0  0.8933527499199199  0.2852310554907831  0.3371083757879063  1.0000
  H   H2        1.0  0.10664650470764768  0.7147675107940118  0.6628912547494821  1.0000
  H   H3        1.0  0.5919505061814901  0.3230558496249074  0.46532082678991327  1.0000
  H   H4        1.0  0.40804991765030246  0.676944579292581  0.5346802372733563  1.0000
  H   H5        1.0  0.6596083361057977  0.24697260012581523  0.3650208322181285  1.0000
  H   H6        1.0  0.340392069845329  0.7530268981080682  0.634979526407733  1.0000
  H   H7        1.0  0.5422525889401014  0.3810553557121565  0.35628855735537  1.0000
  H   H8        1.0  0.4577478348916841  0.6189450732053388  0.6437125067078923  1.0000
  H   H9        1.0  0.6887380982679615  0.5377601040903529  0.50329444261682  1.0000
  H   H10       1.0  0.311263472804029  0.4622412573237896  0.4967066677144559  1.0000
  H   H11       1.0  0.6798436774298438  0.5984956480408316  0.39144994126536403  1.0000
  H   H12       1.0  0.3201590092043817  0.4015047839551827  0.6085504862795973  1.0000
  H   H13       1.0  0.8590006790471278  0.5883712907127718  0.4522582391873513  1.0000
  H   H14       1.0  0.1410031410299979  0.41162914254871924  0.5477422110086962  1.0000
  H   H15       1.0  0.9139929920855181  0.3244929624657119  0.9982467068650536  1.0000
  H   H16       1.0  0.08600854477239749  0.6755074704550595  0.001750970746961404  1.0000
  H   H17       1.0  0.008170582596648  0.5358847975122246  0.1353412013137785  1.0000
  H   H18       1.0  0.9918309680585793  0.46411656663972434  0.8646564999151706  1.0000
  H   H19       1.0  0.8275449485342959  0.4606107801268067  0.1274153385178991  1.0000
  H   H20       1.0  0.17245660212093128  0.5393905840251351  0.87258236271105  1.0000
  H   H21       1.0  0.17665928021913396  0.33541338222246964  0.9492076861844795  1.0000
  H   H22       1.0  0.8233434038789865  0.6645879831949559  0.050790037695549003  1.0000
  H   H23       1.0  0.2190025824897575  0.4608255151608987  0.028791344862717904  1.0000
  H   H24       1.0  0.7809978526032352  0.5391767784091783  0.9712070391525459  1.0000
  H   H25       1.0  0.17149715029513143  0.022299749267098403  0.3186954950644676  1.0000
  H   H26       1.0  0.8285009611755854  0.9776978839734911  0.6813047710253742  1.0000
  H   H27       1.0  0.12508440101363758  0.9172754232091903  0.4670537792783307  1.0000
  H   H28       1.0  0.8749148479833336  0.08272221074931002  0.532947191283057  1.0000
  H   H29       1.0  0.3241966723318511  0.9076045851315444  0.48676998304230074  1.0000
  H   H30       1.0  0.6758037417859839  0.09239491200722234  0.5132317392244943  1.0000
  H   H31       1.0  0.21321829103443687  0.7064696035445196  0.4205885037119259  1.0000
  H   H32       1.0  0.7867820914054277  0.2935280316794576  0.5794124895005482  1.0000
  H   H33       1.0  0.1402971707941063  0.7847019278344549  0.32521589092185377  1.0000
  H   H34       1.0  0.85970322544307  0.21529663862069276  0.6747851259075475  1.0000
  H   H35       1.0  0.4767896359783279  0.7574039707092199  0.3781159496089828  1.0000
  H   H36       1.0  0.5232096089352821  0.24259366379683917  0.6218843391319453  1.0000
  H   H37       1.0  0.3295630126882259  0.8849726561645072  0.21387392040981723  1.0000
  H   H38       1.0  0.6704396325540782  0.11502498213798873  0.7861264362843556  1.0000
  H   H39       1.0  0.5264233882061902  0.8695474808318127  0.2376339529399232  1.0000
  H   H40       1.0  0.47357927900012686  0.13045108760672972  0.7623677910121103  1.0000
  H   H41       1.0  0.504929553942631  0.0019841757326660003  0.3811313240197975  1.0000
  H   H42       1.0  0.495068598920014  0.9980162512014348  0.6188690129208396  1.0000
  H   H43       1.0  0.43695823416987867  0.08236519415059011  0.2842178750390616  1.0000
  H   H44       1.0  0.5630410107437385  0.917632440355469  0.7157824137018595  1.0000
  H   H45       1.0  0.9453472178908909  0.043310857499328406  0.19406203988598492  1.0000
  H   H46       1.0  0.054654307705824585  0.9566877107688613  0.8059383177740359  1.0000
  H   H47       1.0  0.9022155425910441  0.7095716457425284  0.31817114376958233  1.0000
  H   H48       1.0  0.09778374216725179  0.290427849583196  0.6818312376666001  1.0000
  H   H49       1.0  0.962146923238201  0.7065925110665179  0.2032070400481203  1.0000
  H   H50       1.0  0.0378500864675928  0.2934069828233703  0.7967939324449702  1.0000
  H   H51       1.0  0.7636301742238061  0.7128335844158614  0.2269023487530291  1.0000
  H   H52       1.0  0.23636683548198784  0.2871659094740339  0.7730986237400614  1.0000
  H   H53       1.0  0.720297784329311  0.9233630726353612  0.3449225296929086  1.0000
  H   H54       1.0  0.2797014978928729  0.0766373561117817  0.655077148078341  1.0000
  H   H55       1.0  0.8529384603118898  0.04673459845910342  0.3251929990805494  1.0000
  H   H56       1.0  0.147061945639237  0.9532648997747801  0.6748073595453191  1.0000
  H   H57       1.0  0.9049523817445148  0.91906399513195  0.3945194713901117  1.0000
  H   H58       1.0  0.09504575732081828  0.0809355005709804  0.6054808419335913  1.0000
  H   H59       1.0  0.2573044616302198  0.8155642012281066  0.0654352034052863  1.0000
  H   H60       1.0  0.7426948563532889  0.18443808888625315  0.9345658852407582  1.0000
  H   H61       1.0  0.5151674898257566  0.6366978960526312  0.957730183012501  1.0000
  H   H62       1.0  0.4848283823537898  0.3633015971193459  0.04227008500903649  1.0000
  H   H63       1.0  0.43780316249576856  0.6783571791165032  0.0658585899790651  1.0000
  H   H64       1.0  0.5621927331950402  0.32164417706537324  0.9341410434558741  1.0000
  H   H65       1.0  0.6109700850442294  0.7485591019142179  0.032247500596817205  1.0000
  H   H66       1.0  0.3890269205782103  0.25144039252323597  0.9677527900758065  1.0000
  H   H67       1.0  0.5942640916071298  0.8668587473039367  0.8859166782485204  1.0000
  H   H68       1.0  0.4057363639026264  0.13314354352834107  0.11408511486907713  1.0000
  H   H69       1.0  0.41914693795399666  0.9486733751846332  0.8674295544532882  1.0000
  H   H70       1.0  0.5808523841128662  0.051328914382168  0.1325722160132159  1.0000
  H   H71       1.0  0.4385269759987905  0.7924873796422676  0.8235491996408015  1.0000
  H   H72       1.0  0.5614734713442573  0.20751491228512722  0.17645122983586253  1.0000
  C   C1        1.0  0.8937330517465155  0.38145450252650204  0.3642106912210679  1.0000
  C   C2        1.0  0.1062673582879654  0.6185449951598231  0.6357903492252674  1.0000
  C   C3        1.0  0.632654021200274  0.33743155058795793  0.3966281157262728  1.0000
  C   C4        1.0  0.36734754170500844  0.6625698119213085  0.6033716309640695  1.0000
  C   C5        1.0  0.7480835062342237  0.5436519842091202  0.43916386480713504  1.0000
  C   C6        1.0  0.2519157402266359  0.4563465831707989  0.5608344020893199  1.0000
  C   C7        1.0  0.9978507605388457  0.37804271854795957  0.04151553000980359  1.0000
  C   C8        1.0  0.002150781949673304  0.6219586466991063  0.9584808075782122  1.0000
  C   C9        1.0  0.9239014915131133  0.4902749713193801  0.0877572322384168  1.0000
  C   C10       1.0  0.07610004942815611  0.5097254610538331  0.9122411271940649  1.0000
  C   C11       1.0  0.12954490715244296  0.4175396855322902  0.9836152791111061  1.0000
  C   C12       1.0  0.8704554962625791  0.5824607461230046  0.016382375849829597  1.0000
  C   C13       1.0  0.262802758569741  0.017071766929589706  0.37169187876094156  1.0000
  C   C14       1.0  0.7371987629436205  0.9829268018861584  0.6283077970786125  1.0000
  C   C15       1.0  0.23344998581911364  0.9080349668210916  0.4332568119658688  1.0000
  C   C16       1.0  0.7665481215682488  0.0919626669670564  0.5667427723035061  1.0000
  C   C17       1.0  0.233627615190997  0.785289230119439  0.376785417872064  1.0000
  C   C18       1.0  0.7663739104057186  0.21470933814875084  0.6232149397879496  1.0000
  C   C19       1.0  0.3827053280310934  0.7694375542975606  0.3279617084945414  1.0000
  C   C20       1.0  0.6172962292435854  0.23056287588541122  0.6720393782198002  1.0000
  C   C21       1.0  0.41653741673724903  0.8811456427518894  0.2695275883464348  1.0000
  C   C22       1.0  0.583465295944343  0.11885571883260582  0.7304749082768537  1.0000
  C   C23       1.0  0.4153721091177403  0.0028559579084373  0.3269875590430473  1.0000
  C   C24       1.0  0.5846283050000949  0.9971435392303293  0.6730141632237547  1.0000
  C   C25       1.0  0.9465551086132319  0.9412965084343416  0.1845200039736099  1.0000
  C   C26       1.0  0.05344189855645  0.05870391887695802  0.8154782648545478  1.0000
  C   C27       1.0  0.8785268683245633  0.743885541364584  0.2496905617995182  1.0000
  C   C28       1.0  0.12147236842234577  0.256112094236599  0.7503083633004765  1.0000
  C   C29       1.0  0.8391673070261234  0.9463490526816047  0.3337054221645062  1.0000
  C   C30       1.0  0.16083086780054148  0.053652304388542425  0.6662963020339846  1.0000
  C   C31       1.0  0.29025728988418814  0.858313078788008  0.001606994528700101  1.0000
  C   C32       1.0  0.7097408726924143  0.14168827992482855  0.9983926842083974  1.0000
  C   C33       1.0  0.4989426708577794  0.7130416004815175  0.008061564824359399  1.0000
  C   C34       1.0  0.5010554876354689  0.28695975877887764  0.9919374320922714  1.0000
  C   C35       1.0  0.4701886095452323  0.8583444094142012  0.8803385861102129  1.0000
  C   C36       1.0  0.5298118004892488  0.14165508827212392  0.1196624543361153  1.0000
  S   S1        1.0  0.059849848427362004  0.2697576004831036  0.1258364344470451  1.0000
  S   S2        1.0  0.9401517063112124  0.7302437631212799  0.8741619486023708  1.0000
  S   S3        1.0  0.25090386085876304  0.16416550899193547  0.43368688225522334  1.0000
  S   S4        1.0  0.7490942506119608  0.835832124248654  0.5663133838346184  1.0000
  S   S5        1.0  0.38009470106873516  0.628560567400733  0.2573792394257524  1.0000
  S   S6        1.0  0.6199057145963492  0.3714398626118865  0.7426204609965836  1.0000
  N   N1        1.0  0.7667213920710267  0.4180814194328308  0.4009474307359113  1.0000
  N   N2        1.0  0.23327904555807064  0.5819199407158352  0.5990536569442853  1.0000
  N   N3        1.0  0.890935727710726  0.8794213360291396  0.2530300170588617  1.0000
  N   N4        1.0  0.10906356267816619  0.12057909162287934  0.7469710243533214  1.0000
  N   N5        1.0  0.4145117639261215  0.8122663842993275  0.9652584653484125  1.0000
  N   N6        1.0  0.5854863930198775  0.1877340420872144  0.03474255341268421  1.0000
  O   O1        1.0  0.009482611460278201  0.4524222816704297  0.35870031144339987  1.0000
  O   O2        1.0  0.9905189279337421  0.5475772178289304  0.641300069833548  1.0000
  O   O3        1.0  0.1926524669572416  0.333466303397998  0.17570986484431467  1.0000
  O   O4        1.0  0.807350217140879  0.6665350620194206  0.8242878590357137  1.0000
  O   O5        1.0  0.9340518761308302  0.24730220392478233  0.18548988668835878  1.0000
  O   O6        1.0  0.0659485630455166  0.7527000890977364  0.8145091791473718  1.0000
  O   O7        1.0  0.1146428412778988  0.15746256503781814  0.0774314949913446  1.0000
  O   O8        1.0  0.8853564368609311  0.8425378642568835  0.9225675009594382  1.0000
  O   O9        1.0  0.2989916573595295  0.2575794146166999  0.3653903169419834  1.0000
  O   O10       1.0  0.7010053538935138  0.7424210121470481  0.6346086337066339  1.0000
  O   O11       1.0  0.3613579145249587  0.16339517255328673  0.5102299167806663  1.0000
  O   O12       1.0  0.6386425011401257  0.8366052574593327  0.4897697836416627  1.0000
  O   O13       1.0  0.0926987499226612  0.18036886903615112  0.457494870603071  1.0000
  O   O14       1.0  0.9072993712620132  0.8196296959831672  0.542504737283231  1.0000
  O   O15       1.0  0.2582941990956442  0.6379712834327407  0.18748979601461002  1.0000
  O   O16       1.0  0.7417073362150218  0.3620282166141778  0.812509903441871  1.0000
  O   O17       1.0  0.5319237852855848  0.6121806611069333  0.2230244477568206  1.0000
  O   O18       1.0  0.4680766262961383  0.3878197694532447  0.7769745708450486  1.0000
  O   O19       1.0  0.3451031929987066  0.5288967795125148  0.3248969519529438  1.0000
  O   O20       1.0  0.6548982707893173  0.4710989977999632  0.6750999257539548  1.0000
  O   O21       1.0  0.9966443748659161  0.8895663521503612  0.11322865255839082  1.0000
  O   O22       1.0  0.0033537739133749004  0.1104340753312982  0.8867710025617727  1.0000
  O   O23       1.0  0.2149268178136836  0.9444228468416399  0.966323083702882  1.0000
  O   O24       1.0  0.7850702332840382  0.05557944074176652  0.0336779596409968  1.0000
