data_image0
_chemical_formula_structural       Cd8H28C36N48Cl4O8
_chemical_formula_sum              "Cd8 H28 C36 N48 Cl4 O8"
_cell_length_a       9.048491786
_cell_length_b       10.588828179133037
_cell_length_c       15.5428
_cell_angle_alpha    90.0
_cell_angle_beta     90.0
_cell_angle_gamma    106.21000738576052

_space_group_name_H-M_alt    "P 1"
_space_group_IT_number       1

loop_
  _space_group_symop_operation_xyz
  'x, y, z'

loop_
  _atom_site_type_symbol
  _atom_site_label
  _atom_site_symmetry_multiplicity
  _atom_site_fract_x
  _atom_site_fract_y
  _atom_site_fract_z
  _atom_site_occupancy
  Cd  Cd1       1.0  0.2719612506490066  0.7014390341212788  0.3994897959183704  1.0000
  Cd  Cd2       1.0  0.2280386779502734  0.2985610937324523  0.8994897959183705  1.0000
  Cd  Cd3       1.0  0.7280391318380737  0.2985610937324523  0.6005102040816299  1.0000
  Cd  Cd4       1.0  0.7719617045367997  0.7014390341212788  0.1005102040816297  1.0000
  Cd  Cd5       1.0  0.61207622274339  0.9478957964907622  0.2654849834006754  1.0000
  Cd  Cd6       1.0  0.8879235084749268  0.0521043313629761  0.7654849834006754  1.0000
  Cd  Cd7       1.0  0.3879241597436831  0.0521043313629761  0.7345150165993248  1.0000
  Cd  Cd8       1.0  0.11207687401214629  0.9478957964907622  0.23451501659932467  1.0000
  H   H1        1.0  0.1325191002547825  0.4284516380507526  0.3202537509329062  1.0000
  H   H2        1.0  0.3674805070575005  0.5715475063127045  0.8202537509329064  1.0000
  H   H3        1.0  0.8674806396583038  0.5715465228224305  0.6797456056823705  1.0000
  H   H4        1.0  0.6325198754295727  0.42845262154103386  0.17974624906709386  1.0000
  H   H5        1.0  0.12613472669360704  0.46658844050572423  0.04500025735388392  1.0000
  H   H6        1.0  0.373865201905673  0.533411687348007  0.5450002573538839  1.0000
  H   H7        1.0  0.8738642293499268  0.5334107038577329  0.9549997426461163  1.0000
  H   H8        1.0  0.6261362857379567  0.46658844050572423  0.4549997426461161  1.0000
  H   H9        1.0  0.7586071109541307  0.1849955045151219  0.17344686928996114  1.0000
  H   H10       1.0  0.7413911938206397  0.8150036398483422  0.6734468692899611  1.0000
  H   H11       1.0  0.24139073993284646  0.8150036398483422  0.8265524873253227  1.0000
  H   H12       1.0  0.2586091886664335  0.18499648800539606  0.326553130710039  1.0000
  H   H13       1.0  0.1482929062255138  0.4774776448480297  0.518312659237715  1.0000
  H   H14       1.0  0.35170812753031555  0.5225224830057087  0.018312659237715006  1.0000
  H   H15       1.0  0.8517074762615592  0.5225224830057087  0.4816873407622851  1.0000
  H   H16       1.0  0.6482933601133141  0.4774776448480297  0.9816873407622853  1.0000
  H   H17       1.0  0.6004941762647321  0.08175557971160431  0.09516818076536993  1.0000
  H   H18       1.0  0.899505554953585  0.9182445481421269  0.5951681807653701  1.0000
  H   H19       1.0  0.3995062062223482  0.9182445481421269  0.9048324626193465  1.0000
  H   H20       1.0  0.1004948275334883  0.08175557971160431  0.4048318192346302  1.0000
  H   H21       1.0  0.44081430843959885  0.9728548127298284  0.11349949815991783  1.0000
  H   H22       1.0  0.05918562015968119  0.027145315123902905  0.613499498159918  1.0000
  H   H23       1.0  0.5591860740474814  0.027145315123902905  0.8865005018400822  1.0000
  H   H24       1.0  0.940814762327392  0.9728548127298284  0.38650050184008233  1.0000
  H   H25       1.0  0.05932424003503908  0.4299357248781135  0.4344777002856618  1.0000
  H   H26       1.0  0.44067647243380037  0.5700634194853437  0.9344770569009457  1.0000
  H   H27       1.0  0.9406769263215934  0.5700634194853437  0.5655222997143383  1.0000
  H   H28       1.0  0.5593235887662829  0.4299357248781135  0.0655222997143383  1.0000
  C   C1        1.0  0.8545965678289847  0.2461125407726783  0.3348386391126468  1.0000
  C   C2        1.0  0.6454031633893322  0.75388758708106  0.834838639112647  1.0000
  C   C3        1.0  0.145402709501532  0.75388758708106  0.6651613608873532  1.0000
  C   C4        1.0  0.3545980029673075  0.24611155728240425  0.16516071750263717  1.0000
  C   C5        1.0  0.9330141112090048  0.302243281327975  0.2560503898911364  1.0000
  C   C6        1.0  0.5669859412963021  0.6977578300160374  0.7560510332758599  1.0000
  C   C7        1.0  0.06698548740850897  0.6977578300160374  0.7439489667241406  1.0000
  C   C8        1.0  0.43301554634732753  0.3022422978376937  0.24394961010886365  1.0000
  C   C9        1.0  0.07299964012180742  0.4010388135716171  0.2595452556810898  1.0000
  C   C10       1.0  0.426999504607906  0.5989622977723954  0.7595458990658062  1.0000
  C   C11       1.0  0.9269988533391497  0.5989622977723954  0.7404541009341943  1.0000
  C   C12       1.0  0.5730019830357236  0.4010378300813429  0.2404541009341941  1.0000
  C   C13       1.0  0.14027724758189922  0.46226108328877313  0.1841264122294533  1.0000
  C   C14       1.0  0.3597223597303909  0.537738061074684  0.6841264122294604  1.0000
  C   C15       1.0  0.8597228136181839  0.537738061074684  0.815873587770547  1.0000
  C   C16       1.0  0.6402788066262489  0.46226108328877313  0.3158735877705468  1.0000
  C   C17       1.0  0.2854749528470037  0.565631812299074  0.18796934915202002  1.0000
  C   C18       1.0  0.2145246544652792  0.43436733206439027  0.6879693491520202  1.0000
  C   C19       1.0  0.7145251083530795  0.43436733206439027  0.8120306508479802  1.0000
  C   C20       1.0  0.7854757280217939  0.5656327957893481  0.31203065084798  1.0000
  C   C21       1.0  0.07437766013651269  0.41851838625728993  0.1038648120029819  1.0000
  C   C22       1.0  0.4256219471757774  0.5814807581061672  0.6038648120029819  1.0000
  C   C23       1.0  0.9256212959070212  0.5814807581061672  0.8961351879970183  1.0000
  C   C24       1.0  0.5743792191808623  0.41851838625728993  0.3961351879970181  1.0000
  C   C25       1.0  0.9413294614973325  0.313224933756274  0.09978189258048793  1.0000
  C   C26       1.0  0.5586702697209845  0.6867751940974642  0.5997825359652043  1.0000
  C   C27       1.0  0.05867013712018115  0.6867761775877383  0.900217464034796  1.0000
  C   C28       1.0  0.4413312179226451  0.313224933756274  0.4002181074195121  1.0000
  C   C29       1.0  0.8779426757720046  0.2515040344688941  0.0188087088555449  1.0000
  C   C30       1.0  0.6220581606028688  0.7484960933848441  0.5188080654708287  1.0000
  C   C31       1.0  0.12205881187162498  0.7484960933848441  0.9811919345291715  1.0000
  C   C32       1.0  0.37794222188420434  0.2515040344688941  0.4811912911444552  1.0000
  C   C33       1.0  0.8674642699563506  0.2604744492815882  0.17624044573693007  1.0000
  C   C34       1.0  0.6325332509488604  0.7395256785721502  0.6762410891216535  1.0000
  C   C35       1.0  0.1325327970610672  0.7395256785721502  0.8237589108783467  1.0000
  C   C36       1.0  0.36746713153821287  0.2604744492815882  0.3237589108783468  1.0000
  N   N1        1.0  0.8896349634364427  0.30198757385606  0.412172195486015  1.0000
  N   N2        1.0  0.6103669780949801  0.6980125539976711  0.9121721954860151  1.0000
  N   N3        1.0  0.11036652420718698  0.6980125539976711  0.5878278045139851  1.0000
  N   N4        1.0  0.38963450954864953  0.30198757385606  0.0878278045139851  1.0000
  N   N5        1.0  0.784735660366465  0.2274872019147907  0.4660511619527982  1.0000
  N   N6        1.0  0.7152651760084084  0.7725129259389406  0.9660511619527983  1.0000
  N   N7        1.0  0.2152647221206081  0.7725129259389406  0.5339488380472022  1.0000
  N   N8        1.0  0.2847352064786648  0.2274872019147907  0.03394883804720191  1.0000
  N   N9        1.0  0.6892762498734086  0.1298630065905542  0.42465707594513463  1.0000
  N   N10       1.0  0.8107245865014647  0.8701371212631842  0.9246570759451347  1.0000
  N   N11       1.0  0.31072523777022104  0.8701371212631842  0.5753429240548658  1.0000
  N   N12       1.0  0.1892746908290519  0.1298630065905542  0.07534292405486553  1.0000
  N   N13       1.0  0.7310413464143153  0.1389298034503526  0.3416746017448561  1.0000
  N   N14       1.0  0.7689583848040016  0.8610703244033858  0.841674601744856  1.0000
  N   N15       1.0  0.2689587147857679  0.8610693409131046  0.6583253982551442  1.0000
  N   N16       1.0  0.23104231897006847  0.1389307869406267  0.158325398255144  1.0000
  N   N17       1.0  0.3413385848348085  0.6491989811001417  0.2537657307563634  1.0000
  N   N18       1.0  0.15866134376447152  0.3508011467535965  0.7537657307563637  1.0000
  N   N19       1.0  0.6586617976522717  0.3508011467535965  0.7462342692436366  1.0000
  N   N20       1.0  0.8413390387226015  0.6491989811001417  0.24623426924363664  1.0000
  N   N21       1.0  0.4800031472843643  0.7219654596838013  0.22696039323673745  1.0000
  N   N22       1.0  0.019997102601905684  0.2780356516602183  0.7269603932367374  1.0000
  N   N23       1.0  0.5199964513331424  0.2780356516602183  0.7730396067632628  1.0000
  N   N24       1.0  0.9800032798851747  0.72196447619352  0.2730396067632627  1.0000
  N   N25       1.0  0.507600598683652  0.6836447445471024  0.14938492420927935  1.0000
  N   N26       1.0  0.9924005589782112  0.31635636679691  0.6493849242092795  1.0000
  N   N27       1.0  0.492400105090411  0.31635636679691  0.8506157191754371  1.0000
  N   N28       1.0  0.007600144795858897  0.6836447445471024  0.3506150757907208  1.0000
  N   N29       1.0  0.3878347373467506  0.5867591504205764  0.12319208894150083  1.0000
  N   N30       1.0  0.11216551253951933  0.41324196092343624  0.623192088941501  1.0000
  N   N31       1.0  0.6121659664273196  0.41324196092343624  0.8768079110584994  1.0000
  N   N32       1.0  0.8878348699475539  0.5867581669303021  0.3768079110584992  1.0000
  N   N33       1.0  0.9541546803588828  0.2513801146940438  0.9437746094654786  1.0000
  N   N34       1.0  0.5458461560159904  0.7486200131596874  0.44377460946547853  1.0000
  N   N35       1.0  0.04584570212819017  0.7486200131596874  0.05622539053452161  1.0000
  N   N36       1.0  0.4541542264710827  0.2513801146940438  0.5562253905345216  1.0000
  N   N37       1.0  0.8491679764343303  0.1742508732434729  0.890830480994417  1.0000
  N   N38       1.0  0.6508317547839866  0.8257492546102583  0.3908304809944171  1.0000
  N   N39       1.0  0.15083240605274276  0.8257492546102583  0.10916951900558303  1.0000
  N   N40       1.0  0.3491686277030865  0.1742508732434729  0.6091688756208669  1.0000
  N   N41       1.0  0.717424541071253  0.13072552756311503  0.931525851197982  1.0000
  N   N42       1.0  0.7825762953036203  0.8692746002906162  0.4315258511979821  1.0000
  N   N43       1.0  0.28257694657237653  0.8692746002906162  0.068474148802018  1.0000
  N   N44       1.0  0.2174240871834598  0.13072552756311503  0.5684735054173018  1.0000
  N   N45       1.0  0.7310339928530993  0.1762994834895935  0.0116677818668478  1.0000
  N   N46       1.0  0.7689668435217669  0.8237006443641449  0.5116677818668478  1.0000
  N   N47       1.0  0.2689663896339738  0.8237006443641449  0.9883322181331522  1.0000
  N   N48       1.0  0.2310346441218627  0.1762994834895935  0.4883322181331523  1.0000
  Cl  Cl1       1.0  0.3440700615788828  0.9433992789462381  0.3350824819208924  1.0000
  Cl  Cl2       1.0  0.15592986702039724  0.056600848907500306  0.8350824819208926  1.0000
  Cl  Cl3       1.0  0.6559303209081975  0.056600848907500306  0.6649175180791076  1.0000
  Cl  Cl4       1.0  0.8440705154666759  0.9433992789462381  0.16491751807910765  1.0000
  O   O1        1.0  0.5313750975512619  0.0360163974186634  0.14242221478755115  1.0000
  O   O2        1.0  0.9686257388236116  0.963983730435075  0.6424222147875513  1.0000
  O   O3        1.0  0.4686263900923677  0.963983730435075  0.8575777852124489  1.0000
  O   O4        1.0  0.0313746436634617  0.0360163974186634  0.357577785212449  1.0000
  O   O5        1.0  0.1602698690050275  0.4901853227117315  0.45444578840363203  1.0000
  O   O6        1.0  0.3397311647508019  0.5098148051420069  0.954445788403632  1.0000
  O   O7        1.0  0.8397305134820456  0.5098148051420069  0.5455542115963681  1.0000
  O   O8        1.0  0.6602692177362712  0.4901853227117315  0.04555421159636811  1.0000
