data_image0
_chemical_formula_structural       Sm2H18C9O24
_chemical_formula_sum              "Sm2 H18 C9 O24"
_cell_length_a       8.864733317019972
_cell_length_b       8.864729016160103
_cell_length_c       8.864724100137774
_cell_angle_alpha    66.05647029981087
_cell_angle_beta     66.05650192159908
_cell_angle_gamma    66.05644705576321

_space_group_name_H-M_alt    "P 1"
_space_group_IT_number       1

loop_
  _space_group_symop_operation_xyz
  'x, y, z'

loop_
  _atom_site_type_symbol
  _atom_site_label
  _atom_site_symmetry_multiplicity
  _atom_site_fract_x
  _atom_site_fract_y
  _atom_site_fract_z
  _atom_site_occupancy
  Sm  Sm1       1.0  0.2685992107501178  0.2685998570727719  0.26859809974895654  1.0000
  Sm  Sm2       1.0  0.7314003500346545  0.7313996968687918  0.7314007149095331  1.0000
  H   H1        1.0  0.27679130354859177  0.2151502842380993  0.6411160243655445  1.0000
  H   H2        1.0  0.6411166948051061  0.27679136608792737  0.21515031962731257  1.0000
  H   H3        1.0  0.21515085071877146  0.6411158765585724  0.2767898823681707  1.0000
  H   H4        1.0  0.35888313205277467  0.7848506076745994  0.7232094450048195  1.0000
  H   H5        1.0  0.7848500937870285  0.7232081354586344  0.35888477030459126  1.0000
  H   H6        1.0  0.7232099422415388  0.35888368776277707  0.7848508876051524  1.0000
  H   H7        1.0  0.45958531191379853  0.12634107467184214  0.5269295285984086  1.0000
  H   H8        1.0  0.5269302568026931  0.45958333931334766  0.126339487214743  1.0000
  H   H9        1.0  0.126340970118143  0.5269285468667562  0.45958361727674196  1.0000
  H   H10       1.0  0.4730727117895486  0.8736584915985546  0.5404156109630094  1.0000
  H   H11       1.0  0.8736591454256201  0.5404135858479224  0.47307272018894503  1.0000
  H   H12       1.0  0.5404172048419439  0.4730710505289296  0.8736570968154282  1.0000
  H   H13       1.0  0.3110039681917769  0.17293918103290915  0.9515368465736103  1.0000
  H   H14       1.0  0.9515369238211945  0.311004659992527  0.1729411015351803  1.0000
  H   H15       1.0  0.17293961670643662  0.9515363724917377  0.31100584953045285  1.0000
  H   H16       1.0  0.04846369867550492  0.8270591678276775  0.6889963350374726  1.0000
  H   H17       1.0  0.8270596793405217  0.6889973751633393  0.04846380258756254  1.0000
  H   H18       1.0  0.6889981312731592  0.04846320212691781  0.8270585213836127  1.0000
  C   C1        1.0  0.5000009924606488  0.9626955116560368  0.037304565861603585  1.0000
  C   C2        1.0  0.037304825773496524  0.5000004823690106  0.9626953368856944  1.0000
  C   C3        1.0  0.9626951907701482  0.037303985292510305  0.5000013255766547  1.0000
  C   C4        1.0  0.5826824696974882  0.9131251930459927  0.18345237956548743  1.0000
  C   C5        1.0  0.1834551183443551  0.5826795670761342  0.913126237525283  1.0000
  C   C6        1.0  0.9131272526384465  0.18345296635142466  0.5826807066340862  1.0000
  C   C7        1.0  0.8165450774793186  0.08687173287405163  0.4173224523601818  1.0000
  C   C8        1.0  0.08687242489173745  0.41732394933851674  0.8165432546147287  1.0000
  C   C9        1.0  0.4173265883659524  0.8165439718246505  0.08687227879612182  1.0000
  O   O1        1.0  0.37910224681024124  0.12473397946273933  0.03851728280719162  1.0000
  O   O2        1.0  0.03851830146942349  0.3791019457082357  0.12473383613497903  1.0000
  O   O3        1.0  0.12473379411818541  0.0385176241528455  0.3791020236680112  1.0000
  O   O4        1.0  0.9614833478556337  0.8752655327979257  0.6208985788156907  1.0000
  O   O5        1.0  0.8752658057316368  0.6208989111137841  0.9614830835491475  1.0000
  O   O6        1.0  0.6208993817456308  0.9614832534109611  0.8752645221586519  1.0000
  O   O7        1.0  0.3369016415178976  0.18073562335133891  0.5323061339001497  1.0000
  O   O8        1.0  0.5323092472148616  0.33690042474176357  0.18073190015412174  1.0000
  O   O9        1.0  0.18073148571242836  0.5323104486941332  0.336897183163849  1.0000
  O   O10       1.0  0.46769235088515876  0.8192691142574378  0.6630975789121506  1.0000
  O   O11       1.0  0.8192649416253133  0.6630990842664559  0.4676929479313828  1.0000
  O   O12       1.0  0.663098874823298  0.4676929917848582  0.8192670869367547  1.0000
  O   O13       1.0  0.4948296694378982  0.986931979934596  0.3011158657084962  1.0000
  O   O14       1.0  0.3011169507089022  0.494828825361907  0.9869295449946521  1.0000
  O   O15       1.0  0.9869336401104506  0.30111604875352077  0.4948291608138931  1.0000
  O   O16       1.0  0.6988859663655946  0.013064971231330002  0.5051691444664074  1.0000
  O   O17       1.0  0.013065686151016102  0.5051682380319918  0.698886569499784  1.0000
  O   O18       1.0  0.505169982340206  0.6988860204331857  0.013064772330970607  1.0000
  O   O19       1.0  0.7264724271401731  0.7984498822691963  0.1790524844790866  1.0000
  O   O20       1.0  0.17905270248202512  0.7264717238282827  0.7984492121879184  1.0000
  O   O21       1.0  0.7984504850488748  0.1790525463366563  0.726472707380502  1.0000
  O   O22       1.0  0.8209463403040047  0.20155346998389234  0.2735269430091733  1.0000
  O   O23       1.0  0.20155037486752292  0.27352404187902835  0.8209472904369973  1.0000
  O   O24       1.0  0.2735267286186271  0.8209457117795296  0.20155268865856618  1.0000
