data_image0
_chemical_formula_structural       AlH15C27O12
_chemical_formula_sum              "Al1 H15 C27 O12"
_cell_length_a       4.032378074560473
_cell_length_b       16.002799622569952
_cell_length_c       16.005111623116704
_cell_angle_alpha    119.81287802960942
_cell_angle_beta     90.54689445127204
_cell_angle_gamma    90.55505872984752

_space_group_name_H-M_alt    "P 1"
_space_group_IT_number       1

loop_
  _space_group_symop_operation_xyz
  'x, y, z'

loop_
  _atom_site_type_symbol
  _atom_site_label
  _atom_site_symmetry_multiplicity
  _atom_site_fract_x
  _atom_site_fract_y
  _atom_site_fract_z
  _atom_site_occupancy
  Al  Al1       1.0  6.893317488730326e-05  0.5013403271900073  0.49859846331984403  1.0000
  H   H1        1.0  0.49996386661283765  0.9233587333845673  0.07652973025336238  1.0000
  H   H2        1.0  0.5096848769920329  0.6548843140985665  0.07680600280414744  1.0000
  H   H3        1.0  0.490074624580295  0.9230085441822877  0.34490969026168006  1.0000
  H   H4        1.0  0.7995508465531387  0.05795493212288959  0.16902681936907266  1.0000
  H   H5        1.0  0.1660314190810652  0.05227404023730028  0.3838812476798735  1.0000
  H   H6        1.0  0.20031039206666176  0.8308742872776446  0.9419617785765266  1.0000
  H   H7        1.0  0.833920453052535  0.6159942818545616  0.9475827511750124  1.0000
  H   H8        1.0  0.8072963309718163  0.6134592037478794  0.16740606673256042  1.0000
  H   H9        1.0  0.19237870911118188  0.832438061134013  0.38635078603304135  1.0000
  H   H10       1.0  0.0193902195888569  0.2934618944585948  0.49636854838860955  1.0000
  H   H11       1.0  0.9633197529512074  0.2971255235407497  0.3016264688061128  1.0000
  H   H12       1.0  0.03683593700532839  0.6983371669467288  0.7028063054896022  1.0000
  H   H13       1.0  0.980743446709795  0.5035715647172195  0.7064276015515246  1.0000
  H   H14       1.0  0.8462762205991724  0.48654260666044985  0.29204344181790287  1.0000
  H   H15       1.0  0.1538551674308906  0.707904386076606  0.5133771901246005  1.0000
  C   C1        1.0  0.5108305351532678  0.5742440232674395  0.6498658368381882  1.0000
  C   C2        1.0  0.5000749173733894  0.5756322643089928  0.4243135561947468  1.0000
  C   C3        1.0  0.48930205892605033  0.3500601040757161  0.4257030801634584  1.0000
  C   C4        1.0  0.5113986695312677  0.7831389838788708  0.06463290238426815  1.0000
  C   C5        1.0  0.4999187953425164  0.8839656735405085  0.11590500248269812  1.0000
  C   C6        1.0  0.4884469420756759  0.9352350712673995  0.21671825749156431  1.0000
  C   C7        1.0  0.4875785139622551  0.8837077803150849  0.26637868338815457  1.0000
  C   C8        1.0  0.49978000062623107  0.7828110973010067  0.21699642511588013  1.0000
  C   C9        1.0  0.5120971847753353  0.7334351780053933  0.11612562578641658  1.0000
  C   C10       1.0  0.6623377987945177  0.19402649275757264  0.285880378314232  1.0000
  C   C11       1.0  0.6532428215650441  0.09385918107760459  0.23403911757635137  1.0000
  C   C12       1.0  0.4836211239503072  0.0416753909280416  0.2698260756712401  1.0000
  C   C13       1.0  0.3123455904935923  0.09072765265468516  0.3564864295376323  1.0000
  C   C14       1.0  0.3040590844418176  0.1909621382104091  0.40626411272562274  1.0000
  C   C15       1.0  0.4844991704197099  0.24325646130888848  0.3719675101006103  1.0000
  C   C16       1.0  0.346780466729804  0.7658904248458214  0.9060497363821085  1.0000
  C   C17       1.0  0.3377406238834269  0.7140637118591684  0.805895401663065  1.0000
  C   C18       1.0  0.5156174987792711  0.6279828682421781  0.7566629232209792  1.0000
  C   C19       1.0  0.6960673014531906  0.5936661348456339  0.8089220417621873  1.0000
  C   C20       1.0  0.6876883859276506  0.6434172818665329  0.9091472462219199  1.0000
  C   C21       1.0  0.516369349444716  0.7300825609339296  0.9582163436693634  1.0000
  C   C22       1.0  0.6662242596134221  0.6419779596465173  0.2333849691268737  1.0000
  C   C23       1.0  0.6751004787630563  0.5922881277377526  0.28395567592726667  1.0000
  C   C24       1.0  0.4999691826702632  0.6273405104283255  0.37256041029977627  1.0000
  C   C25       1.0  0.32476552002403025  0.7159325252814668  0.40757905731846467  1.0000
  C   C26       1.0  0.3334577555412821  0.7664680401534624  0.3578593463469274  1.0000
  C   C27       1.0  0.4997839422190681  0.729546085530579  0.2702968368569214  1.0000
  O   O1        1.0  0.2517718870981724  0.3932774815502994  0.40962272752125267  1.0000
  O   O2        1.0  0.27002409200974153  0.5151785370557177  0.6061038980871986  1.0000
  O   O3        1.0  0.2749869981181305  0.5932320046236228  0.48893004730172146  1.0000
  O   O4        1.0  0.7300995646076913  0.3938269826191742  0.4847499995132764  1.0000
  O   O5        1.0  0.7252332005210819  0.5110375988133739  0.4067319713286323  1.0000
  O   O6        1.0  0.7483825694351438  0.5903197050620008  0.6066518648621724  1.0000
  O   O7        1.0  0.12498595444400712  0.23530072668284419  0.48915240979354013  1.0000
  O   O8        1.0  0.8400171413803861  0.24225374583088669  0.24981836292448628  1.0000
  O   O9        1.0  0.1600322853197227  0.750136424869808  0.7577053190679094  1.0000
  O   O10       1.0  0.8751416162054612  0.5107774987186174  0.7645885506172048  1.0000
  O   O11       1.0  0.8468250348670452  0.5097001394224561  0.24519717072449498  1.0000
  O   O12       1.0  0.1531811074235279  0.7547281189014894  0.49018568648421723  1.0000
