data_image0
_chemical_formula_structural       Zn2H18C10S2N2O10
_chemical_formula_sum              "Zn2 H18 C10 S2 N2 O10"
_cell_length_a       5.305234125014406
_cell_length_b       8.90766763446134
_cell_length_c       9.216711166979794
_cell_angle_alpha    112.87773399928153
_cell_angle_beta     90.00010958249062
_cell_angle_gamma    90.00014100650789

_space_group_name_H-M_alt    "P 1"
_space_group_IT_number       1

loop_
  _space_group_symop_operation_xyz
  'x, y, z'

loop_
  _atom_site_type_symbol
  _atom_site_label
  _atom_site_symmetry_multiplicity
  _atom_site_fract_x
  _atom_site_fract_y
  _atom_site_fract_z
  _atom_site_occupancy
  Zn  Zn1       1.0  0.9443571108560105  0.6956340096459926  0.8970118922322075  1.0000
  Zn  Zn2       1.0  0.4443598046237085  0.30436876006185554  0.10298488084440295  1.0000
  H   H1        1.0  0.6974398149024097  0.5413607055101226  0.6539802792452182  1.0000
  H   H2        1.0  0.19744404098118903  0.45864503382772887  0.34602833084715473  1.0000
  H   H3        1.0  0.9953435567228793  0.48554247706080406  0.6069944225212469  1.0000
  H   H4        1.0  0.49534435332900967  0.5144617090226618  0.3930137523213448  1.0000
  H   H5        1.0  0.5008664528123674  0.8009241165771359  0.013600966075102973  1.0000
  H   H6        1.0  0.0008585054761595998  0.19908709464893803  0.9864009069605548  1.0000
  H   H7        1.0  0.6547713525834026  0.9676246399916624  0.06950961218704083  1.0000
  H   H8        1.0  0.1547515202633605  0.0323857859519023  0.9304866174088889  1.0000
  H   H9        1.0  0.6585609594199936  0.28279681861219064  0.6348113996456349  1.0000
  H   H10       1.0  0.1585676098023896  0.7172075309331803  0.36518365440525724  1.0000
  H   H11       1.0  0.9915019565759164  0.1238114568470436  0.6821362099692865  1.0000
  H   H12       1.0  0.49151616940752524  0.8761890204547315  0.3178608172348235  1.0000
  H   H13       1.0  0.19410866480409786  0.2960021966514361  0.7630331066269493  1.0000
  H   H14       1.0  0.6941213848013702  0.7039949895345572  0.23696906237677962  1.0000
  H   H15       1.0  0.03864927665907909  0.008952464091535701  0.24676128757009513  1.0000
  H   H16       1.0  0.5386501031325537  0.9910442609287743  0.7532406350751162  1.0000
  H   H17       1.0  0.8183099292386941  0.0487799515602205  0.39971299720303943  1.0000
  H   H18       1.0  0.3183144360460659  0.9512200306439385  0.6002881024687101  1.0000
  C   C1        1.0  0.726749071266063  0.3879041291110568  0.8818015544456944  1.0000
  C   C2        1.0  0.22675802203143286  0.6120712167827164  0.11819141365913308  1.0000
  C   C3        1.0  0.8141264554418867  0.35070808753199156  0.7121454811386843  1.0000
  C   C4        1.0  0.3141344712005888  0.6492906404659423  0.2878497245904087  1.0000
  C   C5        1.0  0.04697444625443129  0.23944929753974978  0.6748639238355026  1.0000
  C   C6        1.0  0.5469877231353307  0.7605498797995127  0.32513674587077207  1.0000
  C   C7        1.0  0.953676160441212  0.10751236389874921  0.3481045129788002  1.0000
  C   C8        1.0  0.4536808371991795  0.8924843504434038  0.6518921800267209  1.0000
  C   C9        1.0  0.8147133385663281  0.222629534028826  0.28871076679892843  1.0000
  C   C10       1.0  0.31471813019966527  0.7773679865692387  0.7112861596593876  1.0000
  S   S1        1.0  0.20200384084827755  0.1991487994514642  0.48849429101682784  1.0000
  S   S2        1.0  0.7020125054594074  0.8008532606920012  0.5115042714810728  1.0000
  N   N1        1.0  0.8601735109163755  0.5040269159627256  0.6918919027431729  1.0000
  N   N2        1.0  0.36017948718503584  0.495974422894605  0.30811297712280367  1.0000
  O   O1        1.0  0.7079566796556306  0.5331640948649579  0.9761607988511334  1.0000
  O   O2        1.0  0.20796677548153036  0.46683193725890965  0.023846372089941795  1.0000
  O   O3        1.0  0.646645828877709  0.8529022447795215  0.9863656544249795  1.0000
  O   O4        1.0  0.14662893917774508  0.1471045109910776  0.013631374777986595  1.0000
  O   O5        1.0  0.6749266471835256  0.26341772460396135  0.9155762849172506  1.0000
  O   O6        1.0  0.17491489867339277  0.7365805904483411  0.08441870021287215  1.0000
  O   O7        1.0  0.8696857042883221  0.36966904773120757  0.3325653734996764  1.0000
  O   O8        1.0  0.3697013265490057  0.6303298917519344  0.6674407875887669  1.0000
  O   O9        1.0  0.6342704640953939  0.15314414024116726  0.1890169479650937  1.0000
  O   O10       1.0  0.13426458521173154  0.846855244688932  0.8109719060174999  1.0000
