data_image0
_chemical_formula_structural       Cu4H32C56N48
_chemical_formula_sum              "Cu4 H32 C56 N48"
_cell_length_a       8.664387075339825
_cell_length_b       12.97865045631083
_cell_length_c       14.433003002047887
_cell_angle_alpha    100.05232827688687
_cell_angle_beta     89.99833225736356
_cell_angle_gamma    89.99917694308863

_space_group_name_H-M_alt    "P 1"
_space_group_IT_number       1

loop_
  _space_group_symop_operation_xyz
  'x, y, z'

loop_
  _atom_site_type_symbol
  _atom_site_label
  _atom_site_symmetry_multiplicity
  _atom_site_fract_x
  _atom_site_fract_y
  _atom_site_fract_z
  _atom_site_occupancy
  Cu  Cu1       1.0  0.5294858083633046  0.8248323555059257  0.39457993781395123  1.0000
  Cu  Cu2       1.0  0.029480985770781804  0.6751686981863899  0.10541773042891121  1.0000
  Cu  Cu3       1.0  0.47052336779722037  0.17516628554466965  0.605407291198148  1.0000
  Cu  Cu4       1.0  0.9705235734670765  0.3248291371398223  0.8945832282433843  1.0000
  H   H1        1.0  0.24587223868962846  0.6787611001370235  0.40136125667361716  1.0000
  H   H2        1.0  0.7458626171078676  0.821236268135955  0.09864036070509741  1.0000
  H   H3        1.0  0.7541253958710925  0.32122735095419597  0.598634752488934  1.0000
  H   H4        1.0  0.2541407878956151  0.17876391123411384  0.9013630475511578  1.0000
  H   H5        1.0  0.15822126282779436  0.5623642021967185  0.5104161067801131  1.0000
  H   H6        1.0  0.658215584226447  0.9376351612132723  0.9895896393538879  1.0000
  H   H7        1.0  0.8417821421368643  0.4376351911784794  0.48958925564510053  1.0000
  H   H8        1.0  0.3417889749831957  0.062363455458324786  0.0104121358426212  1.0000
  H   H9        1.0  0.335944788553725  0.5323937206397957  0.6409541475852196  1.0000
  H   H10       1.0  0.8359482464358267  0.9676063964499593  0.8590506901725664  1.0000
  H   H11       1.0  0.6640539997592043  0.4676127188231476  0.3590502515236552  1.0000
  H   H12       1.0  0.1640574668847208  0.0323914342190577  0.14095303918160346  1.0000
  H   H13       1.0  0.5928906981112975  0.6190156052076715  0.6556000554424986  1.0000
  H   H14       1.0  0.09289986205396872  0.8809862046521103  0.8444016767265056  1.0000
  H   H15       1.0  0.407098857238424  0.3809908505901162  0.34439464633069866  1.0000
  H   H16       1.0  0.9071046969925335  0.11901553391390957  0.15560544258676864  1.0000
  H   H17       1.0  0.8135669420565818  0.6874870567627195  0.6517579147261332  1.0000
  H   H18       1.0  0.3135900953603468  0.8125157169488658  0.8482414987272693  1.0000
  H   H19       1.0  0.1864249215811427  0.3125201815274181  0.34823691087537884  1.0000
  H   H20       1.0  0.6864133096492822  0.187482896243317  0.15176235450042705  1.0000
  H   H21       1.0  0.0599491771078178  0.7819720274568951  0.6382945804827218  1.0000
  H   H22       1.0  0.5599705955632501  0.7180231760694368  0.8617087602719241  1.0000
  H   H23       1.0  0.9400380698991598  0.21803050884329164  0.36170365809822164  1.0000
  H   H24       1.0  0.4400339636754538  0.2819723094087649  0.13829321219417784  1.0000
  H   H25       1.0  0.08410030967989712  0.896896268245733  0.5166528634449464  1.0000
  H   H26       1.0  0.5841137043996127  0.6030962700163868  0.9833468620071959  1.0000
  H   H27       1.0  0.9158880916301727  0.10309922896405507  0.48334218244648525  1.0000
  H   H28       1.0  0.4158885465563813  0.3968992166395892  0.016654417808226178  1.0000
  H   H29       1.0  0.851446957471815  0.9208960414296927  0.4183528812384624  1.0000
  H   H30       1.0  0.35144997875332246  0.5791006974041081  0.081648176941961  1.0000
  H   H31       1.0  0.1485460606338336  0.07909633617959597  0.5816354351443991  1.0000
  H   H32       1.0  0.6485511180079657  0.4208955694425852  0.9183546120822828  1.0000
  C   C1        1.0  0.6184897910807267  0.6227379274008128  0.22281299432691534  1.0000
  C   C2        1.0  0.1184930570484823  0.8772728779348925  0.27719366886116603  1.0000
  C   C3        1.0  0.3815066890095481  0.37727243391529436  0.7771864826728392  1.0000
  C   C4        1.0  0.8814999606674759  0.1227312221799082  0.7228055100383983  1.0000
  C   C5        1.0  0.4931263555863694  0.5587416360648731  0.23864509306696396  1.0000
  C   C6        1.0  0.9931293430461922  0.9412633744963158  0.2613603409779088  1.0000
  C   C7        1.0  0.5068724328025169  0.44127107508384  0.7613533701163677  1.0000
  C   C8        1.0  0.0068717535731864  0.05873914892531219  0.7386455168736179  1.0000
  C   C9        1.0  0.5440906538933847  0.0010887435700865998  0.2758312226078702  1.0000
  C   C10       1.0  0.0440950127128446  0.49892327814413306  0.22417125301006993  1.0000
  C   C11       1.0  0.45590120977617943  0.9989231967408256  0.7241601900594149  1.0000
  C   C12       1.0  0.9559060840696674  0.5010761233830792  0.7758292607246917  1.0000
  C   C13       1.0  0.48140293104755477  0.9434498911324024  0.1922699555070153  1.0000
  C   C14       1.0  0.9814108323126547  0.5565646683343317  0.30773580902314285  1.0000
  C   C15       1.0  0.5185796995166427  0.0565534393300737  0.8077214802371346  1.0000
  C   C16       1.0  0.0185844934848873  0.4434394166542219  0.6922723746066455  1.0000
  C   C17       1.0  0.3196904242459695  0.6644496687613073  0.4585925181097182  1.0000
  C   C18       1.0  0.8196901898612198  0.8355420095500887  0.041412451315395095  1.0000
  C   C19       1.0  0.6802991311158026  0.33553877192249365  0.5414097251916277  1.0000
  C   C20       1.0  0.18031552343111204  0.16445660246431254  0.9585920945629954  1.0000
  C   C21       1.0  0.27146004055983747  0.5990516241773562  0.5197733822976432  1.0000
  C   C22       1.0  0.7714579162809729  0.900940740494285  0.9802348198159552  1.0000
  C   C23       1.0  0.7285364395371801  0.4009399383546394  0.4802342050526321  1.0000
  C   C24       1.0  0.22854548870658686  0.09905708786539688  0.019770294907409905  1.0000
  C   C25       1.0  0.37053068609750284  0.5828172054913096  0.5917433804577501  1.0000
  C   C26       1.0  0.8705316963006952  0.9171824452057964  0.9082635504587417  1.0000
  C   C27       1.0  0.6294657939114999  0.4171861004689034  0.4082626012899199  1.0000
  C   C28       1.0  0.1294728628136923  0.0828169481616996  0.09174181195516702  1.0000
  C   C29       1.0  0.5140819500811203  0.6315241543537836  0.5999597450451264  1.0000
  C   C30       1.0  0.0140840731335743  0.8684724406995625  0.9000466963357783  1.0000
  C   C31       1.0  0.48591106753150376  0.36847210557261423  0.4000472000980154  1.0000
  C   C32       1.0  0.9859158694268686  0.13152617251573417  0.09995715692583933  1.0000
  C   C33       1.0  0.5548635084299177  0.6966199321669108  0.5365589973305448  1.0000
  C   C34       1.0  0.054867430294891106  0.8033761137465945  0.9634494157907698  1.0000
  C   C35       1.0  0.4451341258511975  0.30336928283411174  0.4634482184556462  1.0000
  C   C36       1.0  0.9451348205085779  0.19662406214406047  0.036556070496672505  1.0000
  C   C37       1.0  0.7022892871940416  0.7530142002234753  0.5399350754479358  1.0000
  C   C38       1.0  0.20229459123620333  0.7469853502904725  0.9600740871501972  1.0000
  C   C39       1.0  0.2977164261457972  0.2469765820638727  0.4600710026143846  1.0000
  C   C40       1.0  0.7977111219714886  0.25301560576008336  0.0399329083008482  1.0000
  C   C41       1.0  0.8240877006833713  0.7394720470163277  0.6003182323094196  1.0000
  C   C42       1.0  0.3240979446883685  0.7605290108409547  0.8996869615202743  1.0000
  C   C43       1.0  0.1759145502832382  0.2605250069799112  0.39968190986126484  1.0000
  C   C44       1.0  0.6759054602648294  0.23947116504199772  0.10031852475587043  1.0000
  C   C45       1.0  0.9625125701615148  0.7919036159571958  0.5928891220923236  1.0000
  C   C46       1.0  0.462529358288478  0.7080932415604622  0.9071157589875727  1.0000
  C   C47       1.0  0.03748044770865281  0.20809109522689076  0.40710787792284736  1.0000
  C   C48       1.0  0.5374728925828763  0.29190458913166845  0.0928879704005041  1.0000
  C   C49       1.0  0.97635406195365  0.8565495972537035  0.5257064750087823  1.0000
  C   C50       1.0  0.47635745216139486  0.6434423781830743  0.9742987772802822  1.0000
  C   C51       1.0  0.023655113980907996  0.14344041180174827  0.4742939377823349  1.0000
  C   C52       1.0  0.5236436445831388  0.35655388750124234  0.02570470441725802  1.0000
  C   C53       1.0  0.8490306315034887  0.8691690188943682  0.469955958248157  1.0000
  C   C54       1.0  0.3490269548362265  0.6308277475952478  0.03004791802832326  1.0000
  C   C55       1.0  0.15098431526797645  0.13082412945256996  0.5300394085037754  1.0000
  C   C56       1.0  0.6509752960298202  0.3691692994267585  0.9699563801821258  1.0000
  N   N1        1.0  0.645173828938418  0.7208550628516192  0.2703882236441687  1.0000
  N   N2        1.0  0.14517344020750764  0.7791522492421733  0.22962157745949702  1.0000
  N   N3        1.0  0.35483073021141825  0.27915451590280327  0.7296111294255214  1.0000
  N   N4        1.0  0.8548149609103746  0.2208495010554259  0.770378615279107  1.0000
  N   N5        1.0  0.7770324786750678  0.7501353956198923  0.2364431049862716  1.0000
  N   N6        1.0  0.2770333872046963  0.7498678061602531  0.2635651267085848  1.0000
  N   N7        1.0  0.2229755429088911  0.24986948225301123  0.7635589683104345  1.0000
  N   N8        1.0  0.7229596307043026  0.2501276910187115  0.7364299191376278  1.0000
  N   N9        1.0  0.8258277538314047  0.6719733758762629  0.17050614561194524  1.0000
  N   N10       1.0  0.3258318590148122  0.8280323032809916  0.32950231819992853  1.0000
  N   N11       1.0  0.1741768052645369  0.3280307160248839  0.8294978818876262  1.0000
  N   N12       1.0  0.674175008567481  0.17196475184680074  0.6704971312522405  1.0000
  N   N13       1.0  0.730119877433296  0.5905084761634285  0.15961068353093574  1.0000
  N   N14       1.0  0.2301182320398638  0.9095031886695182  0.34039277901119663  1.0000
  N   N15       1.0  0.2698777567405131  0.40949953064747996  0.8403925779445062  1.0000
  N   N16       1.0  0.7698782482037815  0.09050013356389999  0.6596035053103506  1.0000
  N   N17       1.0  0.3928772062152888  0.5029760669908115  0.25129966965110384  1.0000
  N   N18       1.0  0.892871522273481  0.9970357665924252  0.2487044393362865  1.0000
  N   N19       1.0  0.6071204279073967  0.49703428618099116  0.7487046560504071  1.0000
  N   N20       1.0  0.1071191870002579  0.0029769399607389  0.7512967946193642  1.0000
  N   N21       1.0  0.5776190540562851  0.9641349906671263  0.3559062363357342  1.0000
  N   N22       1.0  0.0776188313979489  0.5358677620744956  0.14409432382220191  1.0000
  N   N23       1.0  0.42238665943463627  0.0358706848397858  0.6440869560816654  1.0000
  N   N24       1.0  0.9223799571247753  0.46413007561498176  0.8559052495600243  1.0000
  N   N25       1.0  0.6388125057092253  0.045598951211665906  0.4142693653038308  1.0000
  N   N26       1.0  0.13880029382832504  0.45440320187480404  0.0857278144385631  1.0000
  N   N27       1.0  0.361205903472012  0.9544106437235129  0.5857202902040727  1.0000
  N   N28       1.0  0.8611961864010881  0.5455930696521989  0.9142722039377207  1.0000
  N   N29       1.0  0.6424967207208994  0.1273967982361413  0.37078469015301624  1.0000
  N   N30       1.0  0.14248532487697224  0.37260530798132413  0.12921103205881934  1.0000
  N   N31       1.0  0.3575113013208764  0.8726088946909414  0.6291981121423548  1.0000
  N   N32       1.0  0.8575123094625001  0.6273925273911088  0.8707899266813045  1.0000
  N   N33       1.0  0.582845706243333  0.102599970576648  0.2840370440698622  1.0000
  N   N34       1.0  0.0828468855744475  0.39740683985235126  0.21596323656569896  1.0000
  N   N35       1.0  0.4171438494371317  0.897403374950443  0.7159453868536193  1.0000
  N   N36       1.0  0.9171553652960611  0.6025933406877897  0.7840394790285716  1.0000
  N   N37       1.0  0.4303963236556855  0.899493089419245  0.12127444725513936  1.0000
  N   N38       1.0  0.9304009909616439  0.6005174548540849  0.37873226612443034  1.0000
  N   N39       1.0  0.569593231800745  0.10051180717489668  0.8787165434497342  1.0000
  N   N40       1.0  0.0696081849351771  0.39948430111670047  0.6212644630442057  1.0000
  N   N41       1.0  0.4575482840288246  0.7120556881394933  0.4666222120951817  1.0000
  N   N42       1.0  0.9575471590472449  0.7879427618596891  0.03337864828760933  1.0000
  N   N43       1.0  0.5424516588738086  0.28793903229735207  0.533369246465803  1.0000
  N   N44       1.0  0.0424562459456226  0.21205585017012396  0.9666258976133835  1.0000
  N   N45       1.0  0.7153585245450529  0.8192782090570319  0.47732779961815214  1.0000
  N   N46       1.0  0.21536451404547563  0.6807234813666625  0.022673649297622875  1.0000
  N   N47       1.0  0.2846379558237402  0.1807188554390748  0.5226661085494089  1.0000
  N   N48       1.0  0.7846388909588526  0.3192743481553889  0.9773307727524527  1.0000
