data_image0
_chemical_formula_structural       Zn2P6H42C38N4O18
_chemical_formula_sum              "Zn2 P6 H42 C38 N4 O18"
_cell_length_a       9.76094568183683
_cell_length_b       10.787051697696594
_cell_length_c       12.6341
_cell_angle_alpha    105.01006642038925
_cell_angle_beta     102.02461305549512
_cell_angle_gamma    114.95662739894931

_space_group_name_H-M_alt    "P 1"
_space_group_IT_number       1

loop_
  _space_group_symop_operation_xyz
  'x, y, z'

loop_
  _atom_site_type_symbol
  _atom_site_label
  _atom_site_symmetry_multiplicity
  _atom_site_fract_x
  _atom_site_fract_y
  _atom_site_fract_z
  _atom_site_occupancy
  Zn  Zn1       1.0  0.33328895564692124  0.543794580642377  0.8765682509032261  1.0000
  Zn  Zn2       1.0  0.6667110722962803  0.45620440951800123  0.1234316094436778  1.0000
  P   P1        1.0  0.671162212753643  0.7815974232410028  0.5193300163425861  1.0000
  P   P2        1.0  0.3288384260221946  0.2184026779762789  0.48067018800391287  1.0000
  P   P3        1.0  0.283765670085856  0.33145605125488226  0.03867383408096706  1.0000
  P   P4        1.0  0.7162345320482472  0.6685451610193098  0.9613265456693654  1.0000
  P   P5        1.0  0.9577663714569482  0.7936968329390339  0.3071452596720194  1.0000
  P   P6        1.0  0.042234703960630796  0.2063021572213444  0.6928547692706531  1.0000
  H   H1        1.0  0.3503036149369691  0.4303078951707348  0.3388124148350898  1.0000
  H   H2        1.0  0.6496949288901206  0.5696922060465468  0.6611866608111612  1.0000
  H   H3        1.0  0.020317891327295005  0.4815409511850319  0.09449107977218317  1.0000
  H   H4        1.0  0.9796816999741721  0.5184591500322497  0.9055089559785473  1.0000
  H   H5        1.0  0.3068714420470399  0.8208343978494526  0.44329105875984  1.0000
  H   H6        1.0  0.6931291967287975  0.1791657033678291  0.5567091455866588  1.0000
  H   H7        1.0  0.45714065430900763  0.60483271384539  0.5566339595440581  1.0000
  H   H8        1.0  0.5428604211085641  0.3951662763149884  0.4433660693986212  1.0000
  H   H9        1.0  0.4609503961750788  0.7767876578982323  0.587333573850934  1.0000
  H   H10       1.0  0.5390502426007586  0.22321244331905626  0.41266663049556485  1.0000
  H   H11       1.0  0.019239405289120312  0.2418182022541515  0.0474871336761922  1.0000
  H   H12       1.0  0.9807595751797037  0.7581807879062268  0.9525125580749289  1.0000
  H   H13       1.0  0.14782452067493781  0.2190926443144363  0.1541422124031087  1.0000
  H   H14       1.0  0.8521761181008997  0.7809074569028525  0.8458572004346936  1.0000
  H   H15       1.0  0.014448713700211635  0.7034345699575653  0.1405817932771996  1.0000
  H   H16       1.0  0.9855508776012485  0.2965655312597164  0.8594174509648272  1.0000
  H   H17       1.0  0.1858939981234613  0.8633212139057207  0.2543078238898531  1.0000
  H   H18       1.0  0.81410602981974  0.1366777762546576  0.7456920364570436  1.0000
  H   H19       1.0  0.4818969182545558  0.688825282710603  0.1528596027071174  1.0000
  H   H20       1.0  0.5181037205212817  0.3111748185066787  0.8471406016393815  1.0000
  H   H21       1.0  0.5382146421296027  0.9171785863301877  0.3112855551483804  1.0000
  H   H22       1.0  0.46178599664623476  0.0828215148870939  0.6887146491981255  1.0000
  H   H23       1.0  0.44422669975910617  0.0845925395940412  0.2507658158685402  1.0000
  H   H24       1.0  0.5557722807097178  0.9154064505663371  0.7492338758825812  1.0000
  H   H25       1.0  0.3086440869374981  0.0189812961690734  0.04030846761801141  1.0000
  H   H26       1.0  0.6913565518383392  0.9810188050482153  0.9596917367284873  1.0000
  H   H27       1.0  0.1945132456119224  0.9476726541513258  0.8640245512448601  1.0000
  H   H28       1.0  0.805486782331279  0.0523263360090525  0.1359761006107334  1.0000
  H   H29       1.0  0.08425971432559008  0.8644778241440747  0.6463884872284851  1.0000
  H   H30       1.0  0.9157398769758697  0.135522277073207  0.35361234003093495  1.0000
  H   H31       1.0  0.08458362734227619  0.6432130635798998  0.5201995057493889  1.0000
  H   H32       1.0  0.9154159639591838  0.3567870376373818  0.4798013215100312  1.0000
  H   H33       1.0  0.18580334796989456  0.5072796954517571  0.6186664699603668  1.0000
  H   H34       1.0  0.8141972908059429  0.4927204057655246  0.3813337343861322  1.0000
  H   H35       1.0  0.7286397104349831  0.6593978295184897  0.3778074188645348  1.0000
  H   H36       1.0  0.2713603175082184  0.3406011606418886  0.6221924414823619  1.0000
  H   H37       1.0  0.8961003673125063  0.9404141193894162  0.6820155666194694  1.0000
  H   H38       1.0  0.1038996606306952  0.0595848707709621  0.31798429372742737  1.0000
  H   H39       1.0  0.16538069915723946  0.14322745671103118  0.8639113529517317  1.0000
  H   H40       1.0  0.8346199396185978  0.8567726445062573  0.1360888513947741  1.0000
  H   H41       1.0  0.15006148851661288  0.9596642913295526  0.4817882207816169  1.0000
  H   H42       1.0  0.8499374919522111  0.040334698830825695  0.5182114709695044  1.0000
  C   C1        1.0  0.29397503201517583  0.49398478852369004  0.31948303278601037  1.0000
  C   C2        1.0  0.7060256067606616  0.5060153126935987  0.6805171715604957  1.0000
  C   C3        1.0  0.1789227283705515  0.4389474736658627  0.20750435422961291  1.0000
  C   C4        1.0  0.8210768629309085  0.5610526275514259  0.7924964730298073  1.0000
  C   C5        1.0  0.10856973615138091  0.5223234059486686  0.1822247926534999  1.0000
  C   C6        1.0  0.8914298551500792  0.47767669526862017  0.8177752430972306  1.0000
  C   C7        1.0  0.15242645856354636  0.6591411753733851  0.2666403481436959  1.0000
  C   C8        1.0  0.847574180212291  0.3408589258439036  0.7333598562028031  1.0000
  C   C9        1.0  0.26905967120023894  0.7126318990191223  0.3778167576976302  1.0000
  C   C10       1.0  0.7309403567429555  0.28736709114125597  0.6221815196318801  1.0000
  C   C11       1.0  0.33991724121376166  0.6305014615270821  0.4049678919977495  1.0000
  C   C12       1.0  0.6600817392550624  0.36949752863329616  0.5950310082446748  1.0000
  C   C13       1.0  0.4693021266078929  0.6920929010689036  0.5232917756967197  1.0000
  C   C14       1.0  0.5306985121679446  0.30790720014837797  0.4767076371410895  1.0000
  C   C15       1.0  0.14083778266634536  0.2970277309322924  0.11485896756044407  1.0000
  C   C16       1.0  0.8591628561094921  0.7029723702849893  0.885140445277365  1.0000
  C   C17       1.0  0.08554420405985749  0.7524044030558983  0.235128461749575  1.0000
  C   C18       1.0  0.91445643471598  0.2475956981613905  0.7648717425969238  1.0000
  C   C19       1.0  0.44633949976984155  0.7654404337250469  0.1319815887101186  1.0000
  C   C20       1.0  0.5536611390059959  0.23455966749224189  0.8680186156363874  1.0000
  C   C21       1.0  0.4759123529301802  0.8926775594558976  0.21983053791501553  1.0000
  C   C22       1.0  0.5240882858456573  0.1073225417613841  0.7801696664314832  1.0000
  C   C23       1.0  0.4242753388251188  0.9837331170677076  0.18591276722412436  1.0000
  C   C24       1.0  0.5757252999507186  0.0162669841495742  0.8140866456136848  1.0000
  C   C25       1.0  0.3469708023223958  0.9470682391948769  0.06734701281453684  1.0000
  C   C26       1.0  0.6530298364534417  0.0529318620224046  0.9326524000232724  1.0000
  C   C27       1.0  0.3239239567294234  0.8184445144462913  0.9842975320690855  1.0000
  C   C28       1.0  0.6760777295207915  0.1815555867709975  0.0157036323818858  1.0000
  C   C29       1.0  0.2493498027665666  0.7719801146692689  0.8558359486925937  1.0000
  C   C30       1.0  0.7506503993675296  0.2280210976049162  0.14416443105773882  1.0000
  C   C31       1.0  0.18990221748524044  0.8499929752704958  0.8073694068061245  1.0000
  C   C32       1.0  0.8100979846488556  0.15000823700368926  0.19263176445289784  1.0000
  C   C33       1.0  0.12841231441375098  0.8036052384199408  0.6857576353410337  1.0000
  C   C34       1.0  0.871587276887709  0.1963948627973409  0.3142431919183863  1.0000
  C   C35       1.0  0.1275197236268752  0.679994602427783  0.6154210682975716  1.0000
  C   C36       1.0  0.8724809151489622  0.32000549878950574  0.3845791360489272  1.0000
  C   C37       1.0  0.18540500734297174  0.6054426840863627  0.669498770115105  1.0000
  C   C38       1.0  0.8145939731258522  0.3945563060740156  0.33050092163601613  1.0000
  N   N1        1.0  0.37315072619455236  0.7304221421857804  0.017793635581973877  1.0000
  N   N2        1.0  0.6268499125812852  0.2695779590315084  0.9822065687645251  1.0000
  N   N3        1.0  0.2444444808415938  0.6500482856609224  0.7867499790061103  1.0000
  N   N4        1.0  0.7555555471016006  0.3499507044994559  0.21324988134078637  1.0000
  O   O1        1.0  0.6967630595493262  0.8987461522723024  0.46895452972981394  1.0000
  O   O2        1.0  0.3032365317521339  0.1012539489449793  0.5310447145122126  1.0000
  O   O3        1.0  0.6885591739307131  0.6502716080988762  0.4461723546173389  1.0000
  O   O4        1.0  0.3114408540124884  0.3497273820615021  0.5538275057295579  1.0000
  O   O5        1.0  0.7839780641639037  0.8446710126944124  0.6521074284726254  1.0000
  O   O6        1.0  0.2160231854445698  0.1553301995797796  0.3478931198734756  1.0000
  O   O7        1.0  0.260281658961226  0.4238148786165326  0.9718902921274264  1.0000
  O   O8        1.0  0.7397179323402412  0.5761852226007562  0.028109743623296896  1.0000
  O   O9        1.0  0.2342617619533556  0.17159162844482975  0.9487612780726238  1.0000
  O   O10       1.0  0.765738876822482  0.8284084727724519  0.051238926273875114  1.0000
  O   O11       1.0  0.450757126642948  0.3982072390646252  0.1305738713559563  1.0000
  O   O12       1.0  0.5492430754911553  0.601793973209567  0.8694265083943763  1.0000
  O   O13       1.0  0.7957262382557745  0.6539925376745117  0.2771141070141637  1.0000
  O   O14       1.0  0.2042748371617975  0.3460064524858666  0.7228867134372052  1.0000
  O   O15       1.0  0.04480321009780402  0.8553549358951713  0.4442092838325635  1.0000
  O   O16       1.0  0.9551974286780334  0.1446451653221104  0.5557909205139425  1.0000
  O   O17       1.0  0.9423026820872733  0.9131254507398835  0.2688453455913518  1.0000
  O   O18       1.0  0.0576969092141866  0.0868746504773981  0.7311554816680683  1.0000
