data_image0
_chemical_formula_structural       Cs4H28C24O28
_chemical_formula_sum              "Cs4 H28 C24 O28"
_cell_length_a       5.054003621020639
_cell_length_b       9.405100139066716
_cell_length_c       19.62563817933837
_cell_angle_alpha    90.00038985713543
_cell_angle_beta     90.00043123747058
_cell_angle_gamma    89.99987186811774

_space_group_name_H-M_alt    "P 1"
_space_group_IT_number       1

loop_
  _space_group_symop_operation_xyz
  'x, y, z'

loop_
  _atom_site_type_symbol
  _atom_site_label
  _atom_site_symmetry_multiplicity
  _atom_site_fract_x
  _atom_site_fract_y
  _atom_site_fract_z
  _atom_site_occupancy
  Cs  Cs1       1.0  0.8107194289765615  0.9897754250097677  0.19111859232940984  1.0000
  Cs  Cs2       1.0  0.31071841782475934  0.5102233024987014  0.6911251155704645  1.0000
  Cs  Cs3       1.0  0.8107325371620178  0.4897687713123987  0.30887695212724947  1.0000
  Cs  Cs4       1.0  0.3107236114609718  0.010223028317106796  0.8088824562989598  1.0000
  H   H1        1.0  0.22369631598301956  0.3946295447220932  0.9890800084668281  1.0000
  H   H2        1.0  0.7236908856481534  0.1053817721941996  0.4890777552673241  1.0000
  H   H3        1.0  0.2237119153885274  0.894618920492199  0.5109221581810175  1.0000
  H   H4        1.0  0.7236886773734527  0.6053743377311704  0.010919395437603896  1.0000
  H   H5        1.0  0.9600885100256563  0.3313666718963333  0.041444963708741483  1.0000
  H   H6        1.0  0.4600888703643379  0.1686373322913965  0.5414443939866159  1.0000
  H   H7        1.0  0.960095546914161  0.8313630538357016  0.45855991117212347  1.0000
  H   H8        1.0  0.4600820567528245  0.6686422202358882  0.958555265154963  1.0000
  H   H9        1.0  0.6635371032016053  0.3663835513651748  0.12872861251872786  1.0000
  H   H10       1.0  0.16352374745933673  0.13362943906779629  0.6287365833421246  1.0000
  H   H11       1.0  0.6635289221973438  0.8663734581851799  0.37126579750781  1.0000
  H   H12       1.0  0.16352150227685772  0.6336182826073795  0.8712702015703254  1.0000
  H   H13       1.0  0.21752429716341481  0.6088655598307824  0.046259570642646984  1.0000
  H   H14       1.0  0.7175567250234636  0.8911409345329416  0.54625228814011  1.0000
  H   H15       1.0  0.21751327902156703  0.10886082935986958  0.45374099309400134  1.0000
  H   H16       1.0  0.7175259207669455  0.3911447101657116  0.9537439013444452  1.0000
  H   H17       1.0  0.9714466383554309  0.5560887794609782  0.1054244274535776  1.0000
  H   H18       1.0  0.47149145244852514  0.9438969060596066  0.6054268518097172  1.0000
  H   H19       1.0  0.971465010105483  0.05608113692525761  0.3945677872884729  1.0000
  H   H20       1.0  0.4714583798825274  0.4439052123777997  0.8945742879385531  1.0000
  H   H21       1.0  0.339977513922058  0.6890212188007042  0.2504202862392261  1.0000
  H   H22       1.0  0.8399627618329932  0.8109750682192497  0.7504127253389183  1.0000
  H   H23       1.0  0.3399586694718836  0.18902547363762073  0.24958020970507983  1.0000
  H   H24       1.0  0.8399637039402138  0.31097932313466  0.7495864063323834  1.0000
  H   H25       1.0  0.5428615367154208  0.06886027820802099  0.9790341225554965  1.0000
  H   H26       1.0  0.04283974549591821  0.43114795011326384  0.47903029531839525  1.0000
  H   H27       1.0  0.5428715852566343  0.5688561668487323  0.5209647909997981  1.0000
  H   H28       1.0  0.0428537514973115  0.9311406490603532  0.02097115451120859  1.0000
  C   C1        1.0  0.26480801098851  0.1819491458596474  0.024860321115696093  1.0000
  C   C2        1.0  0.7648110395571236  0.3180655239422165  0.5248594088060655  1.0000
  C   C3        1.0  0.26481568351285023  0.6819372419096441  0.4751375022751174  1.0000
  C   C4        1.0  0.7647989258162227  0.8180642525509612  0.9751391376586012  1.0000
  C   C5        1.0  0.17524525113018544  0.33246334924263715  0.03461358134249079  1.0000
  C   C6        1.0  0.6752508350783942  0.16754199692319818  0.5346121463426953  1.0000
  C   C7        1.0  0.17525650710313556  0.832469391139874  0.46538974063190586  1.0000
  C   C8        1.0  0.6752521980001163  0.6675491021135684  0.9653934010030552  1.0000
  C   C9        1.0  0.29981882666188403  0.4096994369475837  0.09706527090080636  1.0000
  C   C10       1.0  0.7998345996909748  0.09030870326702711  0.5970630581650125  1.0000
  C   C11       1.0  0.2998177955116219  0.9096865744351843  0.40293848545805827  1.0000
  C   C12       1.0  0.7998612693380522  0.5902979672390813  0.9029357632068622  1.0000
  C   C13       1.0  0.18606712179166607  0.5616989517035547  0.09648203841118887  1.0000
  C   C14       1.0  0.6861171766729015  0.9382976177066527  0.5964784864569593  1.0000
  C   C15       1.0  0.1860719859679421  0.06169355441681291  0.40351220512074076  1.0000
  C   C16       1.0  0.686074553983964  0.43829966330894615  0.9035219011245912  1.0000
  C   C17       1.0  0.30560288374597633  0.6587965427296112  0.14927394582991124  1.0000
  C   C18       1.0  0.8056612251689617  0.8412101417890695  0.6492695471800685  1.0000
  C   C19       1.0  0.3056195747531163  0.15877981207410838  0.3507269088158011  1.0000
  C   C20       1.0  0.8056185573897922  0.3412051069945434  0.8507286245975076  1.0000
  C   C21       1.0  0.2224360424953034  0.3279432161157416  0.16248256786677465  1.0000
  C   C22       1.0  0.7224594168432928  0.17206376646894483  0.6624842058037215  1.0000
  C   C23       1.0  0.2224463539741492  0.8279284218236499  0.3375172345767011  1.0000
  C   C24       1.0  0.7224479633550941  0.6720617312190099  0.8375178534461437  1.0000
  O   O1        1.0  0.4778753749040306  0.16991085942864007  0.9860679112800593  1.0000
  O   O2        1.0  0.9778532544193012  0.33009583482352417  0.4860633811941779  1.0000
  O   O3        1.0  0.47789108969946886  0.6699098444441418  0.5139312664832686  1.0000
  O   O4        1.0  0.9778709480003656  0.8300948198918549  0.013934888999841596  1.0000
  O   O5        1.0  0.14773716908985082  0.0790871208543251  0.0511338597064963  1.0000
  O   O6        1.0  0.6477477180951966  0.420916353825163  0.5511353427314488  1.0000
  O   O7        1.0  0.147761642070293  0.5790855006028648  0.44886294077238625  1.0000
  O   O8        1.0  0.6477603194678992  0.9209083541181116  0.9488725763794644  1.0000
  O   O9        1.0  0.9837714172553975  0.3184012038402457  0.17949957592350063  1.0000
  O   O10       1.0  0.4837816211763127  0.18160353925418346  0.679505165683963  1.0000
  O   O11       1.0  0.983783055052278  0.8183766143497307  0.32050019012393693  1.0000
  O   O12       1.0  0.48376555793937104  0.6816034045374548  0.820496608232105  1.0000
  O   O13       1.0  0.4175573198199842  0.27040430703476653  0.19432920583729185  1.0000
  O   O14       1.0  0.9175527728453193  0.22959646577371734  0.6943284958666208  1.0000
  O   O15       1.0  0.41757036780411017  0.7703922797179316  0.3056737143740519  1.0000
  O   O16       1.0  0.9175519703453008  0.7295897547066871  0.8056694376403752  1.0000
  O   O17       1.0  0.2784712456979648  0.6109123234155119  0.21265165623699286  1.0000
  O   O18       1.0  0.7784660874105428  0.8890803521680155  0.7126413093523778  1.0000
  O   O19       1.0  0.27845780636533146  0.11091388992533517  0.28735052454926796  1.0000
  O   O20       1.0  0.7784625415311696  0.38908510853835315  0.7873564828790476  1.0000
  O   O21       1.0  0.41158174081446225  0.7737924982970482  0.13524358965473476  1.0000
  O   O22       1.0  0.9117137320653228  0.7262276847155105  0.6352352249794533  1.0000
  O   O23       1.0  0.4116484354636398  0.2737759539028346  0.364760862990046  1.0000
  O   O24       1.0  0.9116043288592979  0.22620476096881967  0.8647601412497679  1.0000
  O   O25       1.0  0.5795256422409735  0.4177118839423173  0.09021422924090669  1.0000
  O   O26       1.0  0.07954611969320521  0.08231452633557981  0.5902138692662573  1.0000
  O   O27       1.0  0.5795327881574367  0.9176980490997407  0.40978534231345504  1.0000
  O   O28       1.0  0.07952160753975332  0.582300691513531  0.9097849823176811  1.0000
