data_image0
_chemical_formula_structural       Al2H18C25S2O10
_chemical_formula_sum              "Al2 H18 C25 S2 O10"
_cell_length_a       6.870457916629173
_cell_length_b       12.579648008371576
_cell_length_c       15.163154120659225
_cell_angle_alpha    72.7307687974281
_cell_angle_beta     79.36108743698871
_cell_angle_gamma    77.0575021945415

_space_group_name_H-M_alt    "P 1"
_space_group_IT_number       1

loop_
  _space_group_symop_operation_xyz
  'x, y, z'

loop_
  _atom_site_type_symbol
  _atom_site_label
  _atom_site_symmetry_multiplicity
  _atom_site_fract_x
  _atom_site_fract_y
  _atom_site_fract_z
  _atom_site_occupancy
  Al  Al1       1.0  0.4973696959263734  0.49723962251128034  0.5027679514233014  1.0000
  Al  Al2       1.0  0.9971559157489626  0.49807803033162673  0.5024545516906754  1.0000
  H   H1        1.0  0.2715345837471119  0.3617971168859101  0.5787410971496456  1.0000
  H   H2        1.0  0.7595820651847306  0.5806650952606206  0.38780214092268744  1.0000
  H   H3        1.0  0.8146832764572098  0.5542510578912002  0.9364723099692042  1.0000
  H   H4        1.0  0.24057434405197867  0.4071407149196418  0.07371972549949389  1.0000
  H   H5        1.0  0.5872918818237524  0.6043359858682182  0.21734296129606173  1.0000
  H   H6        1.0  0.6771838977573525  0.6161079901729709  0.05002681933380866  1.0000
  H   H7        1.0  0.3476066597738309  0.4615510153747452  0.7713943706675933  1.0000
  H   H8        1.0  0.24010079049739372  0.47144223712606254  0.9338192679478963  1.0000
  H   H9        1.0  0.6059527022480325  0.11984464983988379  0.5260110911449798  1.0000
  H   H10       1.0  0.040303918551714425  0.5896982460760684  0.8091104109784764  1.0000
  H   H11       1.0  0.9544056305788616  0.6333502288377418  0.6977361520085096  1.0000
  H   H12       1.0  0.06917567723546371  0.4929215753020416  0.7395532797111669  1.0000
  H   H13       1.0  0.9489120259961085  0.4441751049711584  0.26704211108508247  1.0000
  H   H14       1.0  0.12934116199632234  0.32869322373295523  0.31608309009203583  1.0000
  H   H15       1.0  0.05321061793669206  0.3381258182928235  0.20739746454815125  1.0000
  H   H16       1.0  0.5207227017305415  0.7954254545692551  0.47006218636808933  1.0000
  H   H17       1.0  0.48792173938396405  0.8848028546150176  0.5446785090683335  1.0000
  H   H18       1.0  0.5054437902582761  0.9451213831889048  0.4224647743828455  1.0000
  C   C1        1.0  0.8251621962120268  0.29775721168925884  0.5137957534776091  1.0000
  C   C2        1.0  0.6825959145766872  0.49542417845878384  0.6634838154302897  1.0000
  C   C3        1.0  0.17077967516490838  0.6954286980703163  0.4935867910726016  1.0000
  C   C4        1.0  0.3104093684988314  0.5070567313703693  0.33848261381630335  1.0000
  C   C5        1.0  0.6358324632627018  0.5039787125347674  0.7614038492335451  1.0000
  C   C6        1.0  0.3557549939093577  0.5063694150597584  0.23860203216954548  1.0000
  C   C7        1.0  0.7689147470652172  0.5334290740464952  0.8075169115628992  1.0000
  C   C8        1.0  0.7086046919413035  0.5349156848159783  0.9005854620826096  1.0000
  C   C9        1.0  0.25259212454856345  0.4515249620400112  0.19757399419687968  1.0000
  C   C10       1.0  0.31345626729533654  0.4543208341760236  0.1037873831665124  1.0000
  C   C11       1.0  0.5099926470463886  0.5626783827543279  0.1842612033981438  1.0000
  C   C12       1.0  0.5619240984627895  0.5677995823912242  0.09042883855200054  1.0000
  C   C13       1.0  0.44808819193529825  0.48173189584485254  0.8091088949299984  1.0000
  C   C14       1.0  0.3898660000432772  0.4863173461428972  0.9005405344765903  1.0000
  C   C15       1.0  0.5214983108932075  0.5114713057882625  0.949275503892693  1.0000
  C   C16       1.0  0.4652825053185696  0.5119750688361435  0.048120390712732296  1.0000
  C   C17       1.0  0.22569841188099832  0.8946342406994674  0.48944218562263586  1.0000
  C   C18       1.0  0.7696596648066389  0.10039953927223176  0.5167886102832497  1.0000
  C   C19       1.0  0.11104182298941376  0.8138111798463967  0.49739825004446897  1.0000
  C   C20       1.0  0.8869597984099259  0.17937295041087967  0.5102207457058794  1.0000
  C   C21       1.0  0.8915309114326394  0.9955717822400132  0.5100428753617051  1.0000
  C   C22       1.0  0.09900091503569554  0.9978014006566697  0.4969764400432552  1.0000
  C   C23       1.0  0.9690457765051194  0.5639788275155057  0.7616634226472881  1.0000
  C   C24       1.0  0.08774799246212692  0.38706143093792644  0.24979410344978686  1.0000
  C   C25       1.0  0.4473144094079942  0.8783721778656217  0.4798064211069004  1.0000
  S   S1        1.0  0.8546948247201558  0.863201984809898  0.5136920728412021  1.0000
  S   S2        1.0  0.14472815922056975  0.12740493853414853  0.49531533906323216  1.0000
  O   O1        1.0  0.6386167793154912  0.34159182943365357  0.5151095844981624  1.0000
  O   O2        1.0  0.8642158186333475  0.49224733555288225  0.6248790867577226  1.0000
  O   O3        1.0  0.02533787719681869  0.6480630581304896  0.4919114177505292  1.0000
  O   O4        1.0  0.4590387681531922  0.5095807549387673  0.37731825831052374  1.0000
  O   O5        1.0  0.3559614865276687  0.6495823639476586  0.4921785920138929  1.0000
  O   O6        1.0  0.128591358524055  0.5071976932835299  0.37690172503747726  1.0000
  O   O7        1.0  0.9704137106858399  0.34566497006787245  0.5152319555525863  1.0000
  O   O8        1.0  0.5357712563239615  0.48978246326328195  0.625139218731732  1.0000
  O   O9        1.0  0.2516736369395148  0.44212344797870884  0.5477746185668835  1.0000
  O   O10       1.0  0.744719789384263  0.5502175261476694  0.4549126194685939  1.0000
