data_image0
_chemical_formula_structural       Cd4H24C20N20Cl4
_chemical_formula_sum              "Cd4 H24 C20 N20 Cl4"
_cell_length_a       6.437546313130513
_cell_length_b       10.163787675047216
_cell_length_c       12.51182576473495
_cell_angle_alpha    89.99980735269381
_cell_angle_beta     96.77356066781365
_cell_angle_gamma    89.99973142890602

_space_group_name_H-M_alt    "P 1"
_space_group_IT_number       1

loop_
  _space_group_symop_operation_xyz
  'x, y, z'

loop_
  _atom_site_type_symbol
  _atom_site_label
  _atom_site_symmetry_multiplicity
  _atom_site_fract_x
  _atom_site_fract_y
  _atom_site_fract_z
  _atom_site_occupancy
  Cd  Cd1       1.0  0.5179676723921601  0.4443145893859395  0.1418765365095709  1.0000
  Cd  Cd2       1.0  0.9820268817120803  0.9443130701461867  0.3581218478643251  1.0000
  Cd  Cd3       1.0  0.4820240252723734  0.5556820706308729  0.8581237455084646  1.0000
  Cd  Cd4       1.0  0.017971125653545496  0.05568457375215981  0.6418756471230651  1.0000
  H   H1        1.0  0.4664138801982531  0.7231150229887503  0.254269954162325  1.0000
  H   H2        1.0  0.0335809510489398  0.22311803220913623  0.2457291213144757  1.0000
  H   H3        1.0  0.5335810250311396  0.276879669262442  0.7457257406806547  1.0000
  H   H4        1.0  0.9664091691773747  0.7768815794641031  0.754271857456082  1.0000
  H   H5        1.0  0.20465081972724158  0.6706756803591035  0.5536223052816851  1.0000
  H   H6        1.0  0.2953558615667973  0.170671171648479  0.9463807246765725  1.0000
  H   H7        1.0  0.7953549824893287  0.32933377014532544  0.44637729481186733  1.0000
  H   H8        1.0  0.7046482578466564  0.8293304077623632  0.053625959514271  1.0000
  H   H9        1.0  0.18651951638548067  0.4284324382450819  0.5135093525744168  1.0000
  H   H10       1.0  0.3134787289377741  0.9284299053861604  0.9864980311644445  1.0000
  H   H11       1.0  0.8134798970734634  0.5715760283679786  0.4864978250453049  1.0000
  H   H12       1.0  0.6865285585003277  0.0715726579096767  0.013506461094365816  1.0000
  H   H13       1.0  0.3153473579469193  0.34576557686349224  0.3463040964896607  1.0000
  H   H14       1.0  0.18465105453537933  0.8457648103446334  0.1537020754837002  1.0000
  H   H15       1.0  0.6846489138714131  0.6542340347864625  0.6537036762429054  1.0000
  H   H16       1.0  0.8153546950206446  0.15423381741633344  0.8463007182909336  1.0000
  H   H17       1.0  0.4372305728783061  0.9051876765440097  0.3798986040921122  1.0000
  H   H18       1.0  0.0627691072409959  0.40519013633295486  0.1200963007146996  1.0000
  H   H19       1.0  0.5627706288561782  0.09481291901295921  0.6200951021282464  1.0000
  H   H20       1.0  0.9372226431039934  0.5948124270014434  0.879900787630163  1.0000
  H   H21       1.0  0.34696764752816717  0.8832616834112414  0.4987821680259401  1.0000
  H   H22       1.0  0.1530415824500579  0.3832574800694388  0.0012142156349313053  1.0000
  H   H23       1.0  0.6530398111871277  0.11674383156140779  0.5012119448211436  1.0000
  H   H24       1.0  0.8469579628135762  0.6167401638230885  0.998784977842966  1.0000
  C   C1        1.0  0.4047683705132029  0.6612689520254592  0.3144221532756005  1.0000
  C   C2        1.0  0.0952316146491583  0.16127104303190268  0.185579821214759  1.0000
  C   C3        1.0  0.5952327653567692  0.3387277079826275  0.6855755450306943  1.0000
  C   C4        1.0  0.9047631983276997  0.8387285686336979  0.8144214625317688  1.0000
  C   C5        1.0  0.3364595541510056  0.716604532306448  0.40672988115727543  1.0000
  C   C6        1.0  0.16354471532736167  0.2166018831789458  0.0932698252068604  1.0000
  C   C7        1.0  0.6635446838392766  0.2833990148894827  0.5932696172871061  1.0000
  C   C8        1.0  0.8364533183784957  0.7833987123781939  0.9067260729439467  1.0000
  C   C9        1.0  0.25786571381713225  0.6314885899921805  0.4805695946756572  1.0000
  C   C10       1.0  0.24214076946662286  0.1314840449954318  0.019432882181334304  1.0000
  C   C11       1.0  0.7421416658416362  0.3685169249706419  0.5194293086669503  1.0000
  C   C12       1.0  0.757861851585055  0.868515566655802  0.9805697082744018  1.0000
  C   C13       1.0  0.24645089163532666  0.49770781834630645  0.4583506956955077  1.0000
  C   C14       1.0  0.2535572800379242  0.9977082951934404  0.041653304259291694  1.0000
  C   C15       1.0  0.7535563826306698  0.502293761062724  0.5416545949808053  1.0000
  C   C16       1.0  0.7464500864487389  0.0022962358825751004  0.9583463975008257  1.0000
  C   C17       1.0  0.3174035208000205  0.45044599828634796  0.36487039916672603  1.0000
  C   C18       1.0  0.18259872379184117  0.9504453149828007  0.1351365397300057  1.0000
  C   C19       1.0  0.6825990475512922  0.549552629473162  0.6351353849542818  1.0000
  C   C20       1.0  0.8174039104359209  0.049554296670066805  0.864865252309805  1.0000
  N   N1        1.0  0.6105755920607548  0.25205028456219486  0.24456244679229397  1.0000
  N   N2        1.0  0.8894268282937431  0.7520425809494924  0.2554337685468226  1.0000
  N   N3        1.0  0.3894208378626728  0.7479512948777584  0.7554357449460412  1.0000
  N   N4        1.0  0.11057592452677771  0.2479550629477671  0.7445608377528571  1.0000
  N   N5        1.0  0.6275855016259653  0.1477691700433539  0.2847724329833596  1.0000
  N   N6        1.0  0.8724177497555702  0.6477685713534955  0.2152249159451785  1.0000
  N   N7        1.0  0.3724109546695544  0.8522274899740053  0.715224161931033  1.0000
  N   N8        1.0  0.12758341249048039  0.35222218534682526  0.7847711855387516  1.0000
  N   N9        1.0  0.6464462684737028  0.0432597844980833  0.3283077859751131  1.0000
  N   N10       1.0  0.8535531889604896  0.5432545034571562  0.1716864002399277  1.0000
  N   N11       1.0  0.3535502536942871  0.9567388432978134  0.671684816856512  1.0000
  N   N12       1.0  0.14644475254461034  0.45673822100713585  0.8283150868349836  1.0000
  N   N13       1.0  0.3963815913900105  0.5313213871205988  0.2947922596169689  1.0000
  N   N14       1.0  0.1036210100594559  0.0313194360416134  0.2052102342216955  1.0000
  N   N15       1.0  0.6036178879971671  0.4686752728785706  0.7052109259421185  1.0000
  N   N16       1.0  0.8963753408233684  0.9686782078478231  0.7947927480185015  1.0000
  N   N17       1.0  0.33242753618206666  0.8536420057816657  0.41987065703148113  1.0000
  N   N18       1.0  0.1675772012918912  0.3536423508308175  0.0801279120987388  1.0000
  N   N19       1.0  0.6675783451228908  0.1463595736511962  0.5801241525791808  1.0000
  N   N20       1.0  0.8324160606068959  0.6463582447241408  0.9198724715716294  1.0000
  Cl  Cl1       1.0  0.3633564804283012  0.6560982988754632  0.0323756214112976  1.0000
  Cl  Cl2       1.0  0.13664198235730396  0.15609712747020413  0.467626268045386  1.0000
  Cl  Cl3       1.0  0.6366461274433065  0.3439022966593086  0.9676277674587794  1.0000
  Cl  Cl4       1.0  0.8633560250003568  0.8439024841984946  0.5323712269388423  1.0000
