data_image0
_chemical_formula_structural       Cd2H20C16S4N10Cl2O4
_chemical_formula_sum              "Cd2 H20 C16 S4 N10 Cl2 O4"
_cell_length_a       6.977474120090584
_cell_length_b       9.286023741219646
_cell_length_c       10.3315652982182
_cell_angle_alpha    90.00025824824921
_cell_angle_beta     90.00059518669046
_cell_angle_gamma    106.1356794491458

_space_group_name_H-M_alt    "P 1"
_space_group_IT_number       1

loop_
  _space_group_symop_operation_xyz
  'x, y, z'

loop_
  _atom_site_type_symbol
  _atom_site_label
  _atom_site_symmetry_multiplicity
  _atom_site_fract_x
  _atom_site_fract_y
  _atom_site_fract_z
  _atom_site_occupancy
  Cd  Cd1       1.0  0.4251998307146962  0.5669047452328471  0.9005380076063075  1.0000
  Cd  Cd2       1.0  0.5748026792473624  0.43309713272157785  0.4005365750352893  1.0000
  H   H1        1.0  0.804758772812896  0.6411990069409228  0.10731601607096757  1.0000
  H   H2        1.0  0.1952529429285477  0.35880128340551215  0.6073198397229403  1.0000
  H   H3        1.0  0.06551683537321648  0.7057895676912551  0.08427931448735389  1.0000
  H   H4        1.0  0.9344930174661884  0.2942105273428268  0.5842831742666945  1.0000
  H   H5        1.0  0.9565313782002961  0.6287568520484612  0.6088329729748309  1.0000
  H   H6        1.0  0.04345977774396912  0.3712458407205759  0.10883436918236096  1.0000
  H   H7        1.0  0.03474748749336951  0.5527056273169962  0.7478346875656354  1.0000
  H   H8        1.0  0.9652468587846883  0.44729605125576205  0.2478389312057344  1.0000
  H   H9        1.0  0.7405845398981087  0.4342801692287637  0.9460024184284133  1.0000
  H   H10       1.0  0.25941553920448973  0.565721012078555  0.44599643104038467  1.0000
  H   H11       1.0  0.5312114370037335  0.3269058296697836  0.004740421443067099  1.0000
  H   H12       1.0  0.46878563147849667  0.6730902627279036  0.5047435585721587  1.0000
  H   H13       1.0  0.9516455470547385  0.0746198188180358  0.7241057415449745  1.0000
  H   H14       1.0  0.04834692318310382  0.9253816582246589  0.22409781959954234  1.0000
  H   H15       1.0  0.608718240085551  0.0668905308713121  0.6039436515688124  1.0000
  H   H16       1.0  0.39128154894306977  0.933108686759425  0.10393911324241147  1.0000
  H   H17       1.0  0.44170095805504417  0.1948570715942424  0.8177473335234848  1.0000
  H   H18       1.0  0.5582996982711849  0.8051508149133754  0.31775698453574813  1.0000
  H   H19       1.0  0.7052331313555696  0.23048519783076674  0.8164377755256779  1.0000
  H   H20       1.0  0.2947672211899858  0.769518183152833  0.31643770563201906  1.0000
  C   C1        1.0  0.7233120780065718  0.8794507302050363  0.8074473022765075  1.0000
  C   C2        1.0  0.2766926900931423  0.12054579572109252  0.3074473604255488  1.0000
  C   C3        1.0  0.9054370572367958  0.9828061793317031  0.7925375306648945  1.0000
  C   C4        1.0  0.09455900135917263  0.017186899771957104  0.2925320289189414  1.0000
  C   C5        1.0  0.8911767817498913  0.7956034236483803  0.9630562747454828  1.0000
  C   C6        1.0  0.10881747316783219  0.20439682773420026  0.4630651872803355  1.0000
  C   C7        1.0  0.5411877116619123  0.8676639670359735  0.733692090218561  1.0000
  C   C8        1.0  0.458813812235107  0.13233079100993456  0.23369443057116968  1.0000
  C   C9        1.0  0.5098297182543448  0.9623865652322579  0.639152773092867  1.0000
  C   C10       1.0  0.49016817033573556  0.037606239841537104  0.1391481692947352  1.0000
  C   C11       1.0  0.22164974943698476  0.7476770179585941  0.6849178733059913  1.0000
  C   C12       1.0  0.7783429860548453  0.2523229794411748  0.18492486092894467  1.0000
  C   C13       1.0  0.584861379718042  0.36272634426435246  0.6835255309694616  1.0000
  C   C14       1.0  0.41515117741906943  0.6372881158663475  0.18352866172776314  1.0000
  C   C15       1.0  0.583512509122798  0.2839619391936026  0.8136131073757652  1.0000
  C   C16       1.0  0.4164915036061458  0.7160436390812706  0.3136165690911952  1.0000
  S   S1        1.0  0.0729834347301407  0.9521397537850549  0.9041430253914482  1.0000
  S   S2        1.0  0.9270072798735356  0.0478611136177634  0.4041424684147401  1.0000
  S   S3        1.0  0.2695058196947074  0.90148599218999  0.5805246854645104  1.0000
  S   S4        1.0  0.7304822408289269  0.0985097224913005  0.08052490484325149  1.0000
  N   N1        1.0  0.7171895441419879  0.7739366739380459  0.903820651878675  1.0000
  N   N2        1.0  0.2828153285221617  0.2260562260299466  0.4038231192583552  1.0000
  N   N3        1.0  0.9247616393160386  0.7135986155135896  0.06378590712350979  1.0000
  N   N4        1.0  0.0752456922387239  0.2863956920061881  0.563785697093941  1.0000
  N   N5        1.0  0.37681607983267906  0.7464973398554308  0.7584503464450305  1.0000
  N   N6        1.0  0.6231781871153501  0.2534999394156189  0.25845529221656693  1.0000
  N   N7        1.0  0.042208010088892  0.6446796617865616  0.6908628952974778  1.0000
  N   N8        1.0  0.9577815510484343  0.35531928710364  0.19086477566505514  1.0000
  N   N9        1.0  0.593331616703594  0.385278439071662  0.9242413090902629  1.0000
  N   N10       1.0  0.4066684801883795  0.6147236695154987  0.42424041717293176  1.0000
  Cl  Cl1       1.0  0.0781387911354798  0.3757974706473988  0.8893919235188079  1.0000
  Cl  Cl2       1.0  0.9218640844072895  0.6242020562832522  0.38939561999610106  1.0000
  O   O1        1.0  0.48929256156595363  0.45970328591583604  0.6720460132772172  1.0000
  O   O2        1.0  0.5107215052598802  0.5403043165724383  0.1720465087294656  1.0000
  O   O3        1.0  0.6768258567598622  0.32066202692521273  0.5897151976330263  1.0000
  O   O4        1.0  0.3231842292725274  0.6793459831243991  0.08971495704934537  1.0000
