data_image0
_chemical_formula_structural       K4Gd4H16C20O36
_chemical_formula_sum              "K4 Gd4 H16 C20 O36"
_cell_length_a       7.241503889016525
_cell_length_b       8.931015968014067
_cell_length_c       16.38738521705897
_cell_angle_alpha    89.99980524849413
_cell_angle_beta     89.99976184263716
_cell_angle_gamma    89.99994295722203

_space_group_name_H-M_alt    "P 1"
_space_group_IT_number       1

loop_
  _space_group_symop_operation_xyz
  'x, y, z'

loop_
  _atom_site_type_symbol
  _atom_site_label
  _atom_site_symmetry_multiplicity
  _atom_site_fract_x
  _atom_site_fract_y
  _atom_site_fract_z
  _atom_site_occupancy
  K   K1        1.0  2.979196196e-07  0.0328186317377046  0.2258981192915996  1.0000
  K   K2        1.0  0.9999993700907979  0.9671839035758367  0.7741045976132528  1.0000
  K   K3        1.0  4.4074089799999957e-07  0.46717863321821806  0.7258951159006772  1.0000
  K   K4        1.0  1.1452766699000003e-06  0.532815348440373  0.27410119632781266  1.0000
  Gd  Gd1       1.0  0.4999999452299803  0.9863407376697851  0.1194472116155296  1.0000
  Gd  Gd2       1.0  0.500001103717551  0.013657318873228502  0.8805542848412601  1.0000
  Gd  Gd3       1.0  0.4999992636263784  0.5136572371478677  0.6194462708835289  1.0000
  Gd  Gd4       1.0  0.5000004044026412  0.48634305879018297  0.3805527846705274  1.0000
  H   H1        1.0  0.105278654389295  0.2400039264058692  0.38590261231717454  1.0000
  H   H2        1.0  0.10528416631591848  0.7599989277512691  0.6140965577303775  1.0000
  H   H3        1.0  0.8947131368884838  0.26000873461112667  0.8859023200713168  1.0000
  H   H4        1.0  0.8947233784404957  0.740009157582179  0.11409906187245163  1.0000
  H   H5        1.0  0.894727918291217  0.759987411983758  0.61409583301338  1.0000
  H   H6        1.0  0.8947210254240403  0.24000248787609024  0.3859031080430527  1.0000
  H   H7        1.0  0.10528100740850019  0.7400061173381901  0.1140985661507372  1.0000
  H   H8        1.0  0.10527214678773329  0.25999673681715757  0.8859024345821285  1.0000
  H   H9        1.0  0.6209063386033833  0.5726181497501772  0.9330287744908716  1.0000
  H   H10       1.0  0.6209049788708969  0.4273865272896415  0.06697372042329162  1.0000
  H   H11       1.0  0.3790926812453321  0.9273857119876469  0.4330269955738402  1.0000
  H   H12       1.0  0.3791008610445631  0.072619160392037  0.5669692308322  1.0000
  H   H13       1.0  0.3790960912700286  0.4273843855660503  0.06697272196048941  1.0000
  H   H14       1.0  0.37909468913952077  0.5726160080238999  0.9330289964815608  1.0000
  H   H15       1.0  0.6208987012278014  0.07261682335202121  0.5669683986328665  1.0000
  H   H16       1.0  0.6209070925641313  0.9273822552418027  0.4330279940367704  1.0000
  C   C1        1.0  0.108833133138134  0.9999992878001579  3.853374067800001e-06  1.0000
  C   C2        1.0  0.8911630569347155  0.5000005498364288  0.4999991686797358  1.0000
  C   C3        1.0  0.8911664836201754  0.9999978521434019  3.7454007042000003e-06  1.0000
  C   C4        1.0  0.1088366110971748  0.49999974610351233  0.4999992766488361  1.0000
  C   C5        1.0  0.3934068594705522  0.7756811837262064  0.2715083718302226  1.0000
  C   C6        1.0  0.39340090481474027  0.224322557390309  0.7284920998867079  1.0000
  C   C7        1.0  0.6065936803589196  0.7243046481360766  0.7715001317153212  1.0000
  C   C8        1.0  0.6065951295694418  0.27568996324533407  0.22849506677855663  1.0000
  C   C9        1.0  0.6065955704150313  0.2243202319041728  0.7284906837202599  1.0000
  C   C10       1.0  0.6065973822864664  0.7756810976305247  0.27150634544001667  1.0000
  C   C11       1.0  0.39340598769076257  0.275690049346153  0.22849526249105884  1.0000
  C   C12       1.0  0.3934031575365751  0.7243058539214074  0.7715033785554439  1.0000
  C   C13       1.0  0.49999780657682896  0.7127036374484919  0.0226766887220649  1.0000
  C   C14       1.0  0.5000046232814128  0.2872955387760215  0.9773284690852932  1.0000
  C   C15       1.0  0.4999954082734632  0.7872960591247847  0.522674019384546  1.0000
  C   C16       1.0  0.5000001169840402  0.21270423682442194  0.4773219850459185  1.0000
  C   C17       1.0  0.5000003240610269  0.5701838585616416  0.9736876012119924  1.0000
  C   C18       1.0  0.5000021058199451  0.42980636012672596  0.026313895250808607  1.0000
  C   C19       1.0  0.4999983131825942  0.9298175108326984  0.47368559578799824  1.0000
  C   C20       1.0  0.49999997393322104  0.07019510174894349  0.5263085779520511  1.0000
  O   O1        1.0  0.1869367842223468  0.964451022114432  0.0664768966013085  1.0000
  O   O2        1.0  0.1869415601932332  0.03554840700974891  0.9335202928455432  1.0000
  O   O3        1.0  0.8130615421556726  0.5355461625555052  0.5664783915497154  1.0000
  O   O4        1.0  0.8130580685617232  0.46445388050543107  0.4335219198883706  1.0000
  O   O5        1.0  0.8130587410343466  0.0355459147525607  0.9335197180577526  1.0000
  O   O6        1.0  0.8130622506309634  0.9644507692388806  0.0664769320293104  1.0000
  O   O7        1.0  0.18694226865634533  0.46445413337897196  0.43352127422601683  1.0000
  O   O8        1.0  0.18693883760568042  0.5355441760430536  0.5664783561212586  1.0000
  O   O9        1.0  0.3144758942352794  0.8713446041051967  0.2265060570367581  1.0000
  O   O10       1.0  0.3144696334699191  0.1286524825932887  0.7734988311859042  1.0000
  O   O11       1.0  0.6855236881105641  0.6286571834287641  0.7265033416669412  1.0000
  O   O12       1.0  0.6855245964974443  0.3713396035676483  0.2734972039355696  1.0000
  O   O13       1.0  0.6855251547028303  0.1286500933499042  0.7734978803250598  1.0000
  O   O14       1.0  0.6855272726831244  0.8713455739457032  0.22650449595112584  1.0000
  O   O15       1.0  0.31447597991190424  0.3713397534232641  0.2734975445666734  1.0000
  O   O16       1.0  0.3144764524507763  0.6286573332819287  0.7265042925222576  1.0000
  O   O17       1.0  0.3146261092614111  0.6799987921798021  0.31653463021800843  1.0000
  O   O18       1.0  0.3146232227625135  0.31999605502239353  0.6834659861494785  1.0000
  O   O19       1.0  0.6853767686679647  0.8199934776816421  0.8165364415971652  1.0000
  O   O20       1.0  0.6853759972152247  0.18000218974068355  0.1834641042776752  1.0000
  O   O21       1.0  0.6853735587524455  0.3199981446665348  0.6834680866920382  1.0000
  O   O22       1.0  0.6853778261878958  0.6800020015225172  0.31653490008182683  1.0000
  O   O23       1.0  0.31462428028667944  0.18000233947829264  0.1834638344107447  1.0000
  O   O24       1.0  0.314623670800934  0.8200003455766519  0.8165373921762153  1.0000
  O   O25       1.0  0.49999606376294276  0.7108503047956914  0.09983176938221312  1.0000
  O   O26       1.0  0.5000146516871381  0.2891488714387621  0.9001691168391803  1.0000
  O   O27       1.0  0.49998537760257017  0.7891533905328176  0.5998309272833141  1.0000
  O   O28       1.0  0.500000481155503  0.2108547432781833  0.4001638566977875  1.0000
  O   O29       1.0  0.49999872498605674  0.8392887056972923  0.9849600466252469  1.0000
  O   O30       1.0  0.5000009430123171  0.1607194280777549  0.015044500950843103  1.0000
  O   O31       1.0  0.49999980617135986  0.6607114738652841  0.48496037161394423  1.0000
  O   O32       1.0  0.4999998618775122  0.3392798645347312  0.5150356328210322  1.0000
  O   O33       1.0  8.916154498999995e-07  0.1746788489992852  0.3747142854555606  1.0000
  O   O34       1.0  6.943828339000001e-07  0.8253184917282328  0.6252856881226876  1.0000
  O   O35       1.0  0.9999979095996423  0.3253249240780108  0.8747130683800182  1.0000
  O   O36       1.0  3.774716006e-07  0.6746854490863826  0.12529086896978475  1.0000
