data_image0
_chemical_formula_structural       Ho4H32C24O28
_chemical_formula_sum              "Ho4 H32 C24 O28"
_cell_length_a       7.620322198263857
_cell_length_b       10.670501781272636
_cell_length_c       12.645319611575268
_cell_angle_alpha    95.31592385903674
_cell_angle_beta     107.53106557207565
_cell_angle_gamma    110.92902768283894

_space_group_name_H-M_alt    "P 1"
_space_group_IT_number       1

loop_
  _space_group_symop_operation_xyz
  'x, y, z'

loop_
  _atom_site_type_symbol
  _atom_site_label
  _atom_site_symmetry_multiplicity
  _atom_site_fract_x
  _atom_site_fract_y
  _atom_site_fract_z
  _atom_site_occupancy
  Ho  Ho1       1.0  0.7441201722711954  0.18933957300956192  0.7296032149572583  1.0000
  Ho  Ho2       1.0  0.3251454380870411  0.3106018251177288  0.7703437465098445  1.0000
  Ho  Ho3       1.0  0.2558781295141157  0.8106606136880216  0.270396789116667  1.0000
  Ho  Ho4       1.0  0.6748553920071599  0.689399391458032  0.2296569880088768  1.0000
  H   H1        1.0  0.010028003884585194  0.2018324725984897  0.350665705587744  1.0000
  H   H2        1.0  0.9575046489574747  0.2983142869853808  0.14922727287847687  1.0000
  H   H3        1.0  0.9899742294489684  0.798169773824583  0.6493360105890176  1.0000
  H   H4        1.0  0.0424938031752903  0.7016869292246711  0.8507710904907314  1.0000
  H   H5        1.0  0.06867362326270413  0.16424466815856678  0.485711204068167  1.0000
  H   H6        1.0  0.9185962663841422  0.3358083554624187  0.014148047556034335  1.0000
  H   H7        1.0  0.9313272068314972  0.8357565484171944  0.5142895304505545  1.0000
  H   H8        1.0  0.08140489612579677  0.6641928610222934  0.9858516453662675  1.0000
  H   H9        1.0  0.37304987893543273  0.24186520907546338  0.3625163943131753  1.0000
  H   H10       1.0  0.26840927421864075  0.25814974873058827  0.13740528796889612  1.0000
  H   H11       1.0  0.6269492155036928  0.758134977744021  0.6374844001439186  1.0000
  H   H12       1.0  0.7315901526362153  0.7418504379978542  0.8625944648917852  1.0000
  H   H13       1.0  0.3509833061351059  0.363774231083788  0.4594135700929342  1.0000
  H   H14       1.0  0.02750288166534178  0.13628716141594313  0.0405598773335072  1.0000
  H   H15       1.0  0.6490194416824618  0.6362269856447255  0.5405877035957118  1.0000
  H   H16       1.0  0.9724948095344387  0.8637119955562224  0.9594399354655464  1.0000
  H   H17       1.0  0.30346386687574517  0.00024934203631939996  0.917480921623941  1.0000
  H   H18       1.0  0.8858743822982829  0.4999061317550896  0.5825855050124744  1.0000
  H   H19       1.0  0.6965338243240278  0.9997498149358461  0.08251889117511975  1.0000
  H   H20       1.0  0.11412546293906436  0.5000909658588171  0.4174131715971114  1.0000
  H   H21       1.0  0.47987613433186027  0.13670647884087125  0.03088313237917363  1.0000
  H   H22       1.0  0.8122165039120118  0.3633382934388152  0.46920892974041817  1.0000
  H   H23       1.0  0.5201240851768103  0.8632937080094719  0.9691174108646834  1.0000
  H   H24       1.0  0.18778361949514266  0.6366598339915582  0.5307909797404448  1.0000
  H   H25       1.0  0.3116299074976964  0.005022098780393899  0.6470616212292697  1.0000
  H   H26       1.0  0.15966843299705863  0.49495910402927046  0.8529884438048968  1.0000
  H   H27       1.0  0.6883687267033449  0.9949780878261407  0.35293734124824283  1.0000
  H   H28       1.0  0.8403303832722668  0.5050400529737544  0.14701111778091305  1.0000
  H   H29       1.0  0.4160280989599055  0.9229083342054947  0.5879448381289761  1.0000
  H   H30       1.0  0.40526791137695983  0.5771230279525881  0.9120773687840327  1.0000
  H   H31       1.0  0.5839718423789647  0.07709082282838152  0.41205447224358954  1.0000
  H   H32       1.0  0.5947309048923657  0.42287612905043653  0.08792219280177702  1.0000
  C   C1        1.0  0.04827266549079208  0.013587586789988403  0.3543164692565314  1.0000
  C   C2        1.0  0.1803227724979307  0.48652902632743883  0.1455274731741341  1.0000
  C   C3        1.0  0.9517264289483263  0.9864126000294958  0.6456843252005698  1.0000
  C   C4        1.0  0.8196838650122942  0.5134711607990852  0.8544726043866575  1.0000
  C   C5        1.0  0.5770319762092766  0.10633576769842529  0.8939647646507112  1.0000
  C   C6        1.0  0.07674306116114582  0.3937339386469958  0.6060409831781399  1.0000
  C   C7        1.0  0.4229654368207034  0.8936623594572809  0.10603381527705844  1.0000
  C   C8        1.0  0.923260533556167  0.6062662482959097  0.393958806425978  1.0000
  C   C9        1.0  0.47248551361707314  0.2318561498257169  0.5367062079687983  1.0000
  C   C10       1.0  0.20386967789524119  0.26796653473406457  0.9631887554211999  1.0000
  C   C11       1.0  0.5275153164771352  0.7681450667500372  0.4632945265499231  1.0000
  C   C12       1.0  0.7961291383740843  0.7320326222689603  0.0368108061646097  1.0000
  C   C13       1.0  0.10772204381434138  0.16302366677993524  0.4088450605954037  1.0000
  C   C14       1.0  0.03575669721170975  0.337068049840191  0.0909908375736492  1.0000
  C   C15       1.0  0.8922782717958525  0.8369785794903849  0.5911561164114333  1.0000
  C   C16       1.0  0.9642438547126984  0.6629321369191032  0.909008664073788  1.0000
  C   C17       1.0  0.32996388449232933  0.2561790557331988  0.4365358980883087  1.0000
  C   C18       1.0  0.1370600779205516  0.24384664689334556  0.06336372784665659  1.0000
  C   C19       1.0  0.6700368495003558  0.7438201014225785  0.5634642026674328  1.0000
  C   C20       1.0  0.8629393489343041  0.7561535398350969  0.9366360250140247  1.0000
  C   C21       1.0  0.4650781315315556  0.049840762839068  0.9700456987616164  1.0000
  C   C22       1.0  0.945188507788991  0.45023835217746483  0.529990725623982  1.0000
  C   C23       1.0  0.5349187670144031  0.9501583940112042  0.029953323654268598  1.0000
  C   C24       1.0  0.05481255861943166  0.5497608048872706  0.4700083335353398  1.0000
  O   O1        1.0  0.18444220080552742  0.9816158673033187  0.3391051503719851  1.0000
  O   O2        1.0  0.3637417826057072  0.5184680468065821  0.16093267136390207  1.0000
  O   O3        1.0  0.8155557685640461  0.0183843194853139  0.66089589529836  1.0000
  O   O4        1.0  0.6362587693187011  0.48153213995271216  0.8390668302835352  1.0000
  O   O5        1.0  0.7104560862999278  0.06904021938663618  0.8814605280882689  1.0000
  O   O6        1.0  0.2599454560311896  0.4310104764363486  0.6184943545123431  1.0000
  O   O7        1.0  0.28954132673004535  0.9309579077690772  0.11853805183950071  1.0000
  O   O8        1.0  0.7400542071378807  0.568987650781068  0.3815037229889384  1.0000
  O   O9        1.0  0.5946778254897038  0.18093955780752682  0.5247966170306384  1.0000
  O   O10       1.0  0.38891486344882525  0.3188852736788236  0.9751328642298774  1.0000
  O   O11       1.0  0.40532178343343606  0.8190595993173987  0.4752037349383471  1.0000
  O   O12       1.0  0.611084563406031  0.681114913049619  0.0248668886308039  1.0000
  O   O13       1.0  0.5359110775246378  0.195457747128323  0.8397060222899952  1.0000
  O   O14       1.0  0.0007361075484836102  0.3045514629226247  0.6602670829368192  1.0000
  O   O15       1.0  0.4640877387446877  0.8045414098747018  0.16029353929581452  1.0000
  O   O16       1.0  0.9992661800310001  0.695449753592939  0.33973235877223834  1.0000
  O   O17       1.0  0.4774272580768794  0.26592957915955395  0.6382034740521902  1.0000
  O   O18       1.0  0.07329375913612066  0.23384762613248705  0.8616767347306792  1.0000
  O   O19       1.0  0.5225742685696202  0.7340695781181312  0.36179741708672003  1.0000
  O   O20       1.0  0.926705057133205  0.7661515308705377  0.1383228268551306  1.0000
  O   O21       1.0  0.8642915135660583  0.9296504653422416  0.3276149550102118  1.0000
  O   O22       1.0  0.10697156419145402  0.5704702521957685  0.17217217211526054  1.0000
  O   O23       1.0  0.13570678821925242  0.070349721355349  0.6723850490637133  1.0000
  O   O24       1.0  0.8930302948707761  0.4295289049908676  0.82782767742723  1.0000
  O   O25       1.0  0.43516298118642277  0.989383848373649  0.6553828076030896  1.0000
  O   O26       1.0  0.2905059433101797  0.5106426794168897  0.8446301546759116  1.0000
  O   O27       1.0  0.5648355026671652  0.0106153087204248  0.3446177955791327  1.0000
  O   O28       1.0  0.7094946086142285  0.48935750734240463  0.15536934697152566  1.0000
