data_image0
_chemical_formula_structural       Co2H36C44N8O8
_chemical_formula_sum              "Co2 H36 C44 N8 O8"
_cell_length_a       10.631672716323395
_cell_length_b       10.744198581403966
_cell_length_c       11.621343986465506
_cell_angle_alpha    110.47539251037426
_cell_angle_beta     101.20029172608099
_cell_angle_gamma    110.56037526142443

_space_group_name_H-M_alt    "P 1"
_space_group_IT_number       1

loop_
  _space_group_symop_operation_xyz
  'x, y, z'

loop_
  _atom_site_type_symbol
  _atom_site_label
  _atom_site_symmetry_multiplicity
  _atom_site_fract_x
  _atom_site_fract_y
  _atom_site_fract_z
  _atom_site_occupancy
  Co  Co1       1.0  0.7247842929434186  0.25924289481084645  0.8347633475343912  1.0000
  Co  Co2       1.0  0.2752144320974779  0.7407553668124933  0.1652325899113549  1.0000
  H   H1        1.0  0.5969664556766859  0.5659561335900847  0.7372606064715654  1.0000
  H   H2        1.0  0.4030317036540367  0.4340432407095492  0.2627441863182583  1.0000
  H   H3        1.0  0.479972281583855  0.30385186282714477  0.5719396916080441  1.0000
  H   H4        1.0  0.520023480397228  0.6961441588616283  0.42806100123826246  1.0000
  H   H5        1.0  0.5539217513140217  0.9270569516164362  0.5966944188016188  1.0000
  H   H6        1.0  0.44607503191433295  0.07294353207628752  0.4033053087465817  1.0000
  H   H7        1.0  0.8564487473697396  0.09539541334050482  0.975603472359829  1.0000
  H   H8        1.0  0.1435470755039816  0.9046050668142203  0.024396074986228377  1.0000
  H   H9        1.0  0.0560944162290085  0.1919899766422617  0.7247166893117339  1.0000
  H   H10       1.0  0.9439067249068245  0.8080116376237927  0.27528163052959104  1.0000
  H   H11       1.0  0.8085626590145978  0.05453417940532291  0.5638104663484071  1.0000
  H   H12       1.0  0.19143799375024895  0.9454663184871851  0.4361874056864253  1.0000
  H   H13       1.0  0.4084691203449821  0.034174154910999704  0.6045656331027232  1.0000
  H   H14       1.0  0.5915324834018492  0.9658263465035833  0.3954332779082251  1.0000
  H   H15       1.0  0.5540698460502185  0.42839473025981084  0.9542843439997029  1.0000
  H   H16       1.0  0.44593219218965163  0.5716046582555309  0.04571773450278739  1.0000
  H   H17       1.0  0.7714214187064172  0.5704721727449424  0.5223113137557647  1.0000
  H   H18       1.0  0.2285864120779735  0.42953392459381945  0.4776957097400115  1.0000
  H   H19       1.0  0.9125044477345838  0.8457599899802802  0.629410196935119  1.0000
  H   H20       1.0  0.0874966559106412  0.1542416242220668  0.3705915580020899  1.0000
  H   H21       1.0  0.16495359695110767  0.9677837369756188  0.7892415049546955  1.0000
  H   H22       1.0  0.8350489647923992  0.0322189971542031  0.21076001921716886  1.0000
  H   H23       1.0  0.2697662021278617  0.8109129640964953  0.8387370384969444  1.0000
  H   H24       1.0  0.7302325111824145  0.18908752668815512  0.16126219068155484  1.0000
  H   H25       1.0  0.9018341735668614  0.30637836936947593  0.5168373485763382  1.0000
  H   H26       1.0  0.09816740907670156  0.6936243611904943  0.48316571294133587  1.0000
  H   H27       1.0  0.7534053863598515  0.3363434577861072  0.46732871863795816  1.0000
  H   H28       1.0  0.24659423106914602  0.6636570364410022  0.532675843386521  1.0000
  H   H29       1.0  0.2544339694088578  0.5465459308054507  0.7335802226426152  1.0000
  H   H30       1.0  0.745567643710622  0.45345457062505545  0.2664178295943529  1.0000
  H   H31       1.0  0.08648705054093853  0.39412055238857147  0.6815100706920489  1.0000
  H   H32       1.0  0.9135102538922837  0.6058765893709932  0.3184826624231506  1.0000
  H   H33       1.0  0.7787564562369981  0.8142530991301701  0.8517278522544061  1.0000
  H   H34       1.0  0.22123651133280484  0.1857495996355638  0.14827101112209823  1.0000
  H   H35       1.0  0.2838910214861486  0.34365386163489126  0.8372627682279798  1.0000
  H   H36       1.0  0.7161129655809475  0.6563455340042239  0.16273709435686362  1.0000
  C   C1        1.0  0.5552926341364709  0.538606216950356  0.6334178580106524  1.0000
  C   C2        1.0  0.4447166289862068  0.46139877109086314  0.3665890780829173  1.0000
  C   C3        1.0  0.5674334342657732  0.6516838439432678  0.5950856288146582  1.0000
  C   C4        1.0  0.4325642718266067  0.348316643223761  0.4049177140315621  1.0000
  C   C5        1.0  0.4892730861314689  0.38971149266659927  0.5401158467117071  1.0000
  C   C6        1.0  0.510733221005296  0.6102845679083446  0.4598885459060683  1.0000
  C   C7        1.0  0.637206297562841  0.8088067621995237  0.6895672640354107  1.0000
  C   C8        1.0  0.3627856745196851  0.19119370378726333  0.31043242127606874  1.0000
  C   C9        1.0  0.6237867562323912  0.9280737369801528  0.678876735520504  1.0000
  C   C10       1.0  0.37620907365601397  0.07192897236772923  0.32112438601036086  1.0000
  C   C11       1.0  0.7804466965537885  0.0194378331262115  0.8756831639400957  1.0000
  C   C12       1.0  0.21954913333461717  0.9805648762216781  0.12431795759076911  1.0000
  C   C13       1.0  0.0327847532154166  0.10911427897141118  0.6259233826420783  1.0000
  C   C14       1.0  0.9672144601964588  0.8908850990254679  0.3740730026101532  1.0000
  C   C15       1.0  0.1427142050563717  0.07913722508865112  0.5918630737844452  1.0000
  C   C16       1.0  0.8572907938853476  0.9208666325384913  0.40813668227626476  1.0000
  C   C17       1.0  0.892634665658008  0.03113054552823511  0.5354443360990261  1.0000
  C   C18       1.0  0.1073669474614718  0.9688699559022709  0.46455371613794944  1.0000
  C   C19       1.0  0.28989358362485973  0.1572624892448147  0.684491353760201  1.0000
  C   C20       1.0  0.7101119130604944  0.8427424847717975  0.3155079913330284  1.0000
  C   C21       1.0  0.40557543895011605  0.1266262391348079  0.6798091460154438  1.0000
  C   C22       1.0  0.5944266906583096  0.8733753787170145  0.32018677770609844  1.0000
  C   C23       1.0  0.4823520650355705  0.3296557372150986  0.8621100687030676  1.0000
  C   C24       1.0  0.517649040967619  0.6703436478100145  0.13788925327536117  1.0000
  C   C25       1.0  0.8802128837887722  0.6240846088717903  0.59431284107648  1.0000
  C   C26       1.0  0.11978916848047315  0.375919238029873  0.405692385795625  1.0000
  C   C27       1.0  0.959190276169778  0.7790182123558723  0.6544960265023647  1.0000
  C   C28       1.0  0.04081227620106629  0.2209845217580195  0.3455063564434724  1.0000
  C   C29       1.0  0.10006187850046196  0.8470258650697603  0.744021387049024  1.0000
  C   C30       1.0  0.8999392509047581  0.15297797835760457  0.25598022452505387  1.0000
  C   C31       1.0  0.15888464783977696  0.7585646480568755  0.770947390224201  1.0000
  C   C32       1.0  0.8411145561994503  0.2414347299240874  0.22904985380200324  1.0000
  C   C33       1.0  0.07928861621052623  0.602605634525979  0.7125559637247605  1.0000
  C   C34       1.0  0.9207139666362493  0.3973948704584559  0.2874414099403779  1.0000
  C   C35       1.0  0.9371426953564209  0.5340672097641815  0.6227025461987098  1.0000
  C   C36       1.0  0.06286026574747444  0.46593218222545835  0.37730314760180766  1.0000
  C   C37       1.0  0.8427690878291471  0.36782299633603094  0.5545488886466501  1.0000
  C   C38       1.0  0.15723101797083663  0.6321786142646175  0.44545612118430716  1.0000
  C   C39       1.0  0.777296509564593  0.30303485102415106  0.6381396374235138  1.0000
  C   C40       1.0  0.22270597955565563  0.696965653801037  0.36186632398134594  1.0000
  C   C41       1.0  0.1493861098192113  0.5142429114716977  0.7468856368214533  1.0000
  C   C42       1.0  0.8506116665976647  0.4857531174523259  0.2531068286893969  1.0000
  C   C43       1.0  0.1845597420162336  0.5373867718286578  0.8892615577624738  1.0000
  C   C44       1.0  0.8154365692876766  0.46260590797473367  0.11072956432892064  1.0000
  N   N1        1.0  0.7365623648031632  0.8700772692831863  0.8156264726963373  1.0000
  N   N2        1.0  0.2634334650852423  0.12992544006469592  0.1843746488345346  1.0000
  N   N3        1.0  0.7126037557155341  0.05721543008353079  0.7944925011292341  1.0000
  N   N4        1.0  0.2873930345275113  0.942787282802357  0.20550880060377358  1.0000
  N   N5        1.0  0.3415866627421805  0.2858310368983155  0.8014884551944093  1.0000
  N   N6        1.0  0.6584173430702265  0.7141683587726535  0.19850968984248854  1.0000
  N   N7        1.0  0.524734132273025  0.23528376346099836  0.7908074478097689  1.0000
  N   N8        1.0  0.47526358089324827  0.7647100361743144  0.20918859616011082  1.0000
  O   O1        1.0  0.18639039896898882  0.6534785677558689  0.9737740310474406  1.0000
  O   O2        1.0  0.8136077697935916  0.34651188983480813  0.02622102990724783  1.0000
  O   O3        1.0  0.21784802499190908  0.4466983343762936  0.9174395954964398  1.0000
  O   O4        1.0  0.7821473283153323  0.5532921127118513  0.08254891343402454  1.0000
  O   O5        1.0  0.8420459672538597  0.3761874720780299  0.7646881753486596  1.0000
  O   O6        1.0  0.1579536782930973  0.623813022196849  0.23531381035389395  1.0000
  O   O7        1.0  0.6651347289348238  0.17972769228286017  0.5840651917332381  1.0000
  O   O8        1.0  0.33486096979565627  0.8202661001172019  0.41593907957209103  1.0000
