data_image0
_chemical_formula_structural       Cu4H30C30Br4N6O6
_chemical_formula_sum              "Cu4 H30 C30 Br4 N6 O6"
_cell_length_a       7.01105358270386
_cell_length_b       11.151592523970132
_cell_length_c       11.308229702030662
_cell_angle_alpha    86.06311816917119
_cell_angle_beta     77.39930665968039
_cell_angle_gamma    77.63189289893678

_space_group_name_H-M_alt    "P 1"
_space_group_IT_number       1

loop_
  _space_group_symop_operation_xyz
  'x, y, z'

loop_
  _atom_site_type_symbol
  _atom_site_label
  _atom_site_symmetry_multiplicity
  _atom_site_fract_x
  _atom_site_fract_y
  _atom_site_fract_z
  _atom_site_occupancy
  Cu  Cu1       1.0  0.6089953203687629  0.1387697899269824  0.984520738155396  1.0000
  Cu  Cu2       1.0  0.39100813202080065  0.8612316005257201  0.015481690023456512  1.0000
  Cu  Cu3       1.0  0.193442994980785  0.23679134012888886  0.22413303111144234  1.0000
  Cu  Cu4       1.0  0.8065630721439875  0.7632063811464679  0.775863976789445  1.0000
  H   H1        1.0  0.8865659747627035  0.2841433506298898  0.9724173493561067  1.0000
  H   H2        1.0  0.11344617976308768  0.7158580607457381  0.027580309320967382  1.0000
  H   H3        1.0  0.5113163108840907  0.44591553460076483  0.29902658072502664  1.0000
  H   H4        1.0  0.4886885272693605  0.5540858596951921  0.7009712294303369  1.0000
  H   H5        1.0  0.6657195246072762  0.6764157903748611  0.9845151068242115  1.0000
  H   H6        1.0  0.334299354164017  0.3235874744674732  0.015484124884828464  1.0000
  H   H7        1.0  0.9212657760813273  0.5707312759519567  0.5829302365158071  1.0000
  H   H8        1.0  0.07873938794730867  0.42926919998612323  0.41706847589512097  1.0000
  H   H9        1.0  0.14433903745077004  0.5927398790141042  0.6196163518708814  1.0000
  H   H10       1.0  0.855662915045784  0.40725691393498664  0.380378649504351  1.0000
  H   H11       1.0  0.04767867950685201  0.3492102536952118  0.6018787530293677  1.0000
  H   H12       1.0  0.9523147574578062  0.6507901950304458  0.39811896658933676  1.0000
  H   H13       1.0  0.24877747247554535  0.3771639794372066  0.6616698637640892  1.0000
  H   H14       1.0  0.7512250572419747  0.6228309772070234  0.3383225308455237  1.0000
  H   H15       1.0  0.8562370935531336  0.9590347527740165  0.1730199046222508  1.0000
  H   H16       1.0  0.1437288563568657  0.04096103502182301  0.8269917547410016  1.0000
  H   H17       1.0  0.5945627125614482  0.9832807730584463  0.23524022340640013  1.0000
  H   H18       1.0  0.40540045102863326  0.016736145457642203  0.7647694734562618  1.0000
  H   H19       1.0  0.6389267084479969  0.0673722665091958  0.41283350968948435  1.0000
  H   H20       1.0  0.3610617951096558  0.9326346023776327  0.5871741882300225  1.0000
  H   H21       1.0  0.9044029772924204  0.04495419371900769  0.35463971058845084  1.0000
  H   H22       1.0  0.09558530006118815  0.9550444043970714  0.6453624050390161  1.0000
  H   H23       1.0  0.09423211611180456  0.8576103131016952  0.27540667474045927  1.0000
  H   H24       1.0  0.9057670699748996  0.14238187784310702  0.7245925758974676  1.0000
  H   H25       1.0  0.26804501284932786  0.9523743584291111  0.2775685321878427  1.0000
  H   H26       1.0  0.7319490907715719  0.04762425349862551  0.7224318741973547  1.0000
  H   H27       1.0  0.42417144171458443  0.816665105950605  0.42315097098938276  1.0000
  H   H28       1.0  0.5758293563400515  0.1833353596081935  0.5768492439170885  1.0000
  H   H29       1.0  0.18436561967742204  0.7732881380872244  0.4636323658749219  1.0000
  H   H30       1.0  0.8156355988056064  0.22670681430286527  0.5363690580349426  1.0000
  C   C1        1.0  0.785754778278701  0.4816327901301277  0.9638596134427927  1.0000
  C   C2        1.0  0.21425035593817654  0.5183676859723078  0.036137334457436075  1.0000
  C   C3        1.0  0.7967163240764494  0.3652195256903711  0.020279480526021073  1.0000
  C   C4        1.0  0.20329697977333444  0.6347828073933216  0.9797179514040976  1.0000
  C   C5        1.0  0.6959879576865619  0.3530254817354432  0.14006114615455795  1.0000
  C   C6        1.0  0.3040274283951164  0.6469750182292275  0.8599361190292708  1.0000
  C   C7        1.0  0.5890795335675704  0.456325726362131  0.20570385287965104  1.0000
  C   C8        1.0  0.41093237473037897  0.5436720086427016  0.7942923280343164  1.0000
  C   C9        1.0  0.5759047499674496  0.5732900970251508  0.14876032562307978  1.0000
  C   C10       1.0  0.4241036605229527  0.4267094674198049  0.851238875549967  1.0000
  C   C11       1.0  0.6738847531599249  0.5855366746953338  0.0280265115745806  1.0000
  C   C12       1.0  0.3261259708843412  0.4144647330835697  0.9719731183599264  1.0000
  C   C13       1.0  0.8906738588800283  0.48967620840397075  0.8378431041126504  1.0000
  C   C14       1.0  0.10932835475026084  0.5103242608337268  0.1621542572810313  1.0000
  C   C15       1.0  0.01986373493178209  0.5447085477969014  0.6477896906887819  1.0000
  C   C16       1.0  0.9801387896678122  0.4552910031651012  0.3522076907051214  1.0000
  C   C17       1.0  0.08828904359940283  0.4054897113752673  0.6644509524573365  1.0000
  C   C18       1.0  0.9117105007900789  0.594509833050708  0.3355433134086069  1.0000
  C   C19       1.0  0.7067794265501772  0.2285726713580587  0.19308701245492438  1.0000
  C   C20       1.0  0.2932189932091448  0.771430545513276  0.8069142314529713  1.0000
  C   C21       1.0  0.725862665314537  0.02569444759873111  0.21827104031128644  1.0000
  C   C22       1.0  0.2741127901566928  0.9743077955859293  0.7817388250766085  1.0000
  C   C23       1.0  0.7563224329561536  0.0777544359286253  0.3337159382211681  1.0000
  C   C24       1.0  0.2436637421417558  0.9222505897064226  0.6662904486815221  1.0000
  C   C25       1.0  0.4538479908401384  0.6799531994994795  0.21648428121903857  1.0000
  C   C26       1.0  0.5461607008077962  0.3200454468341363  0.7835131754435236  1.0000
  C   C27       1.0  0.24970092854749734  0.8570100104054535  0.28007317060176706  1.0000
  C   C28       1.0  0.7502999044368296  0.14298586067121022  0.719923822031113  1.0000
  C   C29       1.0  0.30984868941192195  0.783183093041977  0.38921352570202566  1.0000
  C   C30       1.0  0.6901524047061401  0.2168164543233076  0.6107858269493107  1.0000
  Br  Br1       1.0  0.23108341347064962  0.15389407983173697  0.4214046105595486  1.0000
  Br  Br2       1.0  0.7689086577539186  0.8461017706507121  0.5785936225537113  1.0000
  Br  Br3       1.0  0.23479256622808012  0.1030553191989299  0.06206799374854909  1.0000
  Br  Br4       1.0  0.7652143690631449  0.896944241895831  0.9379305319158746  1.0000
  N   N1        1.0  0.903991898260017  0.5867028815784465  0.7687938704335409  1.0000
  N   N2        1.0  0.09601583066826441  0.4132985197466042  0.23120176171765647  1.0000
  N   N3        1.0  0.6927380453245108  0.13438589136503507  0.13704470333143348  1.0000
  N   N4        1.0  0.30726105599693915  0.8656154886262044  0.8629601095983118  1.0000
  N   N5        1.0  0.3822457469802459  0.7879973467168925  0.17494688824413623  1.0000
  N   N6        1.0  0.6177626187925113  0.21200221797459307  0.8250496661628546  1.0000
  O   O1        1.0  0.9828604552227562  0.3796107938581983  0.7868277477941558  1.0000
  O   O2        1.0  0.01714384063942734  0.6203878422604845  0.2131694468532359  1.0000
  O   O3        1.0  0.7386265077813333  0.21061035381265467  0.3064275962950233  1.0000
  O   O4        1.0  0.2613719566956335  0.789392862812143  0.6935762943789284  1.0000
  O   O5        1.0  0.40369634272626354  0.6614060657711605  0.3389348622089443  1.0000
  O   O6        1.0  0.5963117418889541  0.3385944170316649  0.661063436708531  1.0000
