data_image0
_chemical_formula_structural       Zn2H6C34I4N6Cl12O8
_chemical_formula_sum              "Zn2 H6 C34 I4 N6 Cl12 O8"
_cell_length_a       10.858502908717252
_cell_length_b       16.175210152453168
_cell_length_c       17.24857490582954
_cell_angle_alpha    89.36480012489082
_cell_angle_beta     90.70202075209026
_cell_angle_gamma    91.72794936170853

_space_group_name_H-M_alt    "P 1"
_space_group_IT_number       1

loop_
  _space_group_symop_operation_xyz
  'x, y, z'

loop_
  _atom_site_type_symbol
  _atom_site_label
  _atom_site_symmetry_multiplicity
  _atom_site_fract_x
  _atom_site_fract_y
  _atom_site_fract_z
  _atom_site_occupancy
  Zn  Zn1       1.0  0.5092992813673761  0.5888350311589791  0.48741309530426236  1.0000
  Zn  Zn2       1.0  0.49042840617819644  0.41110084756986964  0.5126421114660573  1.0000
  H   H1        1.0  0.0910010806431387  0.423097428494586  0.3947378320013186  1.0000
  H   H2        1.0  0.9087669052580695  0.5769907559261187  0.6051208363754482  1.0000
  H   H3        1.0  0.6323165907222617  0.29437912390068993  0.43311576539859686  1.0000
  H   H4        1.0  0.36778831375315235  0.705610826423687  0.5670333744383312  1.0000
  H   H5        1.0  0.07064921669744  0.6459416311052737  0.49120291728261367  1.0000
  H   H6        1.0  0.9291224248317962  0.3541494402973131  0.5086835084566984  1.0000
  C   C1        1.0  0.4825025926359531  0.4753054590549797  0.3506122390022312  1.0000
  C   C2        1.0  0.577874600604062  0.7694983739411614  0.4424380893379193  1.0000
  C   C3        1.0  0.4224536043874211  0.1436434134379709  0.5492750765538401  1.0000
  C   C4        1.0  0.5774399935920584  0.8562874027916153  0.4506669594736009  1.0000
  C   C5        1.0  0.5031174647964605  0.11008594260571411  0.49501587456900603  1.0000
  C   C6        1.0  0.49695201781243276  0.8898928362622557  0.5050345031766597  1.0000
  C   C7        1.0  0.5798552852229123  0.1656579553713016  0.452562044252815  1.0000
  C   C8        1.0  0.42030927363810383  0.8343163572735508  0.5475813502685296  1.0000
  C   C9        1.0  0.5745236152104028  0.25002619788990904  0.46519780936435495  1.0000
  C   C10       1.0  0.42554034455400813  0.7499389907041661  0.5349120343581646  1.0000
  C   C11       1.0  0.7370071562632177  0.4933388699157747  0.4942104145874637  1.0000
  C   C12       1.0  0.5175367568897045  0.5244686783472121  0.6494379921857032  1.0000
  C   C13       1.0  0.2627510453364224  0.5067036612866148  0.5057217595417356  1.0000
  C   C14       1.0  0.9637228072666915  0.5325796359134075  0.4319678977704341  1.0000
  C   C15       1.0  0.036063204954373894  0.46751156305337815  0.5679068598424306  1.0000
  C   C16       1.0  0.04863370227532469  0.45672110168711555  0.44155906962303243  1.0000
  C   C17       1.0  0.95114428497444  0.5433659847960756  0.5582955159779601  1.0000
  C   C18       1.0  0.12559098914579178  0.5064589739236068  0.504531841988843  1.0000
  C   C19       1.0  0.8741917980771419  0.49362457289876027  0.4953291755057379  1.0000
  C   C20       1.0  0.03904486955624979  0.5813163171847293  0.49541630351136934  1.0000
  C   C21       1.0  0.9607262507780164  0.41875786533769604  0.504455406079934  1.0000
  C   C22       1.0  0.47342741524511933  0.46908507152512163  0.26313477043541406  1.0000
  C   C23       1.0  0.466186038104503  0.4808004076835815  0.09938623186300789  1.0000
  C   C24       1.0  0.5271241099578249  0.530775310263749  0.7369042745445353  1.0000
  C   C25       1.0  0.5649860270574436  0.43299880511682437  0.21909593290546064  1.0000
  C   C26       1.0  0.43613885819880954  0.5673027100989146  0.7810824091643694  1.0000
  C   C27       1.0  0.5635437608309458  0.4398204306449359  0.13767463284158044  1.0000
  C   C28       1.0  0.4381202082300176  0.5607492364014703  0.8625094056861042  1.0000
  C   C29       1.0  0.5353283095477224  0.5194059072183562  0.9006484964830291  1.0000
  C   C30       1.0  0.3675771657973356  0.508858808766185  0.14377951177544185  1.0000
  C   C31       1.0  0.6334444629332197  0.490928986931955  0.8560709883521438  1.0000
  C   C32       1.0  0.3726341044877728  0.5044334392490057  0.22491433554446158  1.0000
  C   C33       1.0  0.6278958069509741  0.49521200962206546  0.7749298910598339  1.0000
  C   C34       1.0  0.42191340744765427  0.23043887377838956  0.5574857460622126  1.0000
  I   I1        1.0  0.9133800940518171  0.5834802036667102  0.3225260967319272  1.0000
  I   I2        1.0  0.0867232694705606  0.41678206832345677  0.6773446997972242  1.0000
  I   I3        1.0  0.29398284655679413  0.6324371049406639  0.7258629618298824  1.0000
  I   I4        1.0  0.7069719669865647  0.36795077731453324  0.27460835425143415  1.0000
  N   N1        1.0  0.45243767472253893  0.489800500507755  0.017954647837434792  1.0000
  N   N2        1.0  0.5492409988596734  0.5104222808346607  0.9820598253727013  1.0000
  N   N3        1.0  0.4962118059790441  0.28124265609869786  0.5161798615222393  1.0000
  N   N4        1.0  0.5036647448993108  0.7187152918502664  0.48383184667934387  1.0000
  N   N5        1.0  0.5020354127260092  0.026256302859671603  0.47292689965856033  1.0000
  N   N6        1.0  0.498067774430517  0.9736957881821129  0.5271140296246415  1.0000
  Cl  Cl1       1.0  0.6815513325127541  0.13078447709236232  0.3860624945832569  1.0000
  Cl  Cl2       1.0  0.3246864170309038  0.2747019820791651  0.6203484626711313  1.0000
  Cl  Cl3       1.0  0.6788805779621895  0.9164476564316361  0.3986322106367268  1.0000
  Cl  Cl4       1.0  0.3208504338605564  0.0834710682115585  0.601181521554025  1.0000
  Cl  Cl5       1.0  0.3188624808249614  0.8692177971411327  0.6142096211461022  1.0000
  Cl  Cl6       1.0  0.32794664636566045  0.6076982409765322  0.9153963484608524  1.0000
  Cl  Cl7       1.0  0.6746758512807035  0.3935121509065881  0.08502474737212397  1.0000
  Cl  Cl8       1.0  0.2437896685896348  0.5521691523663322  0.09811490033593627  1.0000
  Cl  Cl9       1.0  0.7571170676034882  0.44724091537448624  0.9015209028537752  1.0000
  Cl  Cl10      1.0  0.2529116966234497  0.5414279123992147  0.2776533912909329  1.0000
  Cl  Cl11      1.0  0.7470436615177931  0.4577712334297601  0.7219855436200433  1.0000
  Cl  Cl12      1.0  0.6748115652979364  0.7252227591255931  0.3794088189897877  1.0000
  O   O1        1.0  0.498688360603083  0.5486549523564861  0.3747382327349128  1.0000
  O   O2        1.0  0.5009308882418537  0.4511412514587292  0.625339588215425  1.0000
  O   O3        1.0  0.47351174765551474  0.40936300686949073  0.3903505912428925  1.0000
  O   O4        1.0  0.5266153223799463  0.5904057131313108  0.6096773085703332  1.0000
  O   O5        1.0  0.6912989967470793  0.5645448914392476  0.48835622489842473  1.0000
  O   O6        1.0  0.30843105474268384  0.43547746161473816  0.5113880380509241  1.0000
  O   O7        1.0  0.678431669596307  0.4242369795061265  0.500776205539786  1.0000
  O   O8        1.0  0.3213739478978539  0.5758228155413863  0.4994285190684947  1.0000
