data_image0
_chemical_formula_structural       Mn2V4H18C10N4O14
_chemical_formula_sum              "Mn2 V4 H18 C10 N4 O14"
_cell_length_a       5.860164088530741
_cell_length_b       7.839493036571579
_cell_length_c       11.912059518713043
_cell_angle_alpha    100.35166588281876
_cell_angle_beta     101.51629482475813
_cell_angle_gamma    98.44055379904412

_space_group_name_H-M_alt    "P 1"
_space_group_IT_number       1

loop_
  _space_group_symop_operation_xyz
  'x, y, z'

loop_
  _atom_site_type_symbol
  _atom_site_label
  _atom_site_symmetry_multiplicity
  _atom_site_fract_x
  _atom_site_fract_y
  _atom_site_fract_z
  _atom_site_occupancy
  Mn  Mn1       1.0  0.4976850296969957  0.14701258754583077  0.9200296732990052  1.0000
  Mn  Mn2       1.0  0.5024031394022543  0.8528876175818426  0.0798964816993291  1.0000
  V   V1        1.0  0.2665175215320232  0.4263499900909764  0.1005358911031635  1.0000
  V   V2        1.0  0.7335786675646929  0.5737594690882445  0.8994813884282277  1.0000
  V   V3        1.0  0.2252818095798048  0.6963974597712833  0.7955158537015025  1.0000
  V   V4        1.0  0.7746558823739491  0.30351411851901816  0.20444887920332624  1.0000
  H   H1        1.0  0.6174900340840922  0.13826513963623915  0.6561050395037639  1.0000
  H   H2        1.0  0.3824987478720915  0.8617038454193774  0.34393055473664447  1.0000
  H   H3        1.0  0.000527708300325018  0.22813292612869418  0.7696372477543179  1.0000
  H   H4        1.0  0.9994672982654933  0.771860149219293  0.23037421527103416  1.0000
  H   H5        1.0  0.9569053715318672  0.2806222524806046  0.5405561919465284  1.0000
  H   H6        1.0  0.04312010008475653  0.7194013286778755  0.45944943372466435  1.0000
  H   H7        1.0  0.22101614786087959  0.16895111306838828  0.3848689909824543  1.0000
  H   H8        1.0  0.779022036538521  0.8310815027628493  0.6151566296361678  1.0000
  H   H9        1.0  0.5279343620453503  0.19756217541408458  0.4519721452117054  1.0000
  H   H10       1.0  0.4720864257132292  0.8024295642676974  0.5480417011469001  1.0000
  H   H11       1.0  0.2298401143499404  0.4881582598381156  0.46477944647252656  1.0000
  H   H12       1.0  0.7702134038072899  0.511873026357378  0.5352475259604219  1.0000
  H   H13       1.0  0.4135430077016268  0.4510252800281193  0.365546513126759  1.0000
  H   H14       1.0  0.5865330475367543  0.5489648647259386  0.6344935858448649  1.0000
  H   H15       1.0  0.7972907540688753  0.9304421475276496  0.9120971658292873  1.0000
  H   H16       1.0  0.20257790750067534  0.06960147157191439  0.0878836731396646  1.0000
  H   H17       1.0  0.9515937189088672  0.11336510893651308  0.9156606186680205  1.0000
  H   H18       1.0  0.04830609296475788  0.886684805416763  0.08434925622966458  1.0000
  C   C1        1.0  0.44382576298261256  0.16925657585090192  0.6579116132209819  1.0000
  C   C2        1.0  0.5561460687647681  0.8307207215942752  0.3420905859231027  1.0000
  C   C3        1.0  0.11982248325595891  0.21340218630295738  0.7116297667437692  1.0000
  C   C4        1.0  0.8801641461536679  0.786598915485925  0.2883734588900069  1.0000
  C   C5        1.0  0.096316124529551  0.24261539699121928  0.599972239495429  1.0000
  C   C6        1.0  0.9036870116434769  0.7574094403272368  0.4000380496078505  1.0000
  C   C7        1.0  0.363975016013633  0.24662976709677042  0.45842594984493695  1.0000
  C   C8        1.0  0.6360532257357434  0.7533843731758832  0.5415955806513962  1.0000
  C   C9        1.0  0.39449015919206687  0.44213069335391697  0.4541917859478842  1.0000
  C   C10       1.0  0.6055434507094047  0.5578635932893617  0.5458311955690432  1.0000
  N   N1        1.0  0.33709352897886197  0.16717714779442613  0.7470138433766919  1.0000
  N   N2        1.0  0.6628727692033606  0.8327988901979777  0.25298261734957345  1.0000
  N   N3        1.0  0.3033642205803204  0.21440344452126675  0.5673603530343811  1.0000
  N   N4        1.0  0.6966408058576407  0.7856015508649746  0.432650205384128  1.0000
  O   O1        1.0  0.3375901249320563  0.8833282848290265  0.9050647168001831  1.0000
  O   O2        1.0  0.6623046748800335  0.11649793530160217  0.0949591755483254  1.0000
  O   O3        1.0  0.7983618303637527  0.03250995723576009  0.8738265065658694  1.0000
  O   O4        1.0  0.20164110588521572  0.9674723214033134  0.1260895499762782  1.0000
  O   O5        1.0  0.714820846768781  0.3902674652290941  0.9543672557326982  1.0000
  O   O6        1.0  0.2852754240092922  0.6098146837670201  0.04560974064099099  1.0000
  O   O7        1.0  0.22207995048569984  0.23764539575865473  0.9937578767946037  1.0000
  O   O8        1.0  0.7778001175271427  0.7624570319350781  0.006285037623833008  1.0000
  O   O9        1.0  0.052845914685455936  0.417287121873251  0.18657696542667418  1.0000
  O   O10       1.0  0.9471155981790035  0.5826904528386478  0.8134007419585457  1.0000
  O   O11       1.0  0.45798034140149463  0.5692506041913103  0.8042075575064374  1.0000
  O   O12       1.0  0.5420993372268511  0.430745945611008  0.19573630281877283  1.0000
  O   O13       1.0  0.18252442766189605  0.7486962860280143  0.6682781361809589  1.0000
  O   O14       1.0  0.8174720340784137  0.25130229448141955  0.3317148377893417  1.0000
