data_image0
_chemical_formula_structural       Cd2H54C44N4O10
_chemical_formula_sum              "Cd2 H54 C44 N4 O10"
_cell_length_a       8.330901709539289
_cell_length_b       10.238264657270173
_cell_length_c       14.087
_cell_angle_alpha    90.65656516936231
_cell_angle_beta     105.63620149446517
_cell_angle_gamma    100.26752195080401

_space_group_name_H-M_alt    "P 1"
_space_group_IT_number       1

loop_
  _space_group_symop_operation_xyz
  'x, y, z'

loop_
  _atom_site_type_symbol
  _atom_site_label
  _atom_site_symmetry_multiplicity
  _atom_site_fract_x
  _atom_site_fract_y
  _atom_site_fract_z
  _atom_site_occupancy
  Cd  Cd1       1.0  0.29157296435421637  0.3823637743228616  0.009014760714563901  1.0000
  Cd  Cd2       1.0  0.708428268427582  0.6176331907961484  0.9909842747119485  1.0000
  H   H1        1.0  0.013870603806580612  0.2014793376093564  0.9504161854095301  1.0000
  H   H2        1.0  0.9861245841319288  0.7985235950281507  0.0495840658140665  1.0000
  H   H3        1.0  0.9220212252658939  0.32119372603980884  0.964932335873371  1.0000
  H   H4        1.0  0.0779791875956946  0.6788102011841133  0.035069466340523506  1.0000
  H   H5        1.0  0.2580963214315091  0.8708121248447256  0.003576117837553712  1.0000
  H   H6        1.0  0.7418934025784196  0.12918881861994444  0.9964196965186148  1.0000
  H   H7        1.0  0.3800773092602654  0.6841948920350376  0.7641577806508765  1.0000
  H   H8        1.0  0.6199249309954098  0.3158010784975644  0.2358421169543163  1.0000
  H   H9        1.0  0.3460553138004059  0.10067104234204292  0.7652685577532027  1.0000
  H   H10       1.0  0.6539402160473031  0.8993229390177291  0.2347259944261495  1.0000
  H   H11       1.0  0.4934824883888425  0.7986956584779464  0.5469713539316956  1.0000
  H   H12       1.0  0.5065234913050035  0.20130031205464863  0.4530284298513081  1.0000
  H   H13       1.0  0.3765715196226651  0.6903334793885492  0.6121089576179344  1.0000
  H   H14       1.0  0.623431728106894  0.3096614965576379  0.38789109229158214  1.0000
  H   H15       1.0  0.5860745941965106  0.7759136620554727  0.6735536515713464  1.0000
  H   H16       1.0  0.413928124070182  0.22408429764995935  0.32644704866765306  1.0000
  H   H17       1.0  0.1657478069167624  0.9876581260542565  0.5868179525426882  1.0000
  H   H18       1.0  0.8342554408127967  0.012336849891923402  0.4131799677437726  1.0000
  H   H19       1.0  0.1324645366772472  0.8115745579660611  0.5675609890181832  1.0000
  H   H20       1.0  0.8675374645729195  0.1884204179801259  0.4324367325842219  1.0000
  H   H21       1.0  0.23983116066924032  0.915460103601447  0.49498062221604755  1.0000
  H   H22       1.0  0.7601720870603188  0.084534872344733  0.5050158783217142  1.0000
  H   H23       1.0  0.6386515615111746  0.0374054004825339  0.7044058748437365  1.0000
  H   H24       1.0  0.3613484247912311  0.962591564636476  0.2955936717730765  1.0000
  H   H25       1.0  0.4678249338424578  0.1203757883964442  0.6532982993890571  1.0000
  H   H26       1.0  0.5321735669750467  0.8796201821361579  0.3467002922896256  1.0000
  H   H27       1.0  0.5525338951458352  0.03501043639516151  0.5740430729064273  1.0000
  H   H28       1.0  0.4474695915892326  0.9649855341374334  0.4259563135084647  1.0000
  H   H29       1.0  0.09147606808652851  0.1970066825010051  0.15363274422783493  1.0000
  H   H30       1.0  0.9085298601554754  0.802994260963672  0.8463713320158562  1.0000
  H   H31       1.0  0.028366232805311104  0.30609292050053943  0.3193997840350278  1.0000
  H   H32       1.0  0.9716309186291171  0.6939129958962056  0.6806000951374501  1.0000
  H   H33       1.0  0.4704938411594668  0.6192195561281082  0.1629282527279159  1.0000
  H   H34       1.0  0.5295158265207078  0.3807813873365617  0.8370742899448801  1.0000
  H   H35       1.0  0.4739114888027417  0.6685371181033588  0.28483923237129016  1.0000
  H   H36       1.0  0.5260966933925318  0.3314628307749032  0.7151644849864311  1.0000
  H   H37       1.0  0.31152651548320875  0.7020407560797609  0.18276420960747689  1.0000
  H   H38       1.0  0.6884831521969661  0.2979601873849091  0.8172397528140252  1.0000
  H   H39       1.0  0.184358314557862  0.6660794950718412  0.3352612470282139  1.0000
  H   H40       1.0  0.8156393663394326  0.33392343756566595  0.6647401114378441  1.0000
  H   H41       1.0  0.3452382130154561  0.5975972474655437  0.4148891052681591  1.0000
  H   H42       1.0  0.6547584604079546  0.4024066797583714  0.5851121008935678  1.0000
  H   H43       1.0  0.35967277516539303  0.4015284599539087  0.4637908428832987  1.0000
  H   H44       1.0  0.6403310866770084  0.5984794456156735  0.5362129619663066  1.0000
  H   H45       1.0  0.2965754856281748  0.29642653513294454  0.5505956916723278  1.0000
  H   H46       1.0  0.7034293836881105  0.7035803758502155  0.4494089753559579  1.0000
  H   H47       1.0  0.4171394348217917  0.4573834384350874  0.590562288059779  1.0000
  H   H48       1.0  0.5828559406703918  0.5426254617209026  0.4094394625068176  1.0000
  H   H49       1.0  0.7405838767959948  0.6196880063295822  0.297256988857427  1.0000
  H   H50       1.0  0.2594138041012997  0.38031492630791774  0.7027422399855751  1.0000
  H   H51       1.0  0.9331511585619695  0.6336460320779908  0.26735642990237113  1.0000
  H   H52       1.0  0.066847529809209  0.3663559059730943  0.7326436611193118  1.0000
  H   H53       1.0  0.9035168606444799  0.7584338058114711  0.345743512616238  1.0000
  H   H54       1.0  0.09648283520057531  0.24156713765320603  0.6542567307097685  1.0000
  C   C1        1.0  0.28301522216391106  0.1196477511406471  0.9405227100322123  1.0000
  C   C2        1.0  0.7169852421495123  0.880351203151193  0.05947267009793224  1.0000
  C   C3        1.0  0.3018178685993718  0.9970181788060231  0.8886602002087542  1.0000
  C   C4        1.0  0.6981694139036209  0.0029777917265719003  0.11133589343908314  1.0000
  C   C5        1.0  0.2864138126653373  0.8755374049024951  0.9324721823734876  1.0000
  C   C6        1.0  0.7135744258596971  0.1244625439757669  0.06752196717019389  1.0000
  C   C7        1.0  0.3149039024722242  0.7640442677786083  0.8863354372656715  1.0000
  C   C8        1.0  0.6850903294442504  0.2359546865132387  0.11366249881596252  1.0000
  C   C9        1.0  0.3018176529358527  0.633493860356495  0.9315444795234102  1.0000
  C   C10       1.0  0.698175571506745  0.36650608852176  0.06845259437954347  1.0000
  C   C11       1.0  0.3554277188833197  0.7733426561726375  0.7960134121098081  1.0000
  C   C12       1.0  0.6445697744603011  0.22665430894637245  0.20398360751583772  1.0000
  C   C13       1.0  0.36265671865943006  0.8924762061367204  0.7485511309559101  1.0000
  C   C14       1.0  0.6373395282048052  0.1075207589822895  0.25144710973438583  1.0000
  C   C15       1.0  0.3373150812854604  0.0041146039989428  0.7971182459906744  1.0000
  C   C16       1.0  0.6626771871350954  0.9958813665336522  0.20287722264467334  1.0000
  C   C17       1.0  0.3940541998248648  0.9026528143352196  0.6465254522058146  1.0000
  C   C18       1.0  0.6059467939514249  0.0973431561973825  0.3534721170922666  1.0000
  C   C19       1.0  0.46688787101336265  0.7845983906314373  0.6188646017741491  1.0000
  C   C20       1.0  0.533116623195582  0.2153965853147497  0.38113493694507383  1.0000
  C   C21       1.0  0.22291753923064317  0.9047275215969536  0.5695133666691136  1.0000
  C   C22       1.0  0.777085708498916  0.0952674543492265  0.4304831338686483  1.0000
  C   C23       1.0  0.5206541817615218  0.0315413189795706  0.6447784919733479  1.0000
  C   C24       1.0  0.4793472900257854  0.9684566407258544  0.3552205898328893  1.0000
  C   C25       1.0  0.1393368887699253  0.2946153932711937  0.19163436350528684  1.0000
  C   C26       1.0  0.8606680319981947  0.7053865447798913  0.8083688505597167  1.0000
  C   C27       1.0  0.1079745734415312  0.3468192450228287  0.2734909102488601  1.0000
  C   C28       1.0  0.8920241149296402  0.6531826930282563  0.7265106005215216  1.0000
  C   C29       1.0  0.2843294650163344  0.4989312913361914  0.2193243402044232  1.0000
  C   C30       1.0  0.7156791951899634  0.5010706467149006  0.7806808896614541  1.0000
  C   C31       1.0  0.39090898489302367  0.6285577279787448  0.21200503301277965  1.0000
  C   C32       1.0  0.6091011607981685  0.37144520465875536  0.7879976024194661  1.0000
  C   C33       1.0  0.2127199251528964  0.5742085533299034  0.3695833353797084  1.0000
  C   C34       1.0  0.7872775167388893  0.4257933847211818  0.630417266832275  1.0000
  C   C35       1.0  0.09841692570680038  0.5304368052048218  0.4344060189398463  1.0000
  C   C36       1.0  0.9015812332015116  0.4695681166055152  0.5655947224113049  1.0000
  C   C37       1.0  0.15351931723432702  0.45376413847082386  0.5150195238811506  1.0000
  C   C38       1.0  0.8464783636629606  0.5462387941666762  0.48498041483620113  1.0000
  C   C39       1.0  0.3149624239881774  0.4001678657381618  0.5300787059207366  1.0000
  C   C40       1.0  0.6850387058899372  0.5998390452450053  0.4699239453066896  1.0000
  C   C41       1.0  0.9432097907824473  0.5747297166113797  0.4171998125585858  1.0000
  C   C42       1.0  0.05678539715606949  0.4252732160261274  0.5827983090419551  1.0000
  C   C43       1.0  0.8782290216965694  0.6501521882216892  0.327884119773266  1.0000
  C   C44       1.0  0.12176818118970091  0.349848755242988  0.6721128866872306  1.0000
  N   N1        1.0  0.24863063171985536  0.3896521035721392  0.1589843604801402  1.0000
  N   N2        1.0  0.7513802824397118  0.6103488398925379  0.8410219302484734  1.0000
  N   N3        1.0  0.20057447661863395  0.47551574336733893  0.2902761585045823  1.0000
  N   N4        1.0  0.7994264657058139  0.524485200097331  0.7097242835054872  1.0000
  O   O1        1.0  0.3476412739882663  0.2315367336577125  0.9125337171281204  1.0000
  O   O2        1.0  0.6523544948649516  0.7684582422884674  0.08745946168225771  1.0000
  O   O3        1.0  0.2069953057394898  0.1089380446236987  0.007335896133810106  1.0000
  O   O4        1.0  0.793009854034146  0.8910648880138085  0.9926680741852748  1.0000
  O   O5        1.0  0.20437974740963938  0.6042052796069513  0.9868085830591012  1.0000
  O   O6        1.0  0.7956184629505146  0.39579466927131085  0.013191415203131414  1.0000
  O   O7        1.0  0.3898489750855703  0.5504180462825943  0.9122316598092367  1.0000
  O   O8        1.0  0.6101444883625291  0.4495828971820757  0.0877654604734488  1.0000
  O   O9        1.0  0.9949843665253653  0.2891501409206541  0.9271665309086361  1.0000
  O   O10       1.0  0.005019785774386788  0.710853786303268  0.07283728710611831  1.0000
