data_image0
_chemical_formula_structural       Gd4H24C24N36
_chemical_formula_sum              "Gd4 H24 C24 N36"
_cell_length_a       9.37200372713777
_cell_length_b       9.372011328825064
_cell_length_c       12.685757385939558
_cell_angle_alpha    91.71324674197443
_cell_angle_beta     91.71320202026588
_cell_angle_gamma    119.48933139891047

_space_group_name_H-M_alt    "P 1"
_space_group_IT_number       1

loop_
  _space_group_symop_operation_xyz
  'x, y, z'

loop_
  _atom_site_type_symbol
  _atom_site_label
  _atom_site_symmetry_multiplicity
  _atom_site_fract_x
  _atom_site_fract_y
  _atom_site_fract_z
  _atom_site_occupancy
  Gd  Gd1       1.0  0.5195213694184986  0.2573922372131107  0.42841377568354494  1.0000
  Gd  Gd2       1.0  0.7426077378203146  0.48047831292173265  0.0715863353985569  1.0000
  Gd  Gd3       1.0  0.4804781150057024  0.7426083119623853  0.5715873396905522  1.0000
  Gd  Gd4       1.0  0.2573922073753038  0.5195210079157915  0.9284123982585584  1.0000
  H   H1        1.0  0.22190691626482825  0.29379030935538  0.23380763760246032  1.0000
  H   H2        1.0  0.7062099158244378  0.7780928728754617  0.2661925803461358  1.0000
  H   H3        1.0  0.7780919620751232  0.7062090120424428  0.7661926492047187  1.0000
  H   H4        1.0  0.2937895679029268  0.2219076756026155  0.7338069584260297  1.0000
  H   H5        1.0  0.13325919524311297  0.535064290757532  0.27136544673837193  1.0000
  H   H6        1.0  0.4649365096962939  0.8667400609257215  0.2286364465238364  1.0000
  H   H7        1.0  0.866740289181088  0.4649362584179642  0.7286356686357252  1.0000
  H   H8        1.0  0.5350623686436506  0.1332592604721015  0.7713638402833355  1.0000
  H   H9        1.0  0.09886790235052703  0.7452227432860283  0.6633670664439324  1.0000
  H   H10       1.0  0.25478054164999264  0.9011322876777899  0.8366328696038465  1.0000
  H   H11       1.0  0.9011321871126655  0.25477903262101614  0.3366325125941927  1.0000
  H   H12       1.0  0.7452204710981362  0.09886703329684109  0.1633658875051509  1.0000
  H   H13       1.0  0.028553318590162642  0.988533203085936  0.5996117130450642  1.0000
  H   H14       1.0  0.01146849322311274  0.9714470929341983  0.9003874976697405  1.0000
  H   H15       1.0  0.9714472326897052  0.0114673455292618  0.4003878491789835  1.0000
  H   H16       1.0  0.9885314519725057  0.028552227903325896  0.09961123598737488  1.0000
  H   H17       1.0  0.10987224787440641  0.8432605887143224  0.339522314726473  1.0000
  H   H18       1.0  0.15673890553484426  0.8901277778660841  0.1604773001977051  1.0000
  H   H19       1.0  0.8901270915853843  0.15673750469422743  0.6604763786646899  1.0000
  H   H20       1.0  0.8432610400091961  0.1098715433201463  0.839522221760376  1.0000
  H   H21       1.0  0.9189253803905472  0.641405501612624  0.4953026201711311  1.0000
  H   H22       1.0  0.3585958691792044  0.08107481409030733  0.0046967399696456  1.0000
  H   H23       1.0  0.08107517054090607  0.3585950466538677  0.5046961537519508  1.0000
  H   H24       1.0  0.6414072793707887  0.9189245078559694  0.9953036406450337  1.0000
  C   C1        1.0  0.263366634712817  0.3898582544094324  0.2957772602940025  1.0000
  C   C2        1.0  0.6101415453830867  0.7366313589935628  0.2042229250635046  1.0000
  C   C3        1.0  0.7366334557956336  0.610143522543737  0.7042246836470198  1.0000
  C   C4        1.0  0.3898573326084431  0.263367962055554  0.7957765734427086  1.0000
  C   C5        1.0  0.21896436532558983  0.5096570514690555  0.31475596307163306  1.0000
  C   C6        1.0  0.49034485393291755  0.7810359684585036  0.1852443686177807  1.0000
  C   C7        1.0  0.7810389274919773  0.4903447255467413  0.6852452629240559  1.0000
  C   C8        1.0  0.5096544855268732  0.21896212495005327  0.8147543247733822  1.0000
  C   C9        1.0  0.16873404997696892  0.8521110432080121  0.6181141007322211  1.0000
  C   C10       1.0  0.14789008049076083  0.8312659628632416  0.8818865832135927  1.0000
  C   C11       1.0  0.8312654340988105  0.14788950561877096  0.3818862263409102  1.0000
  C   C12       1.0  0.8521104704406923  0.16873458540325  0.11811219070948203  1.0000
  C   C13       1.0  0.13404947670830564  0.9732337277435759  0.5863805484789638  1.0000
  C   C14       1.0  0.026767979300075174  0.865948998686463  0.9136201607023438  1.0000
  C   C15       1.0  0.8659500073674808  0.026766821083206993  0.41361977859416754  1.0000
  C   C16       1.0  0.9732319665923865  0.1340503228484735  0.08638014955670312  1.0000
  C   C17       1.0  0.9976968273050346  0.7255162174676002  0.3324811448814557  1.0000
  C   C18       1.0  0.2744826211282644  0.0023023900819439  0.16751892804583687  1.0000
  C   C19       1.0  0.0023025121547561637  0.2744818759409568  0.6675175485097  1.0000
  C   C20       1.0  0.7255162568632655  0.997696930967173  0.832480570460369  1.0000
  C   C21       1.0  0.9034943135233817  0.6245748044593641  0.4102087924337212  1.0000
  C   C22       1.0  0.375427732564809  0.09650651082560559  0.0897906067437617  1.0000
  C   C23       1.0  0.09650623740807156  0.3754257438071206  0.5897899814893535  1.0000
  C   C24       1.0  0.624574348084252  0.9034928106348514  0.9102089621180838  1.0000
  N   N1        1.0  0.3789430491324524  0.4118366839137265  0.3712539444117482  1.0000
  N   N2        1.0  0.5881650068066122  0.6210573322593476  0.12874630717711  1.0000
  N   N3        1.0  0.6210581085800939  0.5881650928278505  0.6287472346801836  1.0000
  N   N4        1.0  0.41183493873742794  0.3789419889268828  0.8712532147809711  1.0000
  N   N5        1.0  0.40450464227463817  0.5409265815085575  0.4328232415976815  1.0000
  N   N6        1.0  0.45907378907273966  0.595495936904932  0.0671770160321827  1.0000
  N   N7        1.0  0.5954969772545838  0.4590739679411655  0.5671779206801659  1.0000
  N   N8        1.0  0.5409255507354658  0.40450215685233104  0.932822465659946  1.0000
  N   N9        1.0  0.30967723369375477  0.6022068519279955  0.4010192686563415  1.0000
  N   N10       1.0  0.39779348921485547  0.6903220495653103  0.09898179442910052  1.0000
  N   N11       1.0  0.6903228564662811  0.39779492467646094  0.5989818869837151  1.0000
  N   N12       1.0  0.6022047830408397  0.30967604405483945  0.9010176638111533  1.0000
  N   N13       1.0  0.31534516554277997  0.8861998756499572  0.5803718509093585  1.0000
  N   N14       1.0  0.11380109728362693  0.6846545264378533  0.9196287893171304  1.0000
  N   N15       1.0  0.6846543188814137  0.11380067352553881  0.41962926446473864  1.0000
  N   N16       1.0  0.8861988486088349  0.31534479509707586  0.08037152094191669  1.0000
  N   N17       1.0  0.36763093552092846  0.0230823546093077  0.527965337737534  1.0000
  N   N18       1.0  0.9769187749284569  0.6323691073489358  0.9720350422426947  1.0000
  N   N19       1.0  0.6323696161073613  0.9769181943545958  0.47203501278747234  1.0000
  N   N20       1.0  0.023081170964005047  0.36763021418600056  0.0279652680163522  1.0000
  N   N21       1.0  0.2609454054879592  0.07829593765323747  0.5299823937746098  1.0000
  N   N22       1.0  0.9217042234125189  0.7390542602476772  0.9700172163624361  1.0000
  N   N23       1.0  0.7390534725035707  0.9217033833958795  0.47001710473160335  1.0000
  N   N24       1.0  0.07829465457901105  0.2609450608014398  0.029982282143770102  1.0000
  N   N25       1.0  0.9257691876227057  0.6477372096937088  0.2378691236181965  1.0000
  N   N26       1.0  0.3522610968613478  0.07423013859971658  0.2621301499929629  1.0000
  N   N27       1.0  0.07422908428457478  0.3522608835777347  0.7621295463210843  1.0000
  N   N28       1.0  0.6477373193135064  0.9257704097412542  0.7378693653273203  1.0000
  N   N29       1.0  0.7940882182564338  0.505620506143174  0.2578976894075566  1.0000
  N   N30       1.0  0.4943803580145528  0.20591078847643024  0.24210163026990023  1.0000
  N   N31       1.0  0.20591065973509615  0.49437881490594293  0.7421018090986494  1.0000
  N   N32       1.0  0.5056195875294874  0.7940885327098001  0.7578978916881879  1.0000
  N   N33       1.0  0.7768423473155508  0.4882238381767364  0.36160589112576264  1.0000
  N   N34       1.0  0.511776515211011  0.22315773890262844  0.1383934409991738  1.0000
  N   N35       1.0  0.22315713641181384  0.5117767103013477  0.6383936476464029  1.0000
  N   N36       1.0  0.48822343068144375  0.7768415826323006  0.8616068692598731  1.0000
