data_image0
_chemical_formula_structural       Zn2H44C48Br2N2O12
_chemical_formula_sum              "Zn2 H44 C48 Br2 N2 O12"
_cell_length_a       11.030125012219681
_cell_length_b       14.11500228205039
_cell_length_c       15.228029375547365
_cell_angle_alpha    87.93783753084733
_cell_angle_beta     89.32630153790606
_cell_angle_gamma    88.91591064753256

_space_group_name_H-M_alt    "P 1"
_space_group_IT_number       1

loop_
  _space_group_symop_operation_xyz
  'x, y, z'

loop_
  _atom_site_type_symbol
  _atom_site_label
  _atom_site_symmetry_multiplicity
  _atom_site_fract_x
  _atom_site_fract_y
  _atom_site_fract_z
  _atom_site_occupancy
  Zn  Zn1       1.0  0.4967486458523354  0.6035953561745373  0.4958409133496744  1.0000
  Zn  Zn2       1.0  0.500210172586776  0.3984125744724737  0.4951370170496218  1.0000
  H   H1        1.0  0.6204949342547722  0.9414011682094313  0.395227807296635  1.0000
  H   H2        1.0  0.5814274279205449  0.6272587468249855  0.20798672139081728  1.0000
  H   H3        1.0  0.5063381920904391  0.3589796605133487  0.9498129241474514  1.0000
  H   H4        1.0  0.3213191283909751  0.3971140099925138  0.0640377942707957  1.0000
  H   H5        1.0  0.3055057025440179  0.0744760146608883  0.5403238014626411  1.0000
  H   H6        1.0  0.6871346573549175  0.06530169148679478  0.4723935865882679  1.0000
  H   H7        1.0  0.3178988587698015  0.25208505689491295  0.5356066878869682  1.0000
  H   H8        1.0  0.6819254226540324  0.2434231417664847  0.4695120878951186  1.0000
  H   H9        1.0  0.7260818740080098  0.7338990944194208  0.27826537301007187  1.0000
  H   H10       1.0  0.7301301628851888  0.8505692400597128  0.3172837190249708  1.0000
  H   H11       1.0  0.5016925684597878  0.7608281702456313  0.2451727676325177  1.0000
  H   H12       1.0  0.36286095832467424  0.9310170001718351  0.6113685416083142  1.0000
  H   H13       1.0  0.5161340941510915  0.8813298699050879  0.2691087886377375  1.0000
  H   H14       1.0  0.673061116441005  0.9011761370681272  0.14694775246238828  1.0000
  H   H15       1.0  0.5344329592626025  0.8591424880822559  0.10675194594502099  1.0000
  H   H16       1.0  0.6590308022439617  0.7796200053569393  0.12315288001281031  1.0000
  H   H17       1.0  0.19833318805721228  0.7312408209075513  0.5371757137042791  1.0000
  H   H18       1.0  0.19586951149337045  0.8310355405297047  0.6075007981322997  1.0000
  H   H19       1.0  0.19553399645670314  0.6223695926332767  0.6701241212676621  1.0000
  H   H20       1.0  0.18178225929441544  0.7207081022973726  0.7386500095592793  1.0000
  H   H21       1.0  0.9826739377806392  0.7685021648568412  0.6659400087314892  1.0000
  H   H22       1.0  0.97679834568644  0.6502433620765231  0.7093563342743605  1.0000
  H   H23       1.0  0.2326273329484962  0.5611905415540407  0.3502082713856892  1.0000
  H   H24       1.0  0.9988463273925418  0.6715285851753592  0.5951867658643479  1.0000
  H   H25       1.0  0.4010589856149593  0.2734448384144842  0.736141382457852  1.0000
  H   H26       1.0  0.4371387056771853  0.23969588409693196  0.8475685736038939  1.0000
  H   H27       1.0  0.5817231069031409  0.1873664136914925  0.6822566264122614  1.0000
  H   H28       1.0  0.6326679471601083  0.1640749521588845  0.7903686984579466  1.0000
  H   H29       1.0  0.4544054383161369  0.05998401117894052  0.8236667900009706  1.0000
  H   H30       1.0  0.5329144930295514  0.020152904190752007  0.7291596188124385  1.0000
  H   H31       1.0  0.3952239066552607  0.08623635926768002  0.7175507075407025  1.0000
  H   H32       1.0  0.44025041748955823  0.2831954797399591  0.26724908724957425  1.0000
  H   H33       1.0  0.3498325276131524  0.26260232504140646  0.1728761157299274  1.0000
  H   H34       1.0  0.7818919511755027  0.548201852922155  0.3338001096325698  1.0000
  H   H35       1.0  0.2587500920386674  0.2660111436053825  0.3639041167848944  1.0000
  H   H36       1.0  0.1659946002517003  0.2497153206689262  0.2721888034226012  1.0000
  H   H37       1.0  0.28191580291886703  0.09957825580431753  0.23690767455560993  1.0000
  H   H38       1.0  0.2239466615504995  0.09152454264466313  0.3459669343150935  1.0000
  H   H39       1.0  0.37936494062960685  0.11566988370746151  0.32690050134677046  1.0000
  H   H40       1.0  0.1288725744779384  0.6079919717422515  0.21278663076660814  1.0000
  H   H41       1.0  0.9030817387457618  0.6001718502479465  0.20394512479482066  1.0000
  H   H42       1.0  0.4050639669529943  0.6545933773202606  0.9198122051947593  1.0000
  H   H43       1.0  0.5704525044596167  0.6286782930863666  0.044297039623387484  1.0000
  H   H44       1.0  0.4340006478063358  0.644474198556523  0.7570490584263467  1.0000
  C   C1        1.0  0.4989801499750116  0.4970511728054206  0.664185932496842  1.0000
  C   C2        1.0  0.4474335590525342  0.5116242934696233  0.042798445188935795  1.0000
  C   C3        1.0  0.39142814189197855  0.10856564578235614  0.5252455606586963  1.0000
  C   C4        1.0  0.6025558807973752  0.10356646611167972  0.48552710395207294  1.0000
  C   C5        1.0  0.3968158260027864  0.20685369279412671  0.5223177502162386  1.0000
  C   C6        1.0  0.6010869991206178  0.20202769285959488  0.48397716319408346  1.0000
  C   C7        1.0  0.49556768745789975  0.05460930675008771  0.5054505734874155  1.0000
  C   C8        1.0  0.564629383854971  0.9023759847647316  0.4427471883222224  1.0000
  C   C9        1.0  0.41823539909893986  0.8974743688413369  0.5612930297688195  1.0000
  C   C10       1.0  0.5614426881680571  0.8034409955985994  0.44260100172352407  1.0000
  C   C11       1.0  0.42023649822193226  0.798659448213485  0.5570034120731222  1.0000
  C   C12       1.0  0.4769867478117007  0.5077601584925376  0.3255152157853871  1.0000
  C   C13       1.0  0.4925213746661683  0.9502025416279238  0.5036317072887257  1.0000
  C   C14       1.0  0.2619992326247242  0.4918283944018783  0.50180482204388  1.0000
  C   C15       1.0  0.7340854476809255  0.49012361856615894  0.489650855736599  1.0000
  C   C16       1.0  0.13421263633537  0.5578046803639864  0.3469471690165875  1.0000
  C   C17       1.0  0.8803372973285447  0.5507226738680943  0.33767914417564526  1.0000
  C   C18       1.0  0.07589703419795772  0.5845964748706795  0.2702233645885456  1.0000
  C   C19       1.0  0.9481759666482787  0.580393444141123  0.26548441148295143  1.0000
  C   C20       1.0  0.9375564202689688  0.5228139496847036  0.4179778400709822  1.0000
  C   C21       1.0  0.067039087254031  0.5254302684076109  0.42201204308153  1.0000
  C   C22       1.0  0.12558160620479702  0.4932396368366626  0.5008072859295537  1.0000
  C   C23       1.0  0.4845188818994117  0.49730586333001986  0.7620972525442509  1.0000
  C   C24       1.0  0.8704768586032756  0.4909277804998454  0.49382534065821193  1.0000
  C   C25       1.0  0.058580138784996905  0.461597049160254  0.572821477769949  1.0000
  C   C26       1.0  0.9298800481121178  0.4616002821541798  0.5700243445151472  1.0000
  C   C27       1.0  0.43262594744944494  0.5877831590897957  0.8910086882837118  1.0000
  C   C28       1.0  0.517444679741203  0.578653639716393  0.08434194254967758  1.0000
  C   C29       1.0  0.4486422948790221  0.5824816912184759  0.8006678679424295  1.0000
  C   C30       1.0  0.5237210525316627  0.5777932920188961  0.17549901571958765  1.0000
  C   C31       1.0  0.6697053054351018  0.7910865316838028  0.3052764033097688  1.0000
  C   C32       1.0  0.5659700988268028  0.819493933265335  0.24396218925282648  1.0000
  C   C33       1.0  0.6108380357338064  0.8411503772144828  0.1502241842000984  1.0000
  C   C34       1.0  0.46055172637796465  0.5112178613164036  0.22779248975567865  1.0000
  C   C35       1.0  0.2213800369681636  0.7553818404946925  0.6028084161814391  1.0000
  C   C36       1.0  0.15926095864568174  0.695170386314686  0.6734333209181073  1.0000
  C   C37       1.0  0.021960155019378605  0.6967053339898611  0.6602964653765467  1.0000
  C   C38       1.0  0.4762268997114845  0.25535121459314075  0.7814626035185412  1.0000
  C   C39       1.0  0.5506516660934011  0.17134432895153406  0.7499868144218879  1.0000
  C   C40       1.0  0.4794815158407318  0.07946070575544441  0.7553604425977055  1.0000
  C   C41       1.0  0.34798846864379124  0.289886896582658  0.24009681889656778  1.0000
  C   C42       1.0  0.2577655168039358  0.23636934820150665  0.2980557666390097  1.0000
  C   C43       1.0  0.2872837697954225  0.13010034398931233  0.30219015794188653  1.0000
  C   C44       1.0  0.5045363135992816  0.41650454068426535  0.8172870014831303  1.0000
  C   C45       1.0  0.38591465178969037  0.4470453553728504  0.1864766812144438  1.0000
  C   C46       1.0  0.48566897377779844  0.4214213515395643  0.9079577011408657  1.0000
  C   C47       1.0  0.3805690799693195  0.44699764218928106  0.09482861320051227  1.0000
  C   C48       1.0  0.4515056584926072  0.5068626811908105  0.9459817970307893  1.0000
  Br  Br1       1.0  0.14243388864041157  0.4185887109984705  0.6758707421495557  1.0000
  Br  Br2       1.0  0.8380161995475817  0.4243609319564002  0.6713996595309765  1.0000
  N   N1        1.0  0.49955276459510867  0.25258610358621786  0.5011061358956539  1.0000
  N   N2        1.0  0.4911849540938249  0.7523152516717531  0.49930621811039794  1.0000
  O   O1        1.0  0.5225883325925409  0.5764932579032304  0.6263171751379772  1.0000
  O   O2        1.0  0.35254627245298303  0.743826111251714  0.6120912790635487  1.0000
  O   O3        1.0  0.5552086289330873  0.3349556190106782  0.7844255268431082  1.0000
  O   O4        1.0  0.3123441151366535  0.3886651010709628  0.2370225009540405  1.0000
  O   O5        1.0  0.46616785629078095  0.5864439088309652  0.3637774793529188  1.0000
  O   O6        1.0  0.48312098164929307  0.41941728966669  0.6261578190433567  1.0000
  O   O7        1.0  0.5032491902527809  0.4274991800274466  0.3613340843538495  1.0000
  O   O8        1.0  0.31248740741140324  0.5700201337291729  0.514043972307121  1.0000
  O   O9        1.0  0.6810180051681486  0.570071377213772  0.4807999562904185  1.0000
  O   O10       1.0  0.3130083879667325  0.4125758730449932  0.487216708208912  1.0000
  O   O11       1.0  0.6854395228377682  0.40912576883599894  0.493769886395384  1.0000
  O   O12       1.0  0.6260193606046441  0.7497690000877102  0.38765016994955903  1.0000
