data_image0
_chemical_formula_structural       Cu12H24C60N76
_chemical_formula_sum              "Cu12 H24 C60 N76"
_cell_length_a       28.223776643251053
_cell_length_b       28.54729228891066
_cell_length_c       28.560081074556688
_cell_angle_alpha    89.9981308223065
_cell_angle_beta     89.99861572828469
_cell_angle_gamma    89.99842240319882

_space_group_name_H-M_alt    "P 1"
_space_group_IT_number       1

loop_
  _space_group_symop_operation_xyz
  'x, y, z'

loop_
  _atom_site_type_symbol
  _atom_site_label
  _atom_site_symmetry_multiplicity
  _atom_site_fract_x
  _atom_site_fract_y
  _atom_site_fract_z
  _atom_site_occupancy
  Cu  Cu1       1.0  0.8745193250304056  0.08091070852702839  0.1692255442264923  1.0000
  Cu  Cu2       1.0  0.8282894081306296  0.12673800668446233  0.07881154961138752  1.0000
  Cu  Cu3       1.0  0.9200296580822138  0.172367584204224  0.12505636829232  1.0000
  Cu  Cu4       1.0  0.1268495488327801  0.4175612472849012  0.6709250257580379  1.0000
  Cu  Cu5       1.0  0.17163772230706803  0.3732097934655769  0.5791899264218331  1.0000
  Cu  Cu6       1.0  0.0799239445198765  0.3273573734567492  0.6254578085968987  1.0000
  Cu  Cu7       1.0  0.37305732928559376  0.917855826503967  0.32953223692677375  1.0000
  Cu  Cu8       1.0  0.32799491757371146  0.8732072339557322  0.4210282284942224  1.0000
  Cu  Cu9       1.0  0.4196886678887068  0.8274082284241973  0.37483890899765987  1.0000
  Cu  Cu10      1.0  0.6268874270156174  0.5826909535796789  0.8292743793366171  1.0000
  Cu  Cu11      1.0  0.6716308553359127  0.6270668925421177  0.9210226126938822  1.0000
  Cu  Cu12      1.0  0.5799637885287438  0.6728866220309657  0.8747864244076524  1.0000
  H   H1        1.0  0.7986411807097724  0.0012042788489026004  0.1910841038985609  1.0000
  H   H2        1.0  0.748016384556813  0.05098345460736201  0.0565498464159546  1.0000
  H   H3        1.0  0.999463961310724  0.19449606123686888  0.2020604086975837  1.0000
  H   H4        1.0  0.9502478580035002  0.05831945284550949  0.2487491672029094  1.0000
  H   H5        1.0  0.8064667455881959  0.20256403178439794  0.9993715256915081  1.0000
  H   H6        1.0  0.9424211279146918  0.25201536740120645  0.049986237645868  1.0000
  H   H7        1.0  0.20311187733541664  0.49706974993044645  0.692840522198054  1.0000
  H   H8        1.0  0.2510167369250452  0.4498474304035227  0.556430337267237  1.0000
  H   H9        1.0  0.9995170094335889  0.3057689195573303  0.7015537705986788  1.0000
  H   H10       1.0  0.05145828266606859  0.4400893686709964  0.7506929822727599  1.0000
  H   H11       1.0  0.19316542008067464  0.29780675995100137  0.4994136050911209  1.0000
  H   H12       1.0  0.05730305377350219  0.24808518783806482  0.5500462027213118  1.0000
  H   H13       1.0  0.2970911608459303  0.9975214524169119  0.30769814134281864  1.0000
  H   H14       1.0  0.2486265574891533  0.9498969242476959  0.44377800871974676  1.0000
  H   H15       1.0  0.5000389262050646  0.8057872323634285  0.2988571616280282  1.0000
  H   H16       1.0  0.4487341193393419  0.9404517867449088  0.249996039413702  1.0000
  H   H17       1.0  0.3064014747099079  0.7977202969242115  0.5007841667352437  1.0000
  H   H18       1.0  0.4423446312660105  0.7480814854412756  0.45028360340401  1.0000
  H   H19       1.0  0.7030738641916016  0.503189652023302  0.8074044701844374  1.0000
  H   H20       1.0  0.7510498609388564  0.5505190470081942  0.9437663982339473  1.0000
  H   H21       1.0  0.4994735234802619  0.6944281859940633  0.7987636983615829  1.0000
  H   H22       1.0  0.5514413293650193  0.5601276760707706  0.7495799436603079  1.0000
  H   H23       1.0  0.6932690675304229  0.7026552201762399  0.0007109341417646  1.0000
  H   H24       1.0  0.5571765170766766  0.751978220429187  0.9503055900969316  1.0000
  C   C1        1.0  0.7923018622480809  0.0196008692344307  0.1584517191620733  1.0000
  C   C2        1.0  0.7581008704833893  0.010853593399915  0.1237799567293791  1.0000
  C   C3        1.0  0.7666958458022535  0.04478364349112951  0.08916094140029432  1.0000
  C   C4        1.0  0.9812449527185905  0.16146263082729462  0.2073115625369084  1.0000
  C   C5        1.0  0.989944065578598  0.12636823466037578  0.2407225784922247  1.0000
  C   C6        1.0  0.9563248100829113  0.0913978160572313  0.23103655009713012  1.0000
  C   C7        1.0  0.839380490535845  0.20855187972851744  0.0180402584036088  1.0000
  C   C8        1.0  0.8745510751442183  0.24233452186311413  0.0096150893707474  1.0000
  C   C9        1.0  0.9094152089988725  0.23363253568501108  0.0436218205958312  1.0000
  C   C10       1.0  0.20882919781822548  0.4791940623896521  0.6598046360448961  1.0000
  C   C11       1.0  0.2421699869870935  0.48874422168442794  0.6245395643869927  1.0000
  C   C12       1.0  0.23307620691981157  0.45529269622344504  0.5895855639383996  1.0000
  C   C13       1.0  0.018512712450977596  0.3382650224136228  0.7075386253761381  1.0000
  C   C14       1.0  0.0102760434989122  0.373078811006181  0.7413445317580667  1.0000
  C   C15       1.0  0.0447744872900628  0.40742399999406587  0.7324760436608104  1.0000
  C   C16       1.0  0.16026618575701693  0.29170774483768724  0.518076038781814  1.0000
  C   C17       1.0  0.12510835024676228  0.2579023441173974  0.5096297582794804  1.0000
  C   C18       1.0  0.0902686640301127  0.2665352822777436  0.5436795597978374  1.0000
  C   C19       1.0  0.2911758678691997  0.979550299136193  0.3406462321190062  1.0000
  C   C20       1.0  0.2577525858308007  0.9890250581022857  0.37584416537637827  1.0000
  C   C21       1.0  0.2667232532355683  0.9554649687607936  0.41073377958961294  1.0000
  C   C22       1.0  0.4812294214249562  0.8383832207557804  0.2929118079902154  1.0000
  C   C23       1.0  0.489654908325349  0.873278678614952  0.2592307780058576  1.0000
  C   C24       1.0  0.45524083239020996  0.9077074415637796  0.2681464376777711  1.0000
  C   C25       1.0  0.3393114988077103  0.7916612416895391  0.4821207220196655  1.0000
  C   C26       1.0  0.3744904598719572  0.7578889554841695  0.4906129335752496  1.0000
  C   C27       1.0  0.40937461221083277  0.7665522305542823  0.456623504327311  1.0000
  C   C28       1.0  0.7088312671727693  0.5210490146498827  0.8404411339018482  1.0000
  C   C29       1.0  0.7422232179055541  0.5115514429242226  0.8756785746251481  1.0000
  C   C30       1.0  0.7331068195696203  0.5450091978104368  0.9106294464140703  1.0000
  C   C31       1.0  0.5184424991312894  0.6619232884849993  0.7927819179838309  1.0000
  C   C32       1.0  0.5101994459805751  0.6270842764552783  0.7590020098705708  1.0000
  C   C33       1.0  0.5447739691542707  0.5927998316527691  0.7678075897920493  1.0000
  C   C34       1.0  0.6603303692091345  0.7086688596772532  0.9820806818189  1.0000
  C   C35       1.0  0.6251057058305065  0.742382984628357  0.9905887723375243  1.0000
  C   C36       1.0  0.590201716348851  0.7336293730622857  0.9566326681976918  1.0000
  C   C37       1.0  0.6586486566098557  0.9110285993246451  0.12443126741583652  1.0000
  C   C38       1.0  0.7220158635551925  0.9749711663120666  0.1239308795144041  1.0000
  C   C39       1.0  0.34098692504854  0.5891989431182977  0.6246356135679534  1.0000
  C   C40       1.0  0.277954963192343  0.5249095978660705  0.624465858874629  1.0000
  C   C41       1.0  0.15874865695837306  0.08929417187528801  0.3757260718764073  1.0000
  C   C42       1.0  0.22195029774170652  0.025181503801071904  0.3759209508477568  1.0000
  C   C43       1.0  0.8410789665024652  0.41113667696993167  0.8756798640689212  1.0000
  C   C44       1.0  0.7780434681131254  0.4754097874869316  0.8757742010094134  1.0000
  C   C45       1.0  0.08924873951853131  0.12502771858441258  0.34063595747537084  1.0000
  C   C46       1.0  0.025768950968121398  0.12602024068889514  0.2768298234549249  1.0000
  C   C47       1.0  0.4104423980253031  0.6251709695285614  0.6595781236032963  1.0000
  C   C48       1.0  0.47416013513905847  0.6264858569554049  0.7231226387457497  1.0000
  C   C49       1.0  0.9104762834011594  0.3751110210401194  0.8407299165877049  1.0000
  C   C50       1.0  0.9742269642826429  0.37367616298811873  0.7772360158048883  1.0000
  C   C51       1.0  0.5892989797824484  0.875111882132188  0.1596905912076139  1.0000
  C   C52       1.0  0.5257217384283591  0.873854022732509  0.2233621051306756  1.0000
  C   C53       1.0  0.8752097632229975  0.3411563428676273  0.9103436394659639  1.0000
  C   C54       1.0  0.8747716655264668  0.2780763979958607  0.973804495688448  1.0000
  C   C55       1.0  0.3751616642075534  0.6591110797618428  0.5899449698941694  1.0000
  C   C56       1.0  0.37469839902043833  0.7221622619596032  0.5264403136753444  1.0000
  C   C57       1.0  0.624352463339555  0.8410989841271431  0.08996839182298538  1.0000
  C   C58       1.0  0.624857330332553  0.7780559365766989  0.026476560857752  1.0000
  C   C59       1.0  0.12438819661269211  0.159160958840296  0.4102910867751888  1.0000
  C   C60       1.0  0.12485307966917249  0.22222996966043237  0.4737482892205663  1.0000
  N   N1        1.0  0.3754641889451591  0.6244864218422705  0.6247607664893238  1.0000
  N   N2        1.0  0.62410227409611  0.8757743955211127  0.12471472314420853  1.0000
  N   N3        1.0  0.8755301110723436  0.37583076933952964  0.8755747830855256  1.0000
  N   N4        1.0  0.1241168427160417  0.12444874413864683  0.3755398352816499  1.0000
  N   N5        1.0  0.8030974776500839  0.07198496530912735  0.10253148518523152  1.0000
  N   N6        1.0  0.8194672658332324  0.0558632680446038  0.1451763967817001  1.0000
  N   N7        1.0  0.9293601944737728  0.10495138864529  0.1947495017687473  1.0000
  N   N8        1.0  0.945296397191889  0.14810257967002372  0.1795253673929977  1.0000
  N   N9        1.0  0.8957343796358187  0.19750171435522654  0.0705635680602015  1.0000
  N   N10       1.0  0.8526087295005949  0.1814433711417962  0.0541969777938718  1.0000
  N   N11       1.0  0.19717213905062891  0.42761988108789956  0.6033032122047643  1.0000
  N   N12       1.0  0.1816449030927316  0.4429295768841115  0.6465583243432534  1.0000
  N   N13       1.0  0.0717854524400323  0.39379656037933597  0.6962450945164207  1.0000
  N   N14       1.0  0.05501533958639021  0.35123384963684867  0.680258483258605  1.0000
  N   N15       1.0  0.10393159628787169  0.3026475048705706  0.5706469730570022  1.0000
  N   N16       1.0  0.1470341342194672  0.3187601625773696  0.5542720569686708  1.0000
  N   N17       1.0  0.3025933693331382  0.9277461891359382  0.397009499580264  1.0000
  N   N18       1.0  0.3182374512705266  0.9431756658850575  0.3538423432760425  1.0000
  N   N19       1.0  0.42811490105452776  0.8940520785701909  0.3042739143148481  1.0000
  N   N20       1.0  0.44470899804594666  0.8513737725848144  0.3201406985674282  1.0000
  N   N21       1.0  0.39568703717637277  0.802619181953297  0.42960265968899586  1.0000
  N   N22       1.0  0.35254535403589676  0.8187015200796283  0.44590896705216926  1.0000
  N   N23       1.0  0.6971718146099235  0.5726460218547942  0.8969203310670224  1.0000
  N   N24       1.0  0.6816341092097956  0.5573003221183511  0.8536864732487006  1.0000
  N   N25       1.0  0.571851087402081  0.6065059421806822  0.8039586161571393  1.0000
  N   N26       1.0  0.5550392309117314  0.6490451523046943  0.8199723400561327  1.0000
  N   N27       1.0  0.6038933790816046  0.697535481394141  0.9296568182905318  1.0000
  N   N28       1.0  0.6470702197949053  0.681541399813696  0.9459484561513278  1.0000
  N   N29       1.0  0.6696690109992501  0.9297874408460418  0.0825880584675858  1.0000
  N   N30       1.0  0.6774215675853625  0.9229341817205495  0.16609043019578  1.0000
  N   N31       1.0  0.7098758896535456  0.9560115573864111  0.1659417698454106  1.0000
  N   N32       1.0  0.7024840554058542  0.9625768887708547  0.08223213842767758  1.0000
  N   N33       1.0  0.3228224910134897  0.5768621223906649  0.6664520907574385  1.0000
  N   N34       1.0  0.3293325992777482  0.5708492703363318  0.5827731409404252  1.0000
  N   N35       1.0  0.29667916619765583  0.5379004449848138  0.5825849559903986  1.0000
  N   N36       1.0  0.2905793615403383  0.5435892906942287  0.6664544070924947  1.0000
  N   N37       1.0  0.1702755805743621  0.07086311787931981  0.4175701091767294  1.0000
  N   N38       1.0  0.17718623664392652  0.07720381880047  0.3339520532110285  1.0000
  N   N39       1.0  0.2095287154403138  0.0440447848904171  0.3339494158101246  1.0000
  N   N40       1.0  0.20303540396380268  0.0379979999180762  0.41777511035977  1.0000
  N   N41       1.0  0.8294713411389549  0.4295683779969295  0.917512056958074  1.0000
  N   N42       1.0  0.8229378442344881  0.42344462653149156  0.8338455805648409  1.0000
  N   N43       1.0  0.7906825220689625  0.45670174704527267  0.8337988484611003  1.0000
  N   N44       1.0  0.7968075083816543  0.4625091637566143  0.9176634984902989  1.0000
  N   N45       1.0  0.07035173814362139  0.08344574340360107  0.3285287765151281  1.0000
  N   N46       1.0  0.07780331907808602  0.1670816677888425  0.3225953713154226  1.0000
  N   N47       1.0  0.0449376430904707  0.16770241152514842  0.2898767845606116  1.0000
  N   N48       1.0  0.037883279336490695  0.0838640332256944  0.2954926348880988  1.0000
  N   N49       1.0  0.4212929182213827  0.6672079825083658  0.6780127037821657  1.0000
  N   N50       1.0  0.4299845374639588  0.5837647162676376  0.6712201988899409  1.0000
  N   N51       1.0  0.4626113118996074  0.5843297139293995  0.7041155590326866  1.0000
  N   N52       1.0  0.4542867624752418  0.6680020895438404  0.7105915445357239  1.0000
  N   N53       1.0  0.9212964967557653  0.33305251314276774  0.8223525157183715  1.0000
  N   N54       1.0  0.9299927069895871  0.4165098321404344  0.8290073621234413  1.0000
  N   N55       1.0  0.9626481279643001  0.41587125363084  0.7961399932295095  1.0000
  N   N56       1.0  0.9543111862732021  0.3321848562350168  0.7897950405929564  1.0000
  N   N57       1.0  0.5783480164525655  0.833053124490931  0.17803811652822787  1.0000
  N   N58       1.0  0.5701001055761097  0.9165864436119193  0.17162689099008327  1.0000
  N   N59       1.0  0.5375354665242397  0.916045229274161  0.2045912895421438  1.0000
  N   N60       1.0  0.5454361871066595  0.8323031191692892  0.2106866834114669  1.0000
  N   N61       1.0  0.8328503425199401  0.3227307159077242  0.9216717527794245  1.0000
  N   N62       1.0  0.9173664216614837  0.3296169295103866  0.9291336891481877  1.0000
  N   N63       1.0  0.9172572374881084  0.2969829871207779  0.9616633487709904  1.0000
  N   N64       1.0  0.8325175467658424  0.29037840170128243  0.9545385789866927  1.0000
  N   N65       1.0  0.4173105238339544  0.6706246631283579  0.5711233937525293  1.0000
  N   N66       1.0  0.33279890165494663  0.6775285402637296  0.5786109037469984  1.0000
  N   N67       1.0  0.332445752410834  0.7098682145733125  0.5457349488089278  1.0000
  N   N68       1.0  0.41718373871172076  0.7032477362938608  0.5385748181892822  1.0000
  N   N69       1.0  0.6667517177409578  0.8228458276321009  0.0784898437146779  1.0000
  N   N70       1.0  0.5821740725286587  0.8293321579484642  0.0713965236272927  1.0000
  N   N71       1.0  0.5823233535503006  0.7967091247364452  0.038843043813614  1.0000
  N   N72       1.0  0.6671263387180134  0.7905177533768825  0.045630691442291  1.0000
  N   N73       1.0  0.16671147763090496  0.1778184667450802  0.42135715887008734  1.0000
  N   N74       1.0  0.08227170792585531  0.170504886170427  0.4292596912304987  1.0000
  N   N75       1.0  0.08238993210474631  0.20313423612233092  0.46180197634419073  1.0000
  N   N76       1.0  0.1670653189073263  0.21016899100176537  0.4542156372473372  1.0000
