data_image0
_chemical_formula_structural       Cu6H24C18N24O18
_chemical_formula_sum              "Cu6 H24 C18 N24 O18"
_cell_length_a       8.160986986755082
_cell_length_b       12.925816936349035
_cell_length_c       12.926494054117622
_cell_angle_alpha    115.65119439979803
_cell_angle_beta     102.21490961584735
_cell_angle_gamma    102.13540268751503

_space_group_name_H-M_alt    "P 1"
_space_group_IT_number       1

loop_
  _space_group_symop_operation_xyz
  'x, y, z'

loop_
  _atom_site_type_symbol
  _atom_site_label
  _atom_site_symmetry_multiplicity
  _atom_site_fract_x
  _atom_site_fract_y
  _atom_site_fract_z
  _atom_site_occupancy
  Cu  Cu1       1.0  0.2488515237826548  0.5325680083987053  0.5852624760097742  1.0000
  Cu  Cu2       1.0  0.7160316154135913  0.052953906596350506  0.4673582699849632  1.0000
  Cu  Cu3       1.0  0.6629386456679925  0.4142093569556167  0.9468596638597477  1.0000
  Cu  Cu4       1.0  0.7511485326419631  0.46742076841336194  0.4147325352892539  1.0000
  Cu  Cu5       1.0  0.28397452075219576  0.9470476569257045  0.5326523718258118  1.0000
  Cu  Cu6       1.0  0.33706473963126643  0.585805910942483  0.053144040023362045  1.0000
  H   H1        1.0  0.3407369855242167  0.35273764157081905  0.3699566545736986  1.0000
  H   H2        1.0  0.9889072105332488  0.0177408671631269  0.6476904126105724  1.0000
  H   H3        1.0  0.970517103521331  0.6300364428771061  0.9826204660290758  1.0000
  H   H4        1.0  0.6592679914290612  0.6472611829742191  0.6300464588271808  1.0000
  H   H5        1.0  0.011088557071275354  0.9822552137335164  0.35231946614233334  1.0000
  H   H6        1.0  0.029483267603602235  0.36996512353432814  0.01737463039141565  1.0000
  H   H7        1.0  0.14826561700100171  0.3665978899148499  0.32538466819703166  1.0000
  H   H8        1.0  0.7827332777401851  0.9601144618559874  0.6343261343227837  1.0000
  H   H9        1.0  0.82205256133188  0.6742051770965317  0.040234449730824906  1.0000
  H   H10       1.0  0.8517425090871031  0.6334018497501219  0.674613880631121  1.0000
  H   H11       1.0  0.21726613659078706  0.03987340012557179  0.36567380908476116  1.0000
  H   H12       1.0  0.17795553905996536  0.3258018707001041  0.9597648913040687  1.0000
  H   H13       1.0  0.7139567937763189  0.699382816650953  0.4242294776521407  1.0000
  H   H14       1.0  0.015332372585881248  0.7244715282852852  0.3012678530080422  1.0000
  H   H15       1.0  0.29305893397866367  0.5776732770164658  0.2762206781169142  1.0000
  H   H16       1.0  0.28604037801982685  0.30060504694273504  0.5757624000349824  1.0000
  H   H17       1.0  0.9846784556835573  0.275516335949483  0.6987298952182217  1.0000
  H   H18       1.0  0.7069282219016345  0.4223246333342487  0.7237740171834874  1.0000
  H   H19       1.0  0.8524270049352226  0.8439220439397347  0.48542578014530596  1.0000
  H   H20       1.0  0.008464764234602674  0.6414281081747076  0.1564345604234916  1.0000
  H   H21       1.0  0.3686212442872261  0.5151383519415235  0.35865362847867754  1.0000
  H   H22       1.0  0.1475713640185461  0.1560712984140409  0.5145771215013895  1.0000
  H   H23       1.0  0.9915413117515258  0.3585725447002517  0.8435640774895959  1.0000
  H   H24       1.0  0.6313733541190701  0.4848668670288347  0.6413445012727622  1.0000
  C   C1        1.0  0.9744672968477417  0.7211142768214885  0.4766157007830359  1.0000
  C   C2        1.0  0.25354133275999396  0.755299147773691  0.27916070714882596  1.0000
  C   C3        1.0  0.49957104458223267  0.5239145578438169  0.24467774402954495  1.0000
  C   C4        1.0  0.025527900736641074  0.27887997954833565  0.5233832570883834  1.0000
  C   C5        1.0  0.7464603256145566  0.24470332923939253  0.7208473467557044  1.0000
  C   C6        1.0  0.5004335440436664  0.4760879225011792  0.7553183603153573  1.0000
  C   C7        1.0  0.2406229716149397  0.7268851535854495  0.5474131753903465  1.0000
  C   C8        1.0  0.5135582463802423  0.8205885639880321  0.27322457689012947  1.0000
  C   C9        1.0  0.6936477689854428  0.45211421335711327  0.17937118363232685  1.0000
  C   C10       1.0  0.759368450451511  0.2731118417529927  0.45259026636399835  1.0000
  C   C11       1.0  0.4864487929238664  0.17941939526176037  0.7267827351822406  1.0000
  C   C12       1.0  0.3063600182148535  0.5478946614838095  0.8206281170576661  1.0000
  C   C13       1.0  0.4350713849972011  0.7584846832662324  0.6039056764652531  1.0000
  C   C14       1.0  0.6761530454632592  0.8456225675860908  0.24146146697106038  1.0000
  C   C15       1.0  0.8313686026177506  0.39551067107574067  0.15424732592413198  1.0000
  C   C16       1.0  0.5649188805640577  0.24149678577769151  0.39608091393617434  1.0000
  C   C17       1.0  0.3238600091862764  0.15439543840046344  0.7585587498818287  1.0000
  C   C18       1.0  0.16860728231734615  0.6044826692436445  0.8457499584450903  1.0000
  N   N1        1.0  0.9625708817215254  0.6135009197958111  0.4732480846503223  1.0000
  N   N2        1.0  0.3494047604036582  0.8593919501723877  0.38685073474461285  1.0000
  N   N3        1.0  0.49074248708159723  0.5273980011413784  0.14048739179195022  1.0000
  N   N4        1.0  0.03741021740654563  0.3864896830307529  0.5267395108746201  1.0000
  N   N5        1.0  0.6505961006351199  0.14060413187358023  0.6131575696244767  1.0000
  N   N6        1.0  0.5092688647859234  0.47261544153150237  0.8595136059511008  1.0000
  N   N7        1.0  0.8354590624890507  0.7518612892802424  0.43534530728455695  1.0000
  N   N8        1.0  0.08395000216091816  0.6831697144844782  0.2484715878640032  1.0000
  N   N9        1.0  0.402829939577245  0.5656476844417213  0.31719927326174974  1.0000
  N   N10       1.0  0.164538328944964  0.24813479442328662  0.564653977777745  1.0000
  N   N11       1.0  0.9160557863299131  0.3168254573030964  0.7515262174974424  1.0000
  N   N12       1.0  0.5971672337276676  0.4343547957956135  0.6827926492019359  1.0000
  N   N13       1.0  0.13152460421935075  0.6192878980596888  0.5188064971161596  1.0000
  N   N14       1.0  0.5124833380074632  0.8992839720834237  0.38105033839427443  1.0000
  N   N15       1.0  0.6132645115159505  0.48102468539126153  0.10046593815175703  1.0000
  N   N16       1.0  0.8684601646241034  0.3806999650376355  0.48117969379971026  1.0000
  N   N17       1.0  0.48752060430870603  0.10071576410492608  0.618959976225618  1.0000
  N   N18       1.0  0.3867359504553605  0.5189796211835541  0.8995311141814926  1.0000
  N   N19       1.0  0.14860718589045516  0.7937387533445274  0.5211938491728177  1.0000
  N   N20       1.0  0.35471594739920687  0.7275348018524  0.20634370493650075  1.0000
  N   N21       1.0  0.6284256963650918  0.4785526305451454  0.2724196672328106  1.0000
  N   N22       1.0  0.8513919539484506  0.2062609837862084  0.4788095718277888  1.0000
  N   N23       1.0  0.6452808034499142  0.2724749836642673  0.7936605570108812  1.0000
  N   N24       1.0  0.3715730693482159  0.5214407146609545  0.7275716871369229  1.0000
  O   O1        1.0  0.47027829069102023  0.6756817019664325  0.6281427460129267  1.0000
  O   O2        1.0  0.7938936917429519  0.9527805328517261  0.3240619796317788  1.0000
  O   O3        1.0  0.8418114685172712  0.3712279125038762  0.04713718086407688  1.0000
  O   O4        1.0  0.5297205773631289  0.3243171229959713  0.37185482963770516  1.0000
  O   O5        1.0  0.2061106553655279  0.04722742477755298  0.6759503536340504  1.0000
  O   O6        1.0  0.15818347028559296  0.6287827879341776  0.9528602418020784  1.0000
  O   O7        1.0  0.5462454724151443  0.8529403562983193  0.6237019094989125  1.0000
  O   O8        1.0  0.6927210527089045  0.7709357935519633  0.14701210655765362  1.0000
  O   O9        1.0  0.9231334234398574  0.3758945473708124  0.22899063379995255  1.0000
  O   O10       1.0  0.4537753970222269  0.14706486533071939  0.3763016190152087  1.0000
  O   O11       1.0  0.3072947512536075  0.22908404376155997  0.8529922712983906  1.0000
  O   O12       1.0  0.07685130896724958  0.6241051925870734  0.7709921063428028  1.0000
  O   O13       1.0  0.26469651022311064  0.40483407975771957  0.3907462764610301  1.0000
  O   O14       1.0  0.8605976386962979  0.9870401935566232  0.5959131934017422  1.0000
  O   O15       1.0  0.8732269457716839  0.6089614962535066  0.013451031995650448  1.0000
  O   O16       1.0  0.7353129487374872  0.5951656606224346  0.6092501466796209  1.0000
  O   O17       1.0  0.1393994495318651  0.012945840140460496  0.4040902719072435  1.0000
  O   O18       1.0  0.12677543404842603  0.39104189616054436  0.9865497803449729  1.0000
