data_image0
_chemical_formula_structural       Ag4H32C12N28
_chemical_formula_sum              "Ag4 H32 C12 N28"
_cell_length_a       4.49475778237834
_cell_length_b       11.1454643340002
_cell_length_c       14.355807889748066
_cell_angle_alpha    90.00002093835344
_cell_angle_beta     93.64377378430956
_cell_angle_gamma    89.99999172514603

_space_group_name_H-M_alt    "P 1"
_space_group_IT_number       1

loop_
  _space_group_symop_operation_xyz
  'x, y, z'

loop_
  _atom_site_type_symbol
  _atom_site_label
  _atom_site_symmetry_multiplicity
  _atom_site_fract_x
  _atom_site_fract_y
  _atom_site_fract_z
  _atom_site_occupancy
  Ag  Ag1       1.0  0.5030409553141412  0.4096142194833803  0.3158428390378205  1.0000
  Ag  Ag2       1.0  0.49695712916992113  0.9096157882467893  0.1841565848455815  1.0000
  Ag  Ag3       1.0  0.4969569604156448  0.5903847034865849  0.6841569649508231  1.0000
  Ag  Ag4       1.0  0.503043015880209  0.09038492917505178  0.815843263392324  1.0000
  H   H1        1.0  0.11574118296545069  0.5318351877362631  0.0581702388333483  1.0000
  H   H2        1.0  0.8842592428141316  0.0318345537150009  0.441829822473423  1.0000
  H   H3        1.0  0.8842589624384375  0.46816552968574854  0.9418303059937685  1.0000
  H   H4        1.0  0.1157409022362614  0.9681643692549077  0.5581700257642339  1.0000
  H   H5        1.0  0.4508626369057822  0.45043525554768143  0.0844488375897612  1.0000
  H   H6        1.0  0.5491376651916796  0.9504351372515533  0.4155513383061304  1.0000
  H   H7        1.0  0.5491397378187272  0.5495654618742736  0.9155517514863689  1.0000
  H   H8        1.0  0.4508624798585855  0.0495646829443288  0.5844485099316543  1.0000
  H   H9        1.0  0.6333911151066047  0.6181303972909618  0.19031196055107813  1.0000
  H   H10       1.0  0.3666092855294493  0.11812973091824118  0.3096888209676578  1.0000
  H   H11       1.0  0.36660903029728326  0.3818703201310427  0.8096885842760386  1.0000
  H   H12       1.0  0.6333908598745738  0.8818700892778044  0.6903117238593309  1.0000
  H   H13       1.0  0.5674575594322846  0.6621760909140023  0.07213001754057298  1.0000
  H   H14       1.0  0.4325405985153949  0.16217547705726792  0.4278700351971594  1.0000
  H   H15       1.0  0.43254035629736626  0.3378237292819293  0.9278697864481913  1.0000
  H   H16       1.0  0.5674595468886281  0.8378243431387705  0.5721305096298295  1.0000
  H   H17       1.0  0.05294542206257799  0.38667123403063647  0.1748955739629707  1.0000
  H   H18       1.0  0.947052669200616  0.8866710489109055  0.3251038436396883  1.0000
  H   H19       1.0  0.9470524933133149  0.6133285861651318  0.8251035334365753  1.0000
  H   H20       1.0  0.052945246529041895  0.11332877128502625  0.6748959603490761  1.0000
  H   H21       1.0  0.16682078130115488  0.7078628853439286  0.224419689945762  1.0000
  H   H22       1.0  0.8331773631476481  0.20786217497196455  0.2755803752984249  1.0000
  H   H23       1.0  0.8331793641027403  0.2921378320780762  0.7755808548813548  1.0000
  H   H24       1.0  0.16682055293576073  0.7921376452241377  0.7244201252795507  1.0000
  H   H25       1.0  0.1021698689264525  0.7475911290044126  0.11219529902263761  1.0000
  H   H26       1.0  0.897830493104486  0.24759136560588504  0.3878048213460374  1.0000
  H   H27       1.0  0.8978302761238125  0.2524086911914624  0.8878045492151401  1.0000
  H   H28       1.0  0.1021696519456512  0.752409351815956  0.612195026891861  1.0000
  H   H29       1.0  0.03201139778681749  0.518597558349363  0.22580913214252968  1.0000
  H   H30       1.0  0.9679890315501609  0.018597736532477403  0.2741902289514258  1.0000
  H   H31       1.0  0.9679887472634475  0.48140226184651186  0.7741907160952478  1.0000
  H   H32       1.0  0.0320111135001042  0.9814020836634045  0.7258096192863518  1.0000
  C   C1        1.0  0.7483016167207169  0.6056033895004164  0.4606968146804036  1.0000
  C   C2        1.0  0.2516965579421608  0.10560349806905833  0.0393032225710286  1.0000
  C   C3        1.0  0.2516962993626919  0.3943964306956858  0.539303685897579  1.0000
  C   C4        1.0  0.7483035871081042  0.8943963221268165  0.9606966256667562  1.0000
  C   C5        1.0  0.2954993607118439  0.5153082931327619  0.112715472636161  1.0000
  C   C6        1.0  0.7045032992714937  0.015307643742879403  0.3872846283954985  1.0000
  C   C7        1.0  0.7045007843382863  0.4846924242890795  0.8872843756017444  1.0000
  C   C8        1.0  0.2954990754531437  0.984692176453109  0.6127159606805108  1.0000
  C   C9        1.0  0.4582848558493921  0.6327085166640813  0.1345320717279321  1.0000
  C   C10       1.0  0.5417155404793236  0.13270786652579156  0.3654687137814747  1.0000
  C   C11       1.0  0.5417152895544958  0.3672922007579301  0.8654684730991846  1.0000
  C   C12       1.0  0.4582846052784574  0.8672919536704173  0.6345325276347324  1.0000
  N   N1        1.0  0.17538264905123674  0.46052549364444684  0.19630348386534993  1.0000
  N   N2        1.0  0.8246176497112855  0.9605244083486757  0.30369599820333093  1.0000
  N   N3        1.0  0.8246174959988934  0.5394752237773945  0.8036963643725556  1.0000
  N   N4        1.0  0.17538249533911454  0.039474514621233  0.6963038500343258  1.0000
  N   N5        1.0  0.26609650653523426  0.7308085248624822  0.16419235891375186  1.0000
  N   N6        1.0  0.7339016311337757  0.23080874637186352  0.335807712611782  1.0000
  N   N7        1.0  0.7339036385150308  0.2691912953333926  0.8358074893240328  1.0000
  N   N8        1.0  0.26609628494963294  0.7691910738242315  0.6641927879661935  1.0000
  N   N9        1.0  0.7879083186674052  0.5786767183233082  0.3704570727767518  1.0000
  N   N10       1.0  0.21208986395137694  0.07867687233424901  0.1295429571036806  1.0000
  N   N11       1.0  0.2120895974160035  0.4213231018727868  0.6295434278012307  1.0000
  N   N12       1.0  0.7879102810987532  0.9213238450875924  0.870456891134225  1.0000
  N   N13       1.0  0.9751217127643343  0.6619338923477401  0.3425001229034095  1.0000
  N   N14       1.0  0.0248764452547832  0.16193407082802486  0.1574999297681359  1.0000
  N   N15       1.0  0.024876203319209395  0.3380650306223885  0.6575003776744452  1.0000
  N   N16       1.0  0.975123699795475  0.8380657493678502  0.8424999184696418  1.0000
  N   N17       1.0  0.046717386964090196  0.7375162521647667  0.4132699054882991  1.0000
  N   N18       1.0  0.9532807487230388  0.23751634170839253  0.0867301678734123  1.0000
  N   N19       1.0  0.9532805291193256  0.26248356803132833  0.5867305950896764  1.0000
  N   N20       1.0  0.046717166652989306  0.7624825812614094  0.9132689395260128  1.0000
  N   N21       1.0  0.9075097889351653  0.70354278331849  0.4882769784401688  1.0000
  N   N22       1.0  0.09249058611043638  0.2035437853998019  0.011723129870667  1.0000
  N   N23       1.0  0.0924881271482434  0.29645703687761227  0.5117235221378067  1.0000
  N   N24       1.0  0.9075095589396937  0.7964569320220395  0.9882767183672385  1.0000
  N   N25       1.0  0.5785195006923872  0.5418985707261825  0.5201669317318292  1.0000
  N   N26       1.0  0.4214804899294577  0.04189887956500371  0.9798332833385714  1.0000
  N   N27       1.0  0.4214784150372637  0.45810124946974906  0.47983287225693527  1.0000
  N   N28       1.0  0.5785218844412867  0.9581018378567806  0.020166609148354598  1.0000
