data_image0
_chemical_formula_structural       Co2H32C46N8O10
_chemical_formula_sum              "Co2 H32 C46 N8 O10"
_cell_length_a       9.434186177660349
_cell_length_b       10.563116789759974
_cell_length_c       12.20116727652515
_cell_angle_alpha    107.83540224564827
_cell_angle_beta     103.75803583346314
_cell_angle_gamma    106.98759981555078

_space_group_name_H-M_alt    "P 1"
_space_group_IT_number       1

loop_
  _space_group_symop_operation_xyz
  'x, y, z'

loop_
  _atom_site_type_symbol
  _atom_site_label
  _atom_site_symmetry_multiplicity
  _atom_site_fract_x
  _atom_site_fract_y
  _atom_site_fract_z
  _atom_site_occupancy
  Co  Co1       1.0  0.583789164645019  0.33201227360021324  0.13627787607245528  1.0000
  Co  Co2       1.0  0.4162016226781019  0.6679815134068929  0.8637191079998559  1.0000
  H   H1        1.0  0.09966843772117069  0.5057203965653229  0.1345320122947555  1.0000
  H   H2        1.0  0.9003412423236412  0.49429743189033787  0.8654802136336671  1.0000
  H   H3        1.0  0.27616533130544235  0.4702027878552854  0.01631024269001811  1.0000
  H   H4        1.0  0.7238390831547222  0.529810538127144  0.9836933432714121  1.0000
  H   H5        1.0  0.32593364110488926  0.2835769740308365  0.25541454521329143  1.0000
  H   H6        1.0  0.6740628767863723  0.7164201042526412  0.7445834702186646  1.0000
  H   H7        1.0  0.1870491920022772  0.020319425453536197  0.26999880617858457  1.0000
  H   H8        1.0  0.812947345826707  0.9796776688556007  0.7300000366148752  1.0000
  H   H9        1.0  0.5649551968810087  0.015439702748516002  0.14022486812648086  1.0000
  H   H10       1.0  0.4350431428662916  0.9845563878722035  0.8597764903490487  1.0000
  H   H11       1.0  0.4335425236273167  0.8026907927355109  0.17871805998773027  1.0000
  H   H12       1.0  0.5664572157727791  0.19730857643619254  0.8212860281264227  1.0000
  H   H13       1.0  0.23123016457128637  0.7568105162684232  0.10422209458819509  1.0000
  H   H14       1.0  0.7687728678751995  0.2431888985050534  0.8957825813801111  1.0000
  H   H15       1.0  0.0450410361721579  0.7599599441262297  0.2108191770261953  1.0000
  H   H16       1.0  0.9549628629171139  0.24004160292904678  0.7891845608295186  1.0000
  H   H17       1.0  0.9643721206476457  0.7192572025491657  0.3792148036472299  1.0000
  H   H18       1.0  0.035633882936821175  0.2807389784500316  0.6207870991264883  1.0000
  H   H19       1.0  0.16432563584901763  0.7314973454581021  0.563125133159808  1.0000
  H   H20       1.0  0.8356765704363414  0.2684923433668159  0.4368752511927881  1.0000
  H   H21       1.0  0.4426422612557205  0.7852817199391353  0.5730068381464762  1.0000
  H   H22       1.0  0.5573610028363235  0.214707952035063  0.4269920874345063  1.0000
  H   H23       1.0  0.6136273258934821  0.8967261330926773  0.35573184372322697  1.0000
  H   H24       1.0  0.386375837903721  0.1032710844713023  0.6442698295015392  1.0000
  H   H25       1.0  0.6544102602065182  0.9169793013874566  0.5103610704579041  1.0000
  H   H26       1.0  0.34559260162001243  0.08301465282613658  0.489638069079625  1.0000
  H   H27       1.0  0.7618948508352048  0.7438956504613471  0.564487124816175  1.0000
  H   H28       1.0  0.2381069737285841  0.2560907109105628  0.43550741640317636  1.0000
  H   H29       1.0  0.4948041365961444  0.614716673749612  0.18876419234556613  1.0000
  H   H30       1.0  0.5051964412956808  0.38528250228917926  0.8112293360204391  1.0000
  H   H31       1.0  0.7693544980201423  0.4847617739326608  0.42487198358735884  1.0000
  H   H32       1.0  0.23064112507726967  0.5152308466542975  0.5751173483216406  1.0000
  C   C1        1.0  0.31288303736319284  0.2293081645671649  0.9045763285582569  1.0000
  C   C2        1.0  0.6871134916462366  0.7706942460709667  0.09542060441246034  1.0000
  C   C3        1.0  0.8860429375943326  0.3111092927021914  0.17134021528664786  1.0000
  C   C4        1.0  0.11396255461023232  0.6889040324551772  0.8286627392646724  1.0000
  C   C5        1.0  0.9964033692337395  0.2815611699857925  0.10433111596929485  1.0000
  C   C6        1.0  0.0036067241947392932  0.7184577085851203  0.8956798135413352  1.0000
  C   C7        1.0  0.10027059068887208  0.39863292835231323  0.09327381244130349  1.0000
  C   C8        1.0  0.8997434202712782  0.6013849128287488  0.9067367152081547  1.0000
  C   C9        1.0  0.20104014602112127  0.37913307900784327  0.028742443719302464  1.0000
  C   C10       1.0  0.7989637753044789  0.6208791327567268  0.9712591292139195  1.0000
  C   C11       1.0  0.20553070115540356  0.2427439324162037  0.9774460031964484  1.0000
  C   C12       1.0  0.7944669765297617  0.7572638578284695  0.02255169798741009  1.0000
  C   C13       1.0  0.10527460103249812  0.1250919010533025  0.9906774893892705  1.0000
  C   C14       1.0  0.894718745737329  0.8749158764659696  0.009321910073552318  1.0000
  C   C15       1.0  0.9968179000774527  0.14335597364267016  0.05034870951830332  1.0000
  C   C16       1.0  0.0031848121530228916  0.8566584361564434  0.9496564975685688  1.0000
  C   C17       1.0  0.12126390987374687  0.9842346384724507  0.9489195271765427  1.0000
  C   C18       1.0  0.8787345429789327  0.0157775133148164  0.05108189336126401  1.0000
  C   C19       1.0  0.35509734192395837  0.18904713862146139  0.2338277189956984  1.0000
  C   C20       1.0  0.6448991759673104  0.8109499396620234  0.7661702964362576  1.0000
  C   C21       1.0  0.2860253224188228  0.060254421453471686  0.24223757184307007  1.0000
  C   C22       1.0  0.7139696445311968  0.9397415594628594  0.7577598893322988  1.0000
  C   C23       1.0  0.4821193961655014  0.0542703340854871  0.17331031209839415  1.0000
  C   C24       1.0  0.5178782592833431  0.945726791449893  0.8266895540079562  1.0000
  C   C25       1.0  0.33176718085409357  0.8267565608808168  0.19148882981131268  1.0000
  C   C26       1.0  0.6682336163526799  0.1732427914401669  0.8085137995312197  1.0000
  C   C27       1.0  0.2917430908973841  0.8016603352134412  0.2975249257929776  1.0000
  C   C28       1.0  0.7082574043387242  0.1983357537571564  0.7024751698623108  1.0000
  C   C29       1.0  0.13381759326410494  0.7682263719227506  0.29163015324751745  1.0000
  C   C30       1.0  0.866185570533098  0.23177084564122913  0.7083715199772487  1.0000
  C   C31       1.0  0.08742259913646674  0.7442093838571536  0.386140524946356  1.0000
  C   C32       1.0  0.9125822868281475  0.2557867659157935  0.613860354514472  1.0000
  C   C33       1.0  0.1989882503177256  0.7506337517698823  0.48846981907613  1.0000
  C   C34       1.0  0.8010130494494022  0.24935377272191772  0.5115298486660579  1.0000
  C   C35       1.0  0.3554599231045684  0.7820400863497099  0.49426540582657463  1.0000
  C   C36       1.0  0.6445390904292411  0.2179420112836539  0.5057316430280778  1.0000
  C   C37       1.0  0.40472683732723885  0.8094350728386245  0.4010029724830418  1.0000
  C   C38       1.0  0.595273586977534  0.19055563570036327  0.5989957235489884  1.0000
  C   C39       1.0  0.5772147610481185  0.8438652414320416  0.41488214110790983  1.0000
  C   C40       1.0  0.42278749623085343  0.15612981179882718  0.5851188155064406  1.0000
  C   C41       1.0  0.7052356992547929  0.6765441222475911  0.4667360003479005  1.0000
  C   C42       1.0  0.2947602745082989  0.32344647741206956  0.5332594297940859  1.0000
  C   C43       1.0  0.5631935537515389  0.6101186051235743  0.2712220048896087  1.0000
  C   C44       1.0  0.43679976256861874  0.389876198297344  0.7287707652216543  1.0000
  C   C45       1.0  0.7077579841359167  0.5482213814158498  0.3970367354005475  1.0000
  C   C46       1.0  0.29223397240688337  0.45177017550540194  0.6029549597950992  1.0000
  N   N1        1.0  0.4762972107850203  0.1836406685911811  0.18968148463052611  1.0000
  N   N2        1.0  0.5236988937225746  0.8163553595770521  0.8103178272192296  1.0000
  N   N3        1.0  0.368638079458229  0.9772599288607821  0.20481059022507248  1.0000
  N   N4        1.0  0.6313600292497271  0.022738278841160305  0.7951896341864785  1.0000
  N   N5        1.0  0.6183142121998983  0.5079922868110244  0.27457524350876383  1.0000
  N   N6        1.0  0.3816815815174621  0.49200579433581026  0.7254196248310054  1.0000
  N   N7        1.0  0.6130300019032829  0.7137686245888303  0.38592586218460684  1.0000
  N   N8        1.0  0.38696375655782594  0.2862219286440038  0.6140683486931096  1.0000
  O   O1        1.0  0.4654699883704724  0.2950863356890848  0.9676289129945632  1.0000
  O   O2        1.0  0.5345253720254989  0.7049106793168461  0.03236642440150205  1.0000
  O   O3        1.0  0.2542399612335515  0.17008703500585648  0.7902875585077995  1.0000
  O   O4        1.0  0.7457524590803144  0.8299185621546525  0.20971029698311844  1.0000
  O   O5        1.0  0.769885461603032  0.3269472248012022  0.10189568128462421  1.0000
  O   O6        1.0  0.23010940505215421  0.6730563017049249  0.8981045275345425  1.0000
  O   O7        1.0  0.9143877826496053  0.32619975077290764  0.27998994289475837  1.0000
  O   O8        1.0  0.08561079043563767  0.6738048714502367  0.7200095573607543  1.0000
  O   O9        1.0  0.23675481211549249  0.9753202242534725  0.9207322796051971  1.0000
  O   O10       1.0  0.763242360710727  0.024688745136749894  0.07927137546300138  1.0000
