data_image0
_chemical_formula_structural       Ba4H32C16O28
_chemical_formula_sum              "Ba4 H32 C16 O28"
_cell_length_a       7.647765590542635
_cell_length_b       10.493566044451436
_cell_length_c       10.285751984477129
_cell_angle_alpha    102.1949988148677
_cell_angle_beta     90.0036284104437
_cell_angle_gamma    89.99953595154717

_space_group_name_H-M_alt    "P 1"
_space_group_IT_number       1

loop_
  _space_group_symop_operation_xyz
  'x, y, z'

loop_
  _atom_site_type_symbol
  _atom_site_label
  _atom_site_symmetry_multiplicity
  _atom_site_fract_x
  _atom_site_fract_y
  _atom_site_fract_z
  _atom_site_occupancy
  Ba  Ba1       1.0  0.7464155078924506  0.6171355538677619  0.7906192796354221  1.0000
  Ba  Ba2       1.0  0.246436866971834  0.8828647052026498  0.709367375334061  1.0000
  Ba  Ba3       1.0  0.25357785402056976  0.3828660865026593  0.20938231129199641  1.0000
  Ba  Ba4       1.0  0.7535656481578741  0.1171372322735209  0.29063913188587526  1.0000
  H   H1        1.0  0.8126529646133348  0.19776707472863106  0.8195505916250881  1.0000
  H   H2        1.0  0.3126426233591246  0.3022253776811327  0.680454009209548  1.0000
  H   H3        1.0  0.1873639336665534  0.802228845602507  0.18045206344639556  1.0000
  H   H4        1.0  0.6873703520774939  0.6977713375430241  0.3195458465940392  1.0000
  H   H5        1.0  0.43914586278089723  0.2767979179233039  0.9042970622426765  1.0000
  H   H6        1.0  0.939151725421368  0.22320663266005175  0.5956820268573682  1.0000
  H   H7        1.0  0.5608605744913646  0.7231944887514602  0.09569530900924414  1.0000
  H   H8        1.0  0.0608520968558395  0.7768034690235484  0.4043160024721787  1.0000
  H   H9        1.0  0.5001150661255521  0.1163428214542463  0.8189038361716854  1.0000
  H   H10       1.0  0.00011036897796400001  0.38363776465047295  0.6810857359005313  1.0000
  H   H11       1.0  0.4998835262041865  0.8836599703325165  0.18110085499681364  1.0000
  H   H12       1.0  0.9998960689014355  0.6163564470237262  0.3189205508533774  1.0000
  H   H13       1.0  0.9223929215971509  0.8627870507740171  0.9820249154593769  1.0000
  H   H14       1.0  0.4224066948486183  0.6372002716555728  0.5179677165338462  1.0000
  H   H15       1.0  0.0776135158905902  0.13720467983521442  0.0179722214032623  1.0000
  H   H16       1.0  0.5776049730568431  0.36279358352339847  0.482032671041445  1.0000
  H   H17       1.0  0.2148292436529786  0.5855624717448366  0.7948977489922913  1.0000
  H   H18       1.0  0.714868738403311  0.9144255846667595  0.7051109124547355  1.0000
  H   H19       1.0  0.7851680406280578  0.41443869329265237  0.20509597629356346  1.0000
  H   H20       1.0  0.28512723882181495  0.0855724007654644  0.2948940095122837  1.0000
  H   H21       1.0  0.1378169963626377  0.4752277736826329  0.8640071434471538  1.0000
  H   H22       1.0  0.6378457516647629  0.024758394491278993  0.6359924569559469  1.0000
  H   H23       1.0  0.8621789803922296  0.5247753970766809  0.1359878659682678  1.0000
  H   H24       1.0  0.3621580710344077  0.9752415966806468  0.3640137493508747  1.0000
  H   H25       1.0  0.8239658313203789  0.9536499080023052  0.9135114825935562  1.0000
  H   H26       1.0  0.3240128996015983  0.5463527561849945  0.5864975669470739  1.0000
  H   H27       1.0  0.17601968519119984  0.04633622131594711  0.0864886838249603  1.0000
  H   H28       1.0  0.6759961531286365  0.453651744258707  0.4135034925390003  1.0000
  H   H29       1.0  0.7979423053179174  0.3867230344788837  0.9808688621806854  1.0000
  H   H30       1.0  0.29792769403263714  0.11328908366037642  0.519126424104094  1.0000
  H   H31       1.0  0.20206151711748527  0.6132727075739908  0.019130842941102285  1.0000
  H   H32       1.0  0.7020656677081972  0.8867132921931502  0.48087138442906513  1.0000
  C   C1        1.0  0.6478126090594926  0.2682508159530529  0.6803531909488642  1.0000
  C   C2        1.0  0.1477866805368038  0.231737657032518  0.8196365033961684  1.0000
  C   C3        1.0  0.352178137673306  0.7317566039150876  0.3196483195314599  1.0000
  C   C4        1.0  0.8521949132773727  0.7682650158858878  0.18036622094898294  1.0000
  C   C5        1.0  0.6984886889222253  0.26242173049869433  0.8232840197618219  1.0000
  C   C6        1.0  0.19848792311057653  0.2375702983765394  0.6766997559849771  1.0000
  C   C7        1.0  0.3015085956981808  0.7375730978055802  0.17671651795468796  1.0000
  C   C8        1.0  0.8015093615198196  0.7624342614617491  0.3233022864472517  1.0000
  C   C9        1.0  0.5448483086174178  0.2050186567842331  0.887574765052605  1.0000
  C   C10       1.0  0.0448450874828268  0.2949831200145426  0.6123977088132194  1.0000
  C   C11       1.0  0.45516074427301584  0.7949734303355529  0.11242827116885222  1.0000
  C   C12       1.0  0.9551548116913436  0.7050274200566237  0.3875916219496817  1.0000
  C   C13       1.0  0.5949840103795268  0.16788060288301662  0.016890758549813305  1.0000
  C   C14       1.0  0.09496226849901748  0.3321326451752499  0.4831065236969253  1.0000
  C   C15       1.0  0.405008043948051  0.8321074133372336  0.9831087257455524  1.0000
  C   C16       1.0  0.9050297855424745  0.6678714987297953  0.5168886360999708  1.0000
  O   O1        1.0  0.6073428794256941  0.37792174306291326  0.6564629981615442  1.0000
  O   O2        1.0  0.10734911837784719  0.12207119997206925  0.8435216573735079  1.0000
  O   O3        1.0  0.39266486512395465  0.6220790060719923  0.343523844849365  1.0000
  O   O4        1.0  0.8926468584999157  0.8779253369661645  0.1564752483902794  1.0000
  O   O5        1.0  0.7406498335973807  0.3909572427534727  0.8948365956156509  1.0000
  O   O6        1.0  0.2406468318458933  0.1090518509489371  0.6051575741339407  1.0000
  O   O7        1.0  0.2593566037654682  0.609039175370036  0.10515834395548751  1.0000
  O   O8        1.0  0.7593399920849393  0.8909544769229929  0.3948418193518038  1.0000
  O   O9        1.0  0.12094307760548867  0.5691527655010163  0.8534542870491536  1.0000
  O   O10       1.0  0.6209680297436505  0.9308433034836838  0.6465610971919136  1.0000
  O   O11       1.0  0.8790581294805122  0.43085241099289123  0.1465420066460013  1.0000
  O   O12       1.0  0.379027947619349  0.06916264542847018  0.3534479781970674  1.0000
  O   O13       1.0  0.5288763239815779  0.23219897274758242  0.1252453733944208  1.0000
  O   O14       1.0  0.0288692500643108  0.26781693652513644  0.37474932384311904  1.0000
  O   O15       1.0  0.4711052694056405  0.7678089449154941  0.8747484216155926  1.0000
  O   O16       1.0  0.971135880420796  0.7321814054304172  0.6252614976328774  1.0000
  O   O17       1.0  0.8942864471233775  0.8723922110854972  0.8898214857701705  1.0000
  O   O18       1.0  0.3943215936979881  0.6276089822304486  0.6101778614995013  1.0000
  O   O19       1.0  0.1057147602084072  0.12759969776624303  0.11017860062171543  1.0000
  O   O20       1.0  0.6056913817819307  0.37238779241128134  0.38982297752054523  1.0000
  O   O21       1.0  0.6481388957345898  0.16131652208647304  0.5937168806310069  1.0000
  O   O22       1.0  0.14814556182500382  0.33867169209501924  0.9062844775770673  1.0000
  O   O23       1.0  0.351876694638463  0.8386896275889346  0.4062795638660789  1.0000
  O   O24       1.0  0.8518687211437808  0.661328856327721  0.09371499692638714  1.0000
  O   O25       1.0  0.7039169277555928  0.07641542312655503  0.014927950232895205  1.0000
  O   O26       1.0  0.20391652273547575  0.4235963781445093  0.48510716398249093  1.0000
  O   O27       1.0  0.29606205077180187  0.92357344738641  0.9850697178007978  1.0000
  O   O28       1.0  0.7960833778401195  0.5764316337434465  0.5149160372522205  1.0000
