data_image0
_chemical_formula_structural       Sr2H36C24O28
_chemical_formula_sum              "Sr2 H36 C24 O28"
_cell_length_a       6.364638571147278
_cell_length_b       8.27511303783013
_cell_length_c       16.296425506030925
_cell_angle_alpha    90.00018757868045
_cell_angle_beta     89.99983073113354
_cell_angle_gamma    108.89564673128423

_space_group_name_H-M_alt    "P 1"
_space_group_IT_number       1

loop_
  _space_group_symop_operation_xyz
  'x, y, z'

loop_
  _atom_site_type_symbol
  _atom_site_label
  _atom_site_symmetry_multiplicity
  _atom_site_fract_x
  _atom_site_fract_y
  _atom_site_fract_z
  _atom_site_occupancy
  Sr  Sr1       1.0  0.9711465976226703  0.22522578785740416  0.11014647577186307  1.0000
  Sr  Sr2       1.0  0.0288536386371234  0.7747728099799643  0.6101466816237602  1.0000
  H   H1        1.0  0.3802625449680617  0.5374150147953285  0.1783951645896237  1.0000
  H   H2        1.0  0.6197362714930674  0.46258520771752387  0.6783954105505073  1.0000
  H   H3        1.0  0.39654440113935857  0.5659975131763202  0.08076395241736377  1.0000
  H   H4        1.0  0.6034554573093089  0.4340034700995686  0.5807641709152732  1.0000
  H   H5        1.0  0.5094415392960912  0.0112272812432366  0.20166295707268483  1.0000
  H   H6        1.0  0.49055401288861594  0.9887692192036822  0.7016660445280463  1.0000
  H   H7        1.0  0.4446165257401801  0.07017663409375527  0.11632592334296277  1.0000
  H   H8        1.0  0.5553826084045497  0.9298270781632637  0.6163282269589627  1.0000
  H   H9        1.0  0.4131790184419088  0.7904069919617882  0.2975441783221625  1.0000
  H   H10       1.0  0.586819189253312  0.20958622468793206  0.7975471210156471  1.0000
  H   H11       1.0  0.5969310191574378  0.7600199925458355  0.5056676020793843  1.0000
  H   H12       1.0  0.4030702821671923  0.2399831478966377  0.0056668484699855986  1.0000
  H   H13       1.0  0.2824800607832785  0.15431752277149965  0.5378706744715982  1.0000
  H   H14       1.0  0.7175195053985064  0.8456819564041638  0.037869310873212186  1.0000
  H   H15       1.0  0.7356512571645765  0.7854374977294895  0.3763422498054182  1.0000
  H   H16       1.0  0.2643444187805244  0.21455866304513188  0.8763400500322971  1.0000
  H   H17       1.0  0.6640612430000628  0.028417971212853395  0.44230399649503477  1.0000
  H   H18       1.0  0.3359408958608582  0.9715836879275483  0.9423035527920189  1.0000
  H   H19       1.0  0.06105237522076829  0.22477252882339374  0.45358857296604765  1.0000
  H   H20       1.0  0.9389512936885112  0.7752253854862801  0.9535883428241616  1.0000
  H   H21       1.0  0.8947465284067135  0.2060894585705242  0.5428432327102752  1.0000
  H   H22       1.0  0.10525720705273756  0.7939126284097922  0.04284494648449309  1.0000
  H   H23       1.0  0.27789859081547513  0.6539799808125507  0.44629455749937097  1.0000
  H   H24       1.0  0.7221056246601733  0.3460229901859506  0.946295110317294  1.0000
  H   H25       1.0  0.8885818976046307  0.25271059628966697  0.3007693297044297  1.0000
  H   H26       1.0  0.11142099635907236  0.7472903141772418  0.8007700094209225  1.0000
  H   H27       1.0  0.6466016754914745  0.4650404523813164  0.11402807632244817  1.0000
  H   H28       1.0  0.3534001033967654  0.5349619975980814  0.6140281331602537  1.0000
  H   H29       1.0  0.4990387364254687  0.3013249909548391  0.24688415743867848  1.0000
  H   H30       1.0  0.5009639239100849  0.6986743572723951  0.7468849225355567  1.0000
  H   H31       1.0  0.9197022921623769  0.5527612599229171  0.3241654826627211  1.0000
  H   H32       1.0  0.08029995586871762  0.4472384970982191  0.8241657127325863  1.0000
  H   H33       1.0  0.8015995806675561  0.681185453015729  0.19969173256250627  1.0000
  H   H34       1.0  0.19839860106718982  0.318813604940537  0.6996897776102882  1.0000
  H   H35       1.0  0.059399691432474866  0.6428333076539161  0.18861730854251138  1.0000
  H   H36       1.0  0.9406011549428327  0.357172077742824  0.6886170135976142  1.0000
  C   C1        1.0  0.10235464241398518  0.015539166761435297  0.28366522711709746  1.0000
  C   C2        1.0  0.8976357688069285  0.984450090692107  0.7836690650284053  1.0000
  C   C3        1.0  0.212500066457153  0.9203890742226191  0.3299146880964939  1.0000
  C   C4        1.0  0.7874963917414916  0.07960430011468839  0.829917802469424  1.0000
  C   C5        1.0  0.08362036405912929  0.8489462848858408  0.39762525870805376  1.0000
  C   C6        1.0  0.9163783519246065  0.15105001556037928  0.8976246581643179  1.0000
  C   C7        1.0  0.8748248945463499  0.9002722036933758  0.3924144986139098  1.0000
  C   C8        1.0  0.12517542603050197  0.09972408273493724  0.8924147281535821  1.0000
  C   C9        1.0  0.7990645701994266  0.9847226029081922  0.4655711442583267  1.0000
  C   C10       1.0  0.2009385002116346  0.015277915648063396  0.9655705360685116  1.0000
  C   C11       1.0  0.975619252435976  0.1367457875862357  0.5028122655112099  1.0000
  C   C12       1.0  0.024382598689037156  0.8632547968928391  0.0028129575756920995  1.0000
  C   C13       1.0  0.5270581808183791  0.3603839748356208  0.43327107487272787  1.0000
  C   C14       1.0  0.4729445273435928  0.6396189137296274  0.9332717767368732  1.0000
  C   C15       1.0  0.4618047058876584  0.5020710878794716  0.4074502273552695  1.0000
  C   C16       1.0  0.538196042128412  0.49793037335052037  0.9074493973583129  1.0000
  C   C17       1.0  0.4834910319522335  0.5168960388311489  0.32272428497311967  1.0000
  C   C18       1.0  0.5165086047524452  0.4831011426121846  0.8227228423796615  1.0000
  C   C19       1.0  0.5918087904849968  0.38817230486277776  0.29506161036969286  1.0000
  C   C20       1.0  0.4081920360257101  0.6118272846623042  0.7950611147301173  1.0000
  C   C21       1.0  0.8374997142743154  0.47143415578717196  0.2720104687283325  1.0000
  C   C22       1.0  0.16250175632749383  0.5285665890095145  0.772010735537094  1.0000
  C   C23       1.0  0.8793124098613985  0.5807716407117522  0.19474144117263845  1.0000
  C   C24       1.0  0.12068684050445458  0.4192299454694534  0.6947409656711867  1.0000
  O   O1        1.0  0.35748816729275745  0.47588143398808563  0.12427773884574826  1.0000
  O   O2        1.0  0.6425114590023211  0.5241197794647332  0.6242786717320284  1.0000
  O   O3        1.0  0.5690762739802152  0.0531386216772916  0.14684295940919864  1.0000
  O   O4        1.0  0.43092112055646237  0.9468652384629904  0.6468454342396581  1.0000
  O   O5        1.0  0.15514518141162628  0.09254951331738678  0.21751823797602293  1.0000
  O   O6        1.0  0.8448429636890892  0.9074368262913737  0.7175232394523332  1.0000
  O   O7        1.0  0.41399508301184074  0.9136305793035148  0.30486060590980196  1.0000
  O   O8        1.0  0.5859993974837465  0.08636518982905979  0.8048651910349205  1.0000
  O   O9        1.0  0.10784250625133754  0.7440042867832019  0.4531563558874082  1.0000
  O   O10       1.0  0.8921590535984263  0.25599615255977426  0.9531559531249696  1.0000
  O   O11       1.0  0.9085017424297346  0.014228813280759296  0.3223695676169313  1.0000
  O   O12       1.0  0.0914952771424425  0.9857657983414184  0.8223700426177485  1.0000
  O   O13       1.0  0.7172212506652897  0.859989980655726  0.5295722422013255  1.0000
  O   O14       1.0  0.28277940201601837  0.14001200902860228  0.029570238379172095  1.0000
  O   O15       1.0  0.129062917398862  0.07939164584573889  0.5491529311047785  1.0000
  O   O16       1.0  0.8709355329029052  0.920609156674466  0.049153352591318394  1.0000
  O   O17       1.0  0.5296135662654677  0.29744810298868873  0.5031225368192551  1.0000
  O   O18       1.0  0.47038774863561617  0.7025550239929144  0.003122454083282399  1.0000
  O   O19       1.0  0.4003756847164439  0.6019210804289015  0.4630097667135899  1.0000
  O   O20       1.0  0.599626864788817  0.39808196544218066  0.9630093178678788  1.0000
  O   O21       1.0  0.4353935082784801  0.6195622549290505  0.2723918857833566  1.0000
  O   O22       1.0  0.5646074526330693  0.38043339661667364  0.7723926760621181  1.0000
  O   O23       1.0  0.5941418075211048  0.28602688978738655  0.36763081462466823  1.0000
  O   O24       1.0  0.4058607297305982  0.713974374354308  0.867630486976793  1.0000
  O   O25       1.0  0.937447858869902  0.34157966303327203  0.2585877305890348  1.0000
  O   O26       1.0  0.06255578125227865  0.6584223015069244  0.7585877092574903  1.0000
  O   O27       1.0  0.8061916968592298  0.4801388492911656  0.12233104424956306  1.0000
  O   O28       1.0  0.19380898205150018  0.5198649082656742  0.6223300335785281  1.0000
