data_image0
_chemical_formula_structural       Mn2H32C24O16F8
_chemical_formula_sum              "Mn2 H32 C24 O16 F8"
_cell_length_a       8.41096493935949
_cell_length_b       8.41093856008041
_cell_length_c       13.481814182028542
_cell_angle_alpha    93.23717469351224
_cell_angle_beta     93.23684243310976
_cell_angle_gamma    115.32538588731414

_space_group_name_H-M_alt    "P 1"
_space_group_IT_number       1

loop_
  _space_group_symop_operation_xyz
  'x, y, z'

loop_
  _atom_site_type_symbol
  _atom_site_label
  _atom_site_symmetry_multiplicity
  _atom_site_fract_x
  _atom_site_fract_y
  _atom_site_fract_z
  _atom_site_occupancy
  Mn  Mn1       1.0  0.02674375905980504  0.9732554770925788  0.7499999180080223  1.0000
  Mn  Mn2       1.0  0.973255117806751  0.026742240204072208  0.24999957236983764  1.0000
  H   H1        1.0  0.7993758861003214  0.847916698474208  0.5919748100316866  1.0000
  H   H2        1.0  0.15208257908631848  0.2006200364729978  0.9080255535411156  1.0000
  H   H3        1.0  0.20061440341845582  0.1520690886249625  0.4080247341596959  1.0000
  H   H4        1.0  0.8479304950073823  0.7993831285495857  0.0919738537553698  1.0000
  H   H5        1.0  0.02314252653565065  0.7727463457694271  0.9095802688049659  1.0000
  H   H6        1.0  0.22725553189813044  0.9768608985515003  0.5904201897674071  1.0000
  H   H7        1.0  0.9768631812228962  0.22724492909180333  0.09042220158435302  1.0000
  H   H8        1.0  0.7727552218071522  0.023139596883936495  0.4095775667204649  1.0000
  H   H9        1.0  0.6875460746770018  0.608015953043804  0.7458231154485729  1.0000
  H   H10       1.0  0.3919850571344766  0.31245439777377737  0.7541779740409637  1.0000
  H   H11       1.0  0.3124510185376934  0.3919831076861016  0.2541837776685298  1.0000
  H   H12       1.0  0.6080129566162853  0.6875498247957668  0.24581577152215323  1.0000
  H   H13       1.0  0.5937168241812356  0.5361855228160836  0.6191276577075229  1.0000
  H   H14       1.0  0.46381607888023507  0.40628337884451327  0.8808734814835474  1.0000
  H   H15       1.0  0.40627731736233835  0.46381218312448175  0.38087909101959383  1.0000
  H   H16       1.0  0.5361836826898881  0.5937221756461427  0.11911962559022983  1.0000
  H   H17       1.0  0.5677820695397956  0.7122245032821654  0.686567791235106  1.0000
  H   H18       1.0  0.2877767338894088  0.4322169229448819  0.8134351358155527  1.0000
  H   H19       1.0  0.4322115165955934  0.287771882160243  0.3134388945940358  1.0000
  H   H20       1.0  0.7122224779928173  0.5677873167702572  0.1865586504935735  1.0000
  H   H21       1.0  0.00630500361830149  0.5844305608617406  0.7186014882465273  1.0000
  H   H22       1.0  0.4155713120744765  0.9937045719269693  0.7813988731484115  1.0000
  H   H23       1.0  0.9937082508258895  0.41556736218208107  0.2813984910833938  1.0000
  H   H24       1.0  0.5844293297723125  0.006294494458678902  0.2186022051400869  1.0000
  H   H25       1.0  0.9107812769804865  0.484966307100656  0.8278192643998709  1.0000
  H   H26       1.0  0.5150386728290711  0.08923030980695049  0.672180976729031  1.0000
  H   H27       1.0  0.08923446104174097  0.5150290263836723  0.17218071137210697  1.0000
  H   H28       1.0  0.48496908193200744  0.9107714947482467  0.32782191535209654  1.0000
  H   H29       1.0  0.14534102728186582  0.5891346701269954  0.8250954277122275  1.0000
  H   H30       1.0  0.41086870496194894  0.8546682984041214  0.6749047381160551  1.0000
  H   H31       1.0  0.8546711163459549  0.4108606119205406  0.1749044258217367  1.0000
  H   H32       1.0  0.5891414403417842  0.14533353471964014  0.3250974933237529  1.0000
  C   C1        1.0  0.9236883363276859  0.16040564861412324  0.580117931531035  1.0000
  C   C2        1.0  0.8395954521312916  0.0763110538423106  0.9198826573042282  1.0000
  C   C3        1.0  0.07630399447334213  0.8395906624563879  0.41988129221882525  1.0000
  C   C4        1.0  0.1604054402202238  0.923680129546  0.0801166815677661  1.0000
  C   C5        1.0  0.9615327073935731  0.33473016259691235  0.5387325656025652  1.0000
  C   C6        1.0  0.6652681827011904  0.0384680845015382  0.9612674774499581  1.0000
  C   C7        1.0  0.03845815189011155  0.6652739914348234  0.4612653882844882  1.0000
  C   C8        1.0  0.33473229023568507  0.9615362353081381  0.038734513071766216  1.0000
  C   C9        1.0  0.13526352727214433  0.4586633272334666  0.5323050915184027  1.0000
  C   C10       1.0  0.5413439279015507  0.8647336667436891  0.967687908974824  1.0000
  C   C11       1.0  0.8647356487775824  0.5413435878360389  0.4676954590406055  1.0000
  C   C12       1.0  0.45865389114200633  0.13525875137019486  0.032306917757175306  1.0000
  C   C13       1.0  0.17258317224823133  0.619518862948141  0.4937357281869054  1.0000
  C   C14       1.0  0.3804769581098527  0.8274103741749175  0.006261992653072915  1.0000
  C   C15       1.0  0.8274093933020268  0.38048929263644743  0.5062676093273666  1.0000
  C   C16       1.0  0.6195111885668538  0.17258453062486723  0.9937325931608356  1.0000
  C   C17       1.0  0.6576381915766802  0.6505336126109782  0.6746604552751378  1.0000
  C   C18       1.0  0.3494666610644827  0.3423611073648019  0.8253414400005497  1.0000
  C   C19       1.0  0.34235474611513445  0.3494640704613517  0.3253455105726458  1.0000
  C   C20       1.0  0.650533748949215  0.6576431494959394  0.1746523870545786  1.0000
  C   C21       1.0  0.02165479772965997  0.5956089280412018  0.800296413693637  1.0000
  C   C22       1.0  0.4043922287594626  0.9783529147226704  0.6997038538445111  1.0000
  C   C23       1.0  0.9783580057823115  0.4043850678216786  0.19970564408833275  1.0000
  C   C24       1.0  0.5956131998929167  0.021646214522746704  0.3002966452946794  1.0000
  O   O1        1.0  0.815356836806778  0.019596638838663704  0.5288119683801682  1.0000
  O   O2        1.0  0.9804040409755644  0.1846450626150258  0.9711886330436313  1.0000
  O   O3        1.0  0.18464429180472317  0.9804036793735734  0.47118026720638545  1.0000
  O   O4        1.0  0.019605442933254887  0.8153607663835418  0.02882261119802371  1.0000
  O   O5        1.0  0.005240005356419928  0.17026856647266447  0.6633694470710197  1.0000
  O   O6        1.0  0.8297336222683498  0.9947543668609528  0.8366304263728566  1.0000
  O   O7        1.0  0.9947373695776419  0.8297261954620014  0.33662625629551  1.0000
  O   O8        1.0  0.17028113942029677  0.005255492236734901  0.1633833552007218  1.0000
  O   O9        1.0  0.8216533560737176  0.7748161136490809  0.642664163507952  1.0000
  O   O10       1.0  0.2251849758259823  0.1783440458900287  0.8573383670007003  1.0000
  O   O11       1.0  0.17833894461509905  0.22518287849842977  0.35734256662512826  1.0000
  O   O12       1.0  0.7748147971847175  0.8216615200458862  0.14265622433973144  1.0000
  O   O13       1.0  0.025112819199144147  0.7614894685160465  0.8349099674083647  1.0000
  O   O14       1.0  0.23851363559991512  0.9748941227746358  0.6650898850647593  1.0000
  O   O15       1.0  0.9748987861813561  0.23850451020123134  0.1650920496276029  1.0000
  O   O16       1.0  0.761491857486405  0.025102359729565604  0.3349075604911746  1.0000
  F   F1        1.0  0.27176907364049185  0.4221841284106845  0.5613952117929202  1.0000
  F   F2        1.0  0.5778191062674694  0.7282304918785271  0.9385952022620359  1.0000
  F   F3        1.0  0.7282235449031306  0.5778213689874223  0.4386035878714409  1.0000
  F   F4        1.0  0.4221748507160896  0.2717697406280167  0.061399015248468906  1.0000
  F   F5        1.0  0.34422434921461337  0.7312683864986768  0.48578782692463557  1.0000
  F   F6        1.0  0.26873506800931307  0.6557692192659843  0.014203368930637306  1.0000
  F   F7        1.0  0.6557690408147892  0.2687529684339155  0.5142241400519794  1.0000
  F   F8        1.0  0.7312445014667971  0.3442280863579725  0.9857776583113066  1.0000
