data_image0
_chemical_formula_structural       Co3P4H30C14N4O20
_chemical_formula_sum              "Co3 P4 H30 C14 N4 O20"
_cell_length_a       9.587231532552778
_cell_length_b       9.711897062290923
_cell_length_c       9.363702552320431
_cell_angle_alpha    74.42027249357751
_cell_angle_beta     66.89614351474134
_cell_angle_gamma    83.86626104023188

_space_group_name_H-M_alt    "P 1"
_space_group_IT_number       1

loop_
  _space_group_symop_operation_xyz
  'x, y, z'

loop_
  _atom_site_type_symbol
  _atom_site_label
  _atom_site_symmetry_multiplicity
  _atom_site_fract_x
  _atom_site_fract_y
  _atom_site_fract_z
  _atom_site_occupancy
  Co  Co1       1.0  0.9999954088429489  0.5000012198300324  0.9999998708045724  1.0000
  Co  Co2       1.0  0.2962051612238596  0.45235836313523237  0.4426976690286679  1.0000
  Co  Co3       1.0  0.7037857934576834  0.5476251092618796  0.5573066576428617  1.0000
  P   P1        1.0  0.11178286372042119  0.28687058797675036  0.7727986005670218  1.0000
  P   P2        1.0  0.8882192548664419  0.7131340771944964  0.2272057118315018  1.0000
  P   P3        1.0  0.34642516724574085  0.4981107022410853  0.7364148176335377  1.0000
  P   P4        1.0  0.6535700653114348  0.5018958754555527  0.2635966181007845  1.0000
  H   H1        1.0  0.5066728350557457  0.3329559307446033  0.5350379201933038  1.0000
  H   H2        1.0  0.4933244687374341  0.6670426447983004  0.46496474349648764  1.0000
  H   H3        1.0  0.1755154150579231  0.7549855305704868  0.9525081205673089  1.0000
  H   H4        1.0  0.8244874561591117  0.24501535309212844  0.04749118654412139  1.0000
  H   H5        1.0  0.556636212961152  0.1066596112847122  0.9262931789822488  1.0000
  H   H6        1.0  0.443362590414587  0.8933322677160048  0.07371055449204532  1.0000
  H   H7        1.0  0.5547507745599914  0.3034383031699406  0.8606505647290064  1.0000
  H   H8        1.0  0.44525378289412026  0.696552541578349  0.1393435683501849  1.0000
  H   H9        1.0  0.28700831966049384  0.11382673616876096  0.1285919040881964  1.0000
  H   H10       1.0  0.7129886828743963  0.8861817296933694  0.8714123068969997  1.0000
  H   H11       1.0  0.2854816253478276  0.3086352362082323  0.054371026366261795  1.0000
  H   H12       1.0  0.7145291824329194  0.6913714406281315  0.9456190079576317  1.0000
  H   H13       1.0  0.12357881695914592  0.9815149011212937  0.044219720588301904  1.0000
  H   H14       1.0  0.8764216685247913  0.018481479474786525  0.9557854677271536  1.0000
  H   H15       1.0  0.4405803564503046  0.758845464035332  0.7205722251803905  1.0000
  H   H16       1.0  0.5594152826023588  0.24115646494201573  0.2794267929307424  1.0000
  H   H17       1.0  0.5514283737762541  0.03174824879330634  0.6537959766313007  1.0000
  H   H18       1.0  0.4485678154332787  0.9682590600523682  0.34620201926168903  1.0000
  H   H19       1.0  0.03199515041059441  0.5563361181372599  0.7045520618915192  1.0000
  H   H20       1.0  0.9680107207460227  0.4436582094583059  0.2954471590462759  1.0000
  H   H21       1.0  0.06275255361644842  0.7005086454967464  0.7353134442631699  1.0000
  H   H22       1.0  0.9372487176841418  0.299485989615718  0.2646868087754939  1.0000
  H   H23       1.0  0.08261968300965351  0.6089700922481356  0.3488667163388897  1.0000
  H   H24       1.0  0.9173873423692954  0.39102350861190166  0.6511239363046711  1.0000
  H   H25       1.0  0.18951501699252302  0.7089324301963416  0.36860076627114324  1.0000
  H   H26       1.0  0.8104827200304001  0.2910575621100406  0.6314028559070904  1.0000
  H   H27       1.0  0.14921590859037787  0.3017119900222553  0.3366828071475397  1.0000
  H   H28       1.0  0.8507860772505751  0.698284531048955  0.6633212252097778  1.0000
  H   H29       1.0  0.1718629738298674  0.21751168732799198  0.4990064868559259  1.0000
  H   H30       1.0  0.8281453761670647  0.7824872808668958  0.5010003690100859  1.0000
  C   C1        1.0  0.3153167978027794  0.3077895443413752  0.7423594258347422  1.0000
  C   C2        1.0  0.6846829034134102  0.692222255772947  0.2576462462722233  1.0000
  C   C3        1.0  0.35971229326789017  0.1924316802255319  0.8633960429944096  1.0000
  C   C4        1.0  0.640288561396183  0.8075725561359519  0.13660328656096246  1.0000
  C   C5        1.0  0.49120845953840586  0.2043180840078661  0.9107747608681436  1.0000
  C   C6        1.0  0.5087946307451716  0.7956746562903019  0.0892205981794874  1.0000
  C   C7        1.0  0.33089738184552436  0.20674084698157458  0.028611513582688996  1.0000
  C   C8        1.0  0.6691069075367793  0.7932619241109646  0.9713842368022088  1.0000
  C   C9        1.0  0.224488004148732  0.960483689040501  0.9464555595410502  1.0000
  C   C10       1.0  0.7755108663744182  0.03951909902754378  0.053546088211199105  1.0000
  C   C11       1.0  0.39076603020604495  0.8478556603130868  0.7727487678459752  1.0000
  C   C12       1.0  0.609231708365769  0.1521480060279146  0.22725040284696973  1.0000
  C   C13       1.0  0.44708653896652367  0.9806488474596975  0.7421749306794396  1.0000
  C   C14       1.0  0.5529114036274834  0.019359331538972003  0.2578158054592663  1.0000
  N   N1        1.0  0.34287158840385973  0.048570775992452284  0.8530191343445354  1.0000
  N   N2        1.0  0.6571249684369178  0.9514307145839992  0.14697745427366019  1.0000
  N   N3        1.0  0.252995205115461  0.8387457498217189  0.8996674663497404  1.0000
  N   N4        1.0  0.7470077482933206  0.16125338688610924  0.1003342415300921  1.0000
  O   O1        1.0  0.09009088771242806  0.14932132460700837  0.7376000046329168  1.0000
  O   O2        1.0  0.909914067204973  0.8506871154240729  0.2623971943125341  1.0000
  O   O3        1.0  0.01544619527511057  0.30588371551725396  0.9422485765357181  1.0000
  O   O4        1.0  0.9845501308092112  0.6941171969187607  0.057743070525070606  1.0000
  O   O5        1.0  0.08768816170762514  0.4185682576126055  0.6426444141883465  1.0000
  O   O6        1.0  0.9123174240095012  0.581430141297389  0.3573586147926449  1.0000
  O   O7        1.0  0.5043152304616426  0.5110129327495584  0.7371531269110322  1.0000
  O   O8        1.0  0.49567076919699105  0.48899222395586855  0.2628603030147261  1.0000
  O   O9        1.0  0.22308430998960205  0.5390888522659908  0.8812031714236142  1.0000
  O   O10       1.0  0.7769028597101624  0.4609097586990955  0.1188039509557015  1.0000
  O   O11       1.0  0.33851028009147655  0.5842325821433221  0.5725408050896449  1.0000
  O   O12       1.0  0.6614822063280245  0.4157881183155395  0.42746238727952607  1.0000
  O   O13       1.0  0.40039219819734473  0.28962302042747007  0.5816955026296213  1.0000
  O   O14       1.0  0.599603776074531  0.710377891272955  0.4182998124537605  1.0000
  O   O15       1.0  0.9809566291900539  0.6352009316120542  0.7612036590111444  1.0000
  O   O16       1.0  0.0190418620119317  0.3647989532203225  0.2387905063947073  1.0000
  O   O17       1.0  0.1912544284805051  0.6254593641259588  0.3293382486106822  1.0000
  O   O18       1.0  0.8087515904663718  0.374530451547521  0.6706657388587587  1.0000
  O   O19       1.0  0.22356776646344662  0.27877058613019295  0.38973391968936977  1.0000
  O   O20       1.0  0.7764380051337411  0.7212176333903458  0.6102650912175207  1.0000
