data_image0
_chemical_formula_structural       Zn4H40C60N8O24
_chemical_formula_sum              "Zn4 H40 C60 N8 O24"
_cell_length_a       8.493339862243051
_cell_length_b       10.097395810770324
_cell_length_c       18.434
_cell_angle_alpha    88.0504975076804
_cell_angle_beta     85.36043265164143
_cell_angle_gamma    65.12926203581146

_space_group_name_H-M_alt    "P 1"
_space_group_IT_number       1

loop_
  _space_group_symop_operation_xyz
  'x, y, z'

loop_
  _atom_site_type_symbol
  _atom_site_label
  _atom_site_symmetry_multiplicity
  _atom_site_fract_x
  _atom_site_fract_y
  _atom_site_fract_z
  _atom_site_occupancy
  Zn  Zn1       1.0  0.5809113440322307  0.8941089925670199  0.5939858807078765  1.0000
  Zn  Zn2       1.0  0.5246890496026423  0.894352417036572  0.9060229463818884  1.0000
  Zn  Zn3       1.0  0.4190898025695233  0.1058907358454988  0.406013918878287  1.0000
  Zn  Zn4       1.0  0.47531264279613344  0.1056462197864008  0.09397739567996409  1.0000
  H   H1        1.0  0.8625414347929874  0.9463579263571448  0.6434261418557696  1.0000
  H   H2        1.0  0.19067091630191865  0.9465271227373293  0.8566115027572749  1.0000
  H   H3        1.0  0.13745916601175173  0.0536428936449269  0.3565731152547116  1.0000
  H   H4        1.0  0.8093295948330237  0.0534715140856434  0.14338888332822822  1.0000
  H   H5        1.0  0.9409382645768434  0.4790615392612025  0.4391333921386931  1.0000
  H   H6        1.0  0.5795803034179341  0.4792220029249847  0.06095388059055301  1.0000
  H   H7        1.0  0.05906060916704804  0.520940372330422  0.5608664514714619  1.0000
  H   H8        1.0  0.4204213889808344  0.520776633897981  0.9390470039471667  1.0000
  H   H9        1.0  0.06727810682446743  0.2795866481520406  0.5311555671659464  1.0000
  H   H10       1.0  0.6525744119710737  0.2797918669873596  0.9689395093274626  1.0000
  H   H11       1.0  0.9327191295283795  0.7204185382082287  0.46884481892058727  1.0000
  H   H12       1.0  0.34742782622470975  0.7202056782460602  0.0310613752100792  1.0000
  H   H13       1.0  0.5050610086929908  0.3684704188152566  0.4276815657470863  1.0000
  H   H14       1.0  0.12609822025514458  0.3684616860988541  0.07237460970029021  1.0000
  H   H15       1.0  0.494940227578553  0.631531492776368  0.5723181898157819  1.0000
  H   H16       1.0  0.8739034721436242  0.6315369507241115  0.9276251898857096  1.0000
  H   H17       1.0  0.31611407791923807  0.5620343525135  0.15256807421280882  1.0000
  H   H18       1.0  0.12131095976180722  0.5621849918713409  0.3475511805361294  1.0000
  H   H19       1.0  0.6838852519518781  0.4379642843094729  0.8474307284687513  1.0000
  H   H20       1.0  0.8786896410429321  0.4378158281307307  0.6524486190502188  1.0000
  H   H21       1.0  0.2815210760131208  0.7917342666606757  0.21168240510024114  1.0000
  H   H22       1.0  0.9259671868072276  0.7919056462199592  0.2885270790542123  1.0000
  H   H23       1.0  0.7184741642695017  0.2082654617518429  0.7883170721282724  1.0000
  H   H24       1.0  0.0740327785307002  0.20809408219255943  0.7114727645556016  1.0000
  H   H25       1.0  0.447012558516498  0.7793665570640584  0.3203151035537601  1.0000
  H   H26       1.0  0.7730360029321872  0.7795521272874879  0.1798326891154574  1.0000
  H   H27       1.0  0.5529839526997407  0.220635354527559  0.6796842856278147  1.0000
  H   H28       1.0  0.22696269147211726  0.22044541794593192  0.8201672425412883  1.0000
  H   H29       1.0  0.685653582392348  0.3103552827857428  0.30551030119880823  1.0000
  H   H30       1.0  0.0038815311597275915  0.3105201128077297  0.19447920786043235  1.0000
  H   H31       1.0  0.31434756420940607  0.689644445626776  0.6944900408632222  1.0000
  H   H32       1.0  0.996120707036056  0.68947743242569  0.8055211342012499  1.0000
  H   H33       1.0  0.2553155618930135  0.0009671483409193001  0.643001802515876  1.0000
  H   H34       1.0  0.7434073429583634  0.0010981390868636  0.8569208915259454  1.0000
  H   H35       1.0  0.744683678308313  0.9990293053029546  0.35699812914069895  1.0000
  H   H36       1.0  0.25659434944040543  0.998900497736102  0.1430789080600547  1.0000
  H   H37       1.0  0.3699402349670322  0.9105657966163251  0.7090083865476446  1.0000
  H   H38       1.0  0.7193290893378546  0.910564705026772  0.7909574580373759  1.0000
  H   H39       1.0  0.6300601864981131  0.0894306570275489  0.2909909586094345  1.0000
  H   H40       1.0  0.28067087600007307  0.08943502338574663  0.2090423855724381  1.0000
  C   C1        1.0  0.7183711406372029  0.4338533580657966  0.42771553882897  1.0000
  C   C2        1.0  0.8473639967782844  0.4339690665580492  0.07235814352601719  1.0000
  C   C3        1.0  0.2816277331066884  0.5661485535258208  0.572284304781185  1.0000
  C   C4        1.0  0.1526388768843177  0.5660295702649237  0.9276421545121992  1.0000
  C   C5        1.0  0.875104894282849  0.41074768207006684  0.4577339960682423  1.0000
  C   C6        1.0  0.7137055701954936  0.4108699400996159  0.042357508285491015  1.0000
  C   C7        1.0  0.12489170660317948  0.5892564127006494  0.5422653490900445  1.0000
  C   C8        1.0  0.28629494093944885  0.5891286967233498  0.9576434202758649  1.0000
  C   C9        1.0  0.9443396817022394  0.3009927192190887  0.5082947166431497  1.0000
  C   C10       1.0  0.7542012339512213  0.3010680388980091  0.9918148322832964  1.0000
  C   C11       1.0  0.05565700885358643  0.6990135587307265  0.4917056694435616  1.0000
  C   C12       1.0  0.24579982298074307  0.6989295063354106  0.008185553802029193  1.0000
  C   C13       1.0  0.8574409284114778  0.2131099361728275  0.5300332129100129  1.0000
  C   C14       1.0  0.9289749910217465  0.213116485710124  0.9700865727135551  1.0000
  C   C15       1.0  0.142556853738384  0.7868941585978889  0.4699660882246307  1.0000
  C   C16       1.0  0.07102661170723228  0.7868799679337428  0.029913270895740095  1.0000
  C   C17       1.0  0.6989360612473661  0.2381040620893131  0.5004838930122163  1.0000
  C   C18       1.0  0.06251818999125901  0.2380855050669695  0.9996374875193085  1.0000
  C   C19       1.0  0.3010622666995105  0.7618989410918574  0.49951486564638986  1.0000
  C   C20       1.0  0.9374846836713432  0.7619131317560035  0.000363352994767781  1.0000
  C   C21       1.0  0.6284802779124874  0.349393799846986  0.44926849264326313  1.0000
  C   C22       1.0  0.02171421446621482  0.3493828839514848  0.050839711884656004  1.0000
  C   C23       1.0  0.3715180500343963  0.6506092033341844  0.5507308084912097  1.0000
  C   C24       1.0  0.9782880237295757  0.6506146612819351  0.9491611726528931  1.0000
  C   C25       1.0  0.6098999279617277  0.1457806927554088  0.5239048091477159  1.0000
  C   C26       1.0  0.24389844570101366  0.14572611327793084  0.9762500876747923  1.0000
  C   C27       1.0  0.39009949157918555  0.8542201272466627  0.47609449198640874  1.0000
  C   C28       1.0  0.756102065433936  0.8542725235450419  0.023750840886563707  1.0000
  C   C29       1.0  0.928409823319697  0.0978620947084181  0.5838056871334275  1.0000
  C   C30       1.0  0.9732740130348958  0.0979144910067973  0.9162701641294433  1.0000
  C   C31       1.0  0.071589140093991  0.9021420000622982  0.4161935699775725  1.0000
  C   C32       1.0  0.026726498100046694  0.9020841458161684  0.0837307644319125  1.0000
  C   C33       1.0  0.38839404384786025  0.5587606754543374  0.19925886051186842  1.0000
  C   C34       1.0  0.05235674184043399  0.5589276886554231  0.3008483834345341  1.0000
  C   C35       1.0  0.6116035589624147  0.44123905295818133  0.800741613621078  1.0000
  C   C36       1.0  0.9476444047613198  0.4410720397570955  0.6991530435792157  1.0000
  C   C37       1.0  0.3681783494457775  0.6867397258353733  0.23313796645173573  1.0000
  C   C38       1.0  0.9444855214311334  0.6869231128797041  0.2669978042772101  1.0000
  C   C39       1.0  0.6318210700951356  0.31326109416669823  0.7668607922065291  1.0000
  C   C40       1.0  0.05551498970381633  0.3130755239432688  0.7330020393324262  1.0000
  C   C41       1.0  0.4579788828410828  0.6805340392460764  0.294114879628431  1.0000
  C   C42       1.0  0.8609563050951796  0.6807185178799529  0.20600160706514714  1.0000
  C   C43       1.0  0.5420193554359969  0.3194667807559952  0.7058844655293302  1.0000
  C   C44       1.0  0.13904602277040823  0.3192812105325729  0.7939981484973799  1.0000
  C   C45       1.0  0.568244269546625  0.5448516414137288  0.3211743486635044  1.0000
  C   C46       1.0  0.8865100853978517  0.5450306620998617  0.1788845003455606  1.0000
  C   C47       1.0  0.43175460419727346  0.4551502701778887  0.6788254949466506  1.0000
  C   C48       1.0  0.11349042573709063  0.45496797472311107  0.8211158857399354  1.0000
  C   C49       1.0  0.5943732682325873  0.416064814766017  0.2866456286065002  1.0000
  C   C50       1.0  0.9893229189631543  0.4162372859148462  0.21336957138937862  1.0000
  C   C51       1.0  0.40562442424747763  0.5839370968256006  0.7133537165514312  1.0000
  C   C52       1.0  0.01067759217179547  0.5837613509081195  0.7866308146961175  1.0000
  C   C53       1.0  0.5029067762547683  0.4234548760165993  0.22559101584468522  1.0000
  C   C54       1.0  0.07330310641541621  0.4236306219340804  0.2744549976862842  1.0000
  C   C55       1.0  0.4970955516108122  0.5765448523959193  0.7744081972419821  1.0000
  C   C56       1.0  0.926697494389323  0.5763701980679912  0.7255453443759166  1.0000
  C   C57       1.0  0.5310223917037149  0.2858752955471076  0.1885368265060166  1.0000
  C   C58       1.0  0.1828467149492141  0.2860062862930519  0.3114484430372216  1.0000
  C   C59       1.0  0.46897757363421283  0.714124432865411  0.8114630171037902  1.0000
  C   C60       1.0  0.8171520691248803  0.7139934421194667  0.6885519870720956  1.0000
  N   N1        1.0  0.6804380878917797  0.0403647983639672  0.5724005470362387  1.0000
  N   N2        1.0  0.2787892017604037  0.0403866301549556  0.9277036006599104  1.0000
  N   N3        1.0  0.3195613316491334  0.9596360216381044  0.4275982116220192  1.0000
  N   N4        1.0  0.7212124906383723  0.95961200666801  0.07229619892608949  1.0000
  N   N5        1.0  0.8327874315085637  0.0207642164119051  0.6011326911063152  1.0000
  N   N6        1.0  0.14601985444079446  0.0208580931131692  0.8989307348896176  1.0000
  N   N7        1.0  0.16721026097150138  0.9792376951797124  0.3988666540516164  1.0000
  N   N8        1.0  0.8539818379579814  0.9791405437098036  0.10106960717223498  1.0000
  O   O1        1.0  0.4634568587231699  0.1639709410094241  0.5001605581778179  1.0000
  O   O2        1.0  0.3720977349660402  0.1639665746512264  2.0354854747493957e-05  1.0000
  O   O3        1.0  0.5365449233453958  0.8360298789926475  0.4998375699573074  1.0000
  O   O4        1.0  0.6279051386965548  0.8360320621717463  0.9999799431834687  1.0000
  O   O5        1.0  0.0664369594172101  0.07003856867945052  0.6138005512220985  1.0000
  O   O6        1.0  0.8631108514894948  0.0701400865075641  0.8862193303666501  1.0000
  O   O7        1.0  0.933560822732645  0.9299655260912658  0.3861998348642643  1.0000
  O   O8        1.0  0.13688911384843291  0.9298596419049546  0.11378051324316368  1.0000
  O   O9        1.0  0.44405209848198984  0.29668094049829113  0.1330191479399687  1.0000
  O   O10       1.0  0.2591835376747582  0.2967628097145082  0.3669286159775353  1.0000
  O   O11       1.0  0.5559489584499673  0.7033166047351288  0.8669812381453567  1.0000
  O   O12       1.0  0.7408105213440308  0.7032369186980105  0.6330741601297802  1.0000
  O   O13       1.0  0.6398138358638903  0.16328542277229732  0.2113712396982592  1.0000
  O   O14       1.0  0.19647197026286284  0.1634731761748256  0.2886090990017038  1.0000
  O   O15       1.0  0.360186675271052  0.8367132140506756  0.7886291463872368  1.0000
  O   O16       1.0  0.8035279950750649  0.8365265522377001  0.7113912870839627  1.0000
  O   O17       1.0  0.6590482467024048  0.5482508512710922  0.37984527015076  1.0000
  O   O18       1.0  0.7923561388224628  0.5484211392408227  0.1201961752322518  1.0000
  O   O19       1.0  0.3409506270414937  0.45175106032053247  0.620155115935255  1.0000
  O   O20       1.0  0.20764673484013235  0.45157749758215  0.8798035803301049  1.0000
  O   O21       1.0  0.37187261856710324  0.9660687588537158  0.6630247247889899  1.0000
  O   O22       1.0  0.6617447778110587  0.9662139402638062  0.8368837400417065  1.0000
  O   O23       1.0  0.6281277132282527  0.0339255116110593  0.3369741219155174  1.0000
  O   O24       1.0  0.3382557333238907  0.0337846965591666  0.16311610356792983  1.0000
