data_image0
_chemical_formula_structural       Cd4H44C52N4O24
_chemical_formula_sum              "Cd4 H44 C52 N4 O24"
_cell_length_a       7.909675666841038
_cell_length_b       12.062953815
_cell_length_c       13.678
_cell_angle_alpha    90.0
_cell_angle_beta     98.90654039745743
_cell_angle_gamma    90.0

_space_group_name_H-M_alt    "P 1"
_space_group_IT_number       1

loop_
  _space_group_symop_operation_xyz
  'x, y, z'

loop_
  _atom_site_type_symbol
  _atom_site_label
  _atom_site_symmetry_multiplicity
  _atom_site_fract_x
  _atom_site_fract_y
  _atom_site_fract_z
  _atom_site_occupancy
  Cd  Cd1       1.0  0.6410053978188941  0.9150536567813248  0.8304595592319332  1.0000
  Cd  Cd2       1.0  0.8589928673493361  0.4150542294022728  0.16954185731458443  1.0000
  Cd  Cd3       1.0  0.3589955784678693  0.0849468559454962  0.1695406012858101  1.0000
  Cd  Cd4       1.0  0.1410055495278968  0.5849462833245553  0.8304588051584574  1.0000
  H   H1        1.0  0.9976667947905824  0.8639500871702523  0.7974216811352051  1.0000
  H   H2        1.0  0.5023340297871854  0.3639498308068454  0.2025785023549815  1.0000
  H   H3        1.0  0.002335461200957  0.1360487675878588  0.20257932505645473  1.0000
  H   H4        1.0  0.497666946499578  0.6360506819199827  0.7974216581627687  1.0000
  H   H5        1.0  0.0163136763779548  0.9597856526320427  0.8790742611789852  1.0000
  H   H6        1.0  0.4836861719130425  0.4597853962686358  0.12092576179345833  1.0000
  H   H7        1.0  0.9836885796135775  0.0402132021260684  0.12092674501267453  1.0000
  H   H8        1.0  0.5163135246689592  0.5402142874738374  0.8790742841514217  1.0000
  H   H9        1.0  0.2742087390874559  0.8605628570915657  0.7967463295873074  1.0000
  H   H10       1.0  0.2257911092035485  0.3605626007281515  0.20325369338512903  1.0000
  H   H11       1.0  0.7257909574945458  0.1394376556352555  0.2032529852565261  1.0000
  H   H12       1.0  0.7742085873784532  0.6394379119986695  0.7967470836607902  1.0000
  H   H13       1.0  0.2970233156850526  0.9611609376786776  0.8745390444078964  1.0000
  H   H14       1.0  0.2029765326059447  0.4611615102996254  0.1254617096655792  1.0000
  H   H15       1.0  0.7029776606017109  0.0388395750481436  0.1254611161098467  1.0000
  H   H16       1.0  0.7970218842712882  0.5388381734428478  0.8745382217064234  1.0000
  H   H17       1.0  0.7547621937292988  0.6353526770922144  0.047543686006953606  1.0000
  H   H18       1.0  0.7452360714389386  0.1353515917444454  0.9524548061354139  1.0000
  H   H19       1.0  0.245237502852703  0.3646486646189686  0.9524563599379263  1.0000
  H   H20       1.0  0.254764904847832  0.8646472630136657  0.047544623281297  1.0000
  H   H21       1.0  0.9163748291306035  0.9200416556514881  0.2277272651066085  1.0000
  H   H22       1.0  0.5836259954471643  0.42004222827242904  0.7722729183835781  1.0000
  H   H23       1.0  0.0836261471561599  0.07995885707534  0.7722728954111417  1.0000
  H   H24       1.0  0.4163737011348374  0.5799574554700371  0.22772785866233392  1.0000
  H   H25       1.0  0.0039939585798265  0.5838619717868809  0.3330005121853219  1.0000
  H   H26       1.0  0.4960033303016402  0.0838633733921839  0.6669978194392955  1.0000
  H   H27       1.0  0.9960044582974064  0.4161385409399401  0.6669994191866806  1.0000
  H   H28       1.0  0.5039963662803615  0.9161371393346444  0.3330022265055774  1.0000
  H   H29       1.0  0.1320105047161064  0.9584203153976816  0.3327825848871058  1.0000
  H   H30       1.0  0.3679906232796597  0.45842005903427463  0.6672175526582008  1.0000
  H   H31       1.0  0.8679891918658882  0.04158019732913941  0.6672181921588063  1.0000
  H   H32       1.0  0.6320103530071108  0.5415796247081985  0.33278187675851  1.0000
  H   H33       1.0  0.2525650923522491  0.0357839387118659  0.4938427741380096  1.0000
  H   H34       1.0  0.2474309168244488  0.5357841950752729  0.5061576362168552  1.0000
  H   H35       1.0  0.7474333245249838  0.9642165740149623  0.5061578883350393  1.0000
  H   H36       1.0  0.7525662203480152  0.4642163176515482  0.493842180582277  1.0000
  H   H37       1.0  0.2393303856452462  0.9285835104558942  0.6491727028506774  1.0000
  H   H38       1.0  0.2606656235314517  0.4285832540924801  0.3508269764031482  1.0000
  H   H39       1.0  0.7606680312319867  0.071416173286579  0.3508279596223645  1.0000
  H   H40       1.0  0.7393327933457812  0.571416429649986  0.6491729549688614  1.0000
  H   H41       1.0  0.9897185484787272  0.6607486128388231  0.4769389036544496  1.0000
  H   H42       1.0  0.5102809963942718  0.160749185459764  0.5230604341618204  1.0000
  H   H43       1.0  0.0102798683985057  0.33925107090365003  0.5230610277175529  1.0000
  H   H44       1.0  0.4897174204829611  0.839251327267057  0.4769387661091429  1.0000
  C   C1        1.0  0.7671958052517525  0.8608397378664776  0.040401283104770924  1.0000
  C   C2        1.0  0.7327999005069472  0.3608394815030636  0.9595991731949668  1.0000
  C   C3        1.0  0.2328038913302493  0.1391607748603505  0.9595994939411412  1.0000
  C   C4        1.0  0.2672010757798233  0.6391602022394026  0.04040025622174429  1.0000
  C   C5        1.0  0.8311580089482575  0.7877846625080522  0.1268816295449682  1.0000
  C   C6        1.0  0.6688415359247415  0.2877852351289931  0.8731169771702697  1.0000
  C   C7        1.0  0.1688442470432818  0.2122158502187688  0.8731171833435739  1.0000
  C   C8        1.0  0.3311594403620219  0.712214448613473  0.1268817211454021  1.0000
  C   C9        1.0  0.8161150794045753  0.6728086772501669  0.1164501639387296  1.0000
  C   C10       1.0  0.6838844654684308  0.1728092498711078  0.8835491738775474  1.0000
  C   C11       1.0  0.1838846171774264  0.3271918354766541  0.883549150905111  1.0000
  C   C12       1.0  0.31611779052310857  0.8271904338713584  0.1164503701120339  1.0000
  C   C13       1.0  0.9072415762039087  0.8306439826985255  0.21754780972809584  1.0000
  C   C14       1.0  0.5927592483738593  0.3306437263351185  0.7824516426610515  1.0000
  C   C15       1.0  0.09275940008285492  0.16935653002829554  0.7824523507896545  1.0000
  C   C16       1.0  0.4072417279129112  0.6693551284229997  0.2175477867556594  1.0000
  C   C17       1.0  0.9708953710514123  0.7593248005816093  0.2955234275687175  1.0000
  C   C18       1.0  0.5291054535263484  0.2593253732025502  0.7044752937193905  1.0000
  C   C19       1.0  0.0291030458258135  0.2406748831608638  0.7044757727022457  1.0000
  C   C20       1.0  0.470895522760415  0.7406743105399158  0.2955241356973204  1.0000
  C   C21       1.0  0.9547544548170919  0.6451454692898508  0.2771482131980889  1.0000
  C   C22       1.0  0.545246369760676  0.1451443839420818  0.7228512391910584  1.0000
  C   C23       1.0  0.0452452417649098  0.3548550434369702  0.7228525638478233  1.0000
  C   C24       1.0  0.4547546065260875  0.8548552998003844  0.2771481902256525  1.0000
  C   C25       1.0  0.0500838054913828  0.8038147330003654  0.3922709956344903  1.0000
  C   C26       1.0  0.449919881913921  0.3038161346056683  0.6077279088544856  1.0000
  C   C27       1.0  0.9499158910906189  0.1961849507421007  0.6077297814114218  1.0000
  C   C28       1.0  0.5500823740776113  0.696184378121153  0.3922709040340564  1.0000
  C   C29       1.0  0.1259946126034066  0.9096984178414544  0.3992625477839411  1.0000
  C   C30       1.0  0.3740052356875978  0.4096989904623953  0.6007374751884953  1.0000
  C   C31       1.0  0.8740050839785951  0.0903012659010187  0.6007382292619711  1.0000
  C   C32       1.0  0.6259944608944041  0.5903006932800707  0.3992625707563775  1.0000
  C   C33       1.0  0.1945048870441255  0.9536951045683821  0.4909387980098785  1.0000
  C   C34       1.0  0.305493681542103  0.4536948482049681  0.5090611103896876  1.0000
  C   C35       1.0  0.8054935298331074  0.0463054081584389  0.5090618644631633  1.0000
  C   C36       1.0  0.6945060150398916  0.546304835537498  0.4909389355551852  1.0000
  C   C37       1.0  0.1874677905268385  0.8937686544562171  0.5773419537759139  1.0000
  C   C38       1.0  0.3125307780593971  0.3937683980928028  0.4226579546236522  1.0000
  C   C39       1.0  0.8125319060551632  0.10623102928625633  0.4226580921689589  1.0000
  C   C40       1.0  0.6874676388178358  0.6062312856496633  0.5773419767483503  1.0000
  C   C41       1.0  0.1163917080269812  0.7870543272903988  0.5713191549964591  1.0000
  C   C42       1.0  0.3836068605592473  0.2870548999113467  0.428680753403107  1.0000
  C   C43       1.0  0.8836067088502446  0.2129453564520674  0.4286815074765827  1.0000
  C   C44       1.0  0.6163928360227544  0.7129456128154814  0.5713192925417658  1.0000
  C   C45       1.0  0.0486543752659188  0.7425527890906523  0.4790409560319517  1.0000
  C   C46       1.0  0.4513467527298474  0.24255336171160022  0.5209584504123228  1.0000
  C   C47       1.0  0.9513466010208447  0.2574477236361687  0.5209592044857985  1.0000
  C   C48       1.0  0.5486516641473855  0.757446322030873  0.4790414809596869  1.0000
  C   C49       1.0  0.1146973789146202  0.7176285454426221  0.6613136807220528  1.0000
  C   C50       1.0  0.3853024693763771  0.2176291180635701  0.3386863422503836  1.0000
  C   C51       1.0  0.8853023176673815  0.282370309315489  0.3386870963238593  1.0000
  C   C52       1.0  0.6146972272056175  0.782371394663258  0.6613137036944892  1.0000
  N   N1        1.0  0.8775805790994015  0.6037244369570658  0.19025998353163234  1.0000
  N   N2        1.0  0.6224189657735977  0.10372500957801381  0.8097386231836055  1.0000
  N   N3        1.0  0.12241911748260043  0.3962752467854003  0.8097393313122013  1.0000
  N   N4        1.0  0.377580730808404  0.8962746741644525  0.19026069166023518  1.0000
  O   O1        1.0  0.6793248773813048  0.8123383501489415  0.9670267527537675  1.0000
  O   O2        1.0  0.8206657095583196  0.3123372648011724  0.032974707456560316  1.0000
  O   O3        1.0  0.3206760989054658  0.18766216257787963  0.0329726766629435  1.0000
  O   O4        1.0  0.179333987023675  0.6876624189412937  0.9670253384883125  1.0000
  O   O5        1.0  0.8036814678821216  0.9640557510498909  0.043330101568201905  1.0000
  O   O6        1.0  0.6963193566956463  0.4640546657021218  0.9566693508209455  1.0000
  O   O7        1.0  0.1963220678141866  0.0359447616769302  0.9566695569942496  1.0000
  O   O8        1.0  0.3036803398863483  0.5359441890559893  0.0433306951239345  1.0000
  O   O9        1.0  0.1010160552437114  0.6135362957948942  0.6525642902666675  1.0000
  O   O10       1.0  0.3989837930472859  0.1135360394314802  0.3474357327057689  1.0000
  O   O11       1.0  0.8989810819287527  0.3864633879475718  0.34743552653246473  1.0000
  O   O12       1.0  0.6010159035347087  0.8864636443109859  0.6525635821380719  1.0000
  O   O13       1.0  0.1299655364974086  0.7646510250690213  0.7476367835911902  1.0000
  O   O14       1.0  0.37003303208882  0.2646499397212523  0.2523638559094152  1.0000
  O   O15       1.0  0.8700354397893548  0.2353486586734448  0.2523641080275993  1.0000
  O   O16       1.0  0.6299666644931747  0.7353497440212138  0.7476361900354576  1.0000
  O   O17       1.0  0.9369384050419143  0.9260045401243248  0.824234954507439  1.0000
  O   O18       1.0  0.5630611398310847  0.42600511274526554  0.1757658455109166  1.0000
  O   O19       1.0  0.063063850949618  0.0739951436181485  0.17576678278526003  1.0000
  O   O20       1.0  0.436938556750917  0.5739945709972005  0.8242342004339632  1.0000
  O   O21       1.0  0.3465952392693765  0.9256911840377455  0.8200351569384807  1.0000
  O   O22       1.0  0.1534046090216208  0.4256917566586935  0.17996413493292346  1.0000
  O   O23       1.0  0.653405737017394  0.0743076707203656  0.1799642724782302  1.0000
  O   O24       1.0  0.8465950875603738  0.5743087560681346  0.8200359110119565  1.0000
