data_image0
_chemical_formula_structural       V4Cu2H16C20N4O12
_chemical_formula_sum              "V4 Cu2 H16 C20 N4 O12"
_cell_length_a       7.9261039494306305
_cell_length_b       8.17960618469444
_cell_length_c       10.210225673474122
_cell_angle_alpha    72.52010076450652
_cell_angle_beta     84.93680894640305
_cell_angle_gamma    76.52084652333723

_space_group_name_H-M_alt    "P 1"
_space_group_IT_number       1

loop_
  _space_group_symop_operation_xyz
  'x, y, z'

loop_
  _atom_site_type_symbol
  _atom_site_label
  _atom_site_symmetry_multiplicity
  _atom_site_fract_x
  _atom_site_fract_y
  _atom_site_fract_z
  _atom_site_occupancy
  V   V1        1.0  0.8739105037336898  0.3842407009808255  0.34804503026835937  1.0000
  V   V2        1.0  0.1260950310251161  0.6157587226814059  0.6519490389071052  1.0000
  V   V3        1.0  0.2629044413554809  0.26800822943757646  0.5313363555362969  1.0000
  V   V4        1.0  0.7370955634586596  0.7319873604230975  0.46866589274688397  1.0000
  Cu  Cu1       1.0  0.5782329743209474  0.16477969065301323  0.27859240365978627  1.0000
  Cu  Cu2       1.0  0.42177083761188777  0.8352158415625865  0.7214086075366096  1.0000
  H   H1        1.0  0.810717194184548  0.3724307309081851  0.06238144097446954  1.0000
  H   H2        1.0  0.1892808771107184  0.6275805828053223  0.9376093012586467  1.0000
  H   H3        1.0  0.8175885938524773  0.4763462349723325  0.8070414148767143  1.0000
  H   H4        1.0  0.18239624449552844  0.5236678911923108  0.1929495902691656  1.0000
  H   H5        1.0  0.5903236141680211  0.41804470942792443  0.6766480402698534  1.0000
  H   H6        1.0  0.4096666792846193  0.5819549396426283  0.32334804116784704  1.0000
  H   H7        1.0  0.3689834016183582  0.25772187798391144  0.8108517123095709  1.0000
  H   H8        1.0  0.6310156471487717  0.7422658710149364  0.18915250341468948  1.0000
  H   H9        1.0  0.15640375732145637  0.18237069499549818  0.9412447529943576  1.0000
  H   H10       1.0  0.8435943909622309  0.8176406497497767  0.058763605748119056  1.0000
  H   H11       1.0  0.9597757478190516  0.020551495595583395  0.11449569799744103  1.0000
  H   H12       1.0  0.040221377038079716  0.979458547870351  0.8855091312924303  1.0000
  H   H13       1.0  0.047010766335397136  0.8960989327967112  0.35867079609862884  1.0000
  H   H14       1.0  0.9529935867233519  0.1038939785433328  0.6413337495759494  1.0000
  H   H15       1.0  0.32423413762264647  0.9449839703694849  0.42682947394510523  1.0000
  H   H16       1.0  0.6757740685486623  0.055002335123070595  0.5731744380615639  1.0000
  C   C1        1.0  0.7159435136918405  0.34887582296254743  0.002579635273946188  1.0000
  C   C2        1.0  0.28405308609330154  0.6511302811086137  0.9974154120918542  1.0000
  C   C3        1.0  0.7168800692498465  0.40819543151019394  0.8594108005969261  1.0000
  C   C4        1.0  0.2831091676137732  0.5918094696553879  0.1405840840541899  1.0000
  C   C5        1.0  0.5919182984645346  0.3751528646716835  0.7886116517964298  1.0000
  C   C6        1.0  0.40807482145158513  0.6248454427143244  0.21138945005152704  1.0000
  C   C7        1.0  0.4673395075398403  0.28708847843223845  0.862849249131557  1.0000
  C   C8        1.0  0.5326589541074966  0.7129084396445792  0.13715082869565254  1.0000
  C   C9        1.0  0.4707280578393949  0.23484512674904323  0.005940593319770906  1.0000
  C   C10       1.0  0.5292711588101112  0.7651544039068839  0.9940617360684384  1.0000
  C   C11       1.0  0.3430687178252612  0.1461627465896029  0.09448185057604522  1.0000
  C   C12       1.0  0.6569368768134253  0.8538367012084435  0.9055259203289199  1.0000
  C   C13       1.0  0.19063717745333972  0.1245230988320998  0.04894387480462829  1.0000
  C   C14       1.0  0.8093594522717497  0.8754830173069692  0.9510580234259225  1.0000
  C   C15       1.0  0.0822019946636772  0.03559921108231379  0.1447654280118584  1.0000
  C   C16       1.0  0.9177951847415926  0.9644042876291719  0.8552419620868079  1.0000
  C   C17       1.0  0.1291683590215484  0.9666468619313378  0.2820359019301435  1.0000
  C   C18       1.0  0.8708336669828968  0.0333513201440994  0.7179675330884621  1.0000
  C   C19       1.0  0.2808835737789011  0.9954375674622683  0.3211181820730999  1.0000
  C   C20       1.0  0.7191220454679838  0.004555323513429202  0.6788852987759171  1.0000
  N   N1        1.0  0.5961753191420059  0.2633199291894286  0.073742035182697  1.0000
  N   N2        1.0  0.40382383868222865  0.7366861444969572  0.9262567547017538  1.0000
  N   N3        1.0  0.38186333783428955  0.08623903255508479  0.22946398681192193  1.0000
  N   N4        1.0  0.6181420087110752  0.913755167996392  0.7705372374505117  1.0000
  O   O1        1.0  0.7687517233321302  0.23268985632058298  0.3352106966545989  1.0000
  O   O2        1.0  0.2312522725370059  0.7673108972817744  0.6647821807598645  1.0000
  O   O3        1.0  0.9166774193516715  0.5030571380371355  0.19413910745652171  1.0000
  O   O4        1.0  0.08332632520161813  0.49694493376094323  0.8058564068461821  1.0000
  O   O5        1.0  0.7395464091544781  0.5244980683856612  0.44098469646692  1.0000
  O   O6        1.0  0.2604565803966424  0.4755013908333012  0.559008566274791  1.0000
  O   O7        1.0  0.4420129718676549  0.213243973989421  0.4402213236996957  1.0000
  O   O8        1.0  0.5579903834273452  0.7867476464151936  0.5597855646920634  1.0000
  O   O9        1.0  0.07204009431617213  0.2846922143465632  0.4419320671594349  1.0000
  O   O10       1.0  0.9279652222892452  0.7153019741370129  0.5580623062382487  1.0000
  O   O11       1.0  0.7343078202934805  0.8856977949087935  0.3191916851289561  1.0000
  O   O12       1.0  0.26568960187337615  0.1143043821590055  0.6808111106915291  1.0000
