data_image0
_chemical_formula_structural       Cd4H40C32N40
_chemical_formula_sum              "Cd4 H40 C32 N40"
_cell_length_a       6.482174486878866
_cell_length_b       10.449848667692105
_cell_length_c       18.973607884025498
_cell_angle_alpha    90.00018538817548
_cell_angle_beta     90.00002931777068
_cell_angle_gamma    90.40831565564629

_space_group_name_H-M_alt    "P 1"
_space_group_IT_number       1

loop_
  _space_group_symop_operation_xyz
  'x, y, z'

loop_
  _atom_site_type_symbol
  _atom_site_label
  _atom_site_symmetry_multiplicity
  _atom_site_fract_x
  _atom_site_fract_y
  _atom_site_fract_z
  _atom_site_occupancy
  Cd  Cd1       1.0  0.7457392107134524  0.06069862125755781  0.5381281371180788  1.0000
  Cd  Cd2       1.0  0.2542635388995365  0.43929383350781137  0.03813707201999249  1.0000
  Cd  Cd3       1.0  0.2542623509406567  0.9393008959131636  0.46186293922298177  1.0000
  Cd  Cd4       1.0  0.7457363973257286  0.5606961122784426  0.9618703427969844  1.0000
  H   H1        1.0  0.8180665696305381  0.39792144223114423  0.5343068197277956  1.0000
  H   H2        1.0  0.1819300528049936  0.1020767251294714  0.034306181100646385  1.0000
  H   H3        1.0  0.18192726193773714  0.6020761525763375  0.4656926893771212  1.0000
  H   H4        1.0  0.8180668807281393  0.8979227870025851  0.9656933280062455  1.0000
  H   H5        1.0  0.5395587977722157  0.5632781586310783  0.5958392568137255  1.0000
  H   H6        1.0  0.4604425465472346  0.936726270169068  0.09583820931774058  1.0000
  H   H7        1.0  0.46044278870821387  0.4367242294878437  0.4041602522961368  1.0000
  H   H8        1.0  0.5395543952595573  0.0632741989390126  0.9041618268378921  1.0000
  H   H9        1.0  0.2946858776448877  0.185571618270437  0.5993564163879126  1.0000
  H   H10       1.0  0.7053077693189421  0.31442788523423815  0.09935782902770995  1.0000
  H   H11       1.0  0.7053095297255395  0.8144298061227457  0.4006430927205498  1.0000
  H   H12       1.0  0.2946906903773083  0.685569714638248  0.9006422071254999  1.0000
  H   H13       1.0  0.0772348600126236  0.3530688575106424  0.6537004545554906  1.0000
  H   H14       1.0  0.9227619655805412  0.14693192592141463  0.15370002558336884  1.0000
  H   H15       1.0  0.9227651754861979  0.6469325719490938  0.34630010864916017  1.0000
  H   H16       1.0  0.077236518935436  0.8530685448744822  0.8463000105724061  1.0000
  H   H17       1.0  0.1020165893553795  0.5040236450678819  0.6108062716821647  1.0000
  H   H18       1.0  0.8979816515733176  0.9959760835033576  0.11080593345032946  1.0000
  H   H19       1.0  0.8979849888518031  0.4959777860765798  0.38919323742684486  1.0000
  H   H20       1.0  0.10201990181455049  0.0040224767192427  0.88919410270401  1.0000
  H   H21       1.0  0.32885581490488375  0.42458858195686133  0.746894202317115  1.0000
  H   H22       1.0  0.671139621913454  0.0754137048102876  0.24689412886431222  1.0000
  H   H23       1.0  0.6711442371400124  0.5754147614502685  0.25310583384136  1.0000
  H   H24       1.0  0.3288604135857795  0.9245877246509975  0.7531069613882264  1.0000
  H   H25       1.0  0.35322428137136797  0.5762778674687326  0.7042208531280705  1.0000
  H   H26       1.0  0.6467710201464668  0.9237224070786142  0.20422245032145261  1.0000
  H   H27       1.0  0.6467742196910893  0.4237245172761063  0.2957791830294098  1.0000
  H   H28       1.0  0.35322900708034405  0.0762780654113016  0.7957796940260164  1.0000
  H   H29       1.0  0.9260351851614387  0.6696861148825022  0.6808537912686956  1.0000
  H   H30       1.0  0.07396473278101469  0.830316898235516  0.18085512168602944  1.0000
  H   H31       1.0  0.07396330762696118  0.3303153128847711  0.319145190792156  1.0000
  H   H32       1.0  0.9260352861721444  0.16968261727838296  0.8191464956126919  1.0000
  H   H33       1.0  0.6692998497755055  0.710885234113519  0.7957423398001917  1.0000
  H   H34       1.0  0.3306971292247453  0.7891146233580385  0.29574311468505937  1.0000
  H   H35       1.0  0.33069863474129585  0.2891152366854825  0.20425875045136616  1.0000
  H   H36       1.0  0.6693013304723295  0.21088297651755278  0.7042579755639335  1.0000
  H   H37       1.0  0.11835030096065678  0.43954466973492856  0.8522747875735912  1.0000
  H   H38       1.0  0.8816483694391336  0.060456326176961304  0.35227577841483526  1.0000
  H   H39       1.0  0.8816497262653299  0.560455802751889  0.14772630267810163  1.0000
  H   H40       1.0  0.118351657786441  0.9395441463083072  0.6477247847889627  1.0000
  C   C1        1.0  0.6692444393296385  0.3770499588356699  0.5577704331118338  1.0000
  C   C2        1.0  0.3307476081957716  0.12295025538451647  0.05776669545605269  1.0000
  C   C3        1.0  0.3307463399140573  0.6229514604971483  0.44223013009199946  1.0000
  C   C4        1.0  0.6692524107549147  0.8770492601200811  0.9422317595553263  1.0000
  C   C5        1.0  0.532514633201771  0.46064737099182185  0.5878791604520968  1.0000
  C   C6        1.0  0.4674835908553518  0.03934824217446221  0.08787740592213568  1.0000
  C   C7        1.0  0.46748384304179075  0.5393521428327048  0.4121219297986015  1.0000
  C   C8        1.0  0.5325133426790244  0.9606512699622485  0.9121236843284277  1.0000
  C   C9        1.0  0.40237058069507714  0.26390888780338867  0.5902960153518106  1.0000
  C   C10       1.0  0.5976261375240526  0.23609056578847998  0.09029516132022047  1.0000
  C   C11       1.0  0.5976279120957954  0.7360925399731783  0.4097061289963761  1.0000
  C   C12       1.0  0.4023769668445993  0.7639089530902083  0.9097027666435475  1.0000
  C   C13       1.0  0.18191599925194168  0.434446947385652  0.6444476834865467  1.0000
  C   C14       1.0  0.8180808036058733  0.065552824658397  0.14444709113948304  1.0000
  C   C15       1.0  0.8180809508285023  0.5655544786984448  0.35555287971783395  1.0000
  C   C16       1.0  0.1819192070728093  0.9344457338763803  0.8555529450147215  1.0000
  C   C17       1.0  0.2482830459173542  0.4953282159609032  0.7142974004080498  1.0000
  C   C18       1.0  0.7517169515339289  0.004671970228955  0.2142977420245414  1.0000
  C   C19       1.0  0.7517154468714579  0.5046732118079191  0.28570210870068274  1.0000
  C   C20       1.0  0.24828307569123348  0.9953285022547644  0.7857022941313683  1.0000
  C   C21       1.0  0.9284487175814818  0.6306896994480979  0.7338167991880196  1.0000
  C   C22       1.0  0.0715528093014655  0.8693117128593784  0.233814509352328  1.0000
  C   C23       1.0  0.0715528606265252  0.3693117316994615  0.26618376401676597  1.0000
  C   C24       1.0  0.928447201376805  0.1306868456738499  0.7661849997539815  1.0000
  C   C25       1.0  0.8015104404608164  0.648622324118918  0.7910162574572864  1.0000
  C   C26       1.0  0.19849576258891227  0.851374644766686  0.2910181742636126  1.0000
  C   C27       1.0  0.1984957493270372  0.35137719813851487  0.20898272460253506  1.0000
  C   C28       1.0  0.8015042315432835  0.14862199981915586  0.7089818618888868  1.0000
  C   C29       1.0  0.028960384918512695  0.5077109545550228  0.8222910860376937  1.0000
  C   C30       1.0  0.9710335501595536  0.992289055669879  0.32229286221620856  1.0000
  C   C31       1.0  0.9710319287590677  0.49228950948339184  0.17770684192596775  1.0000
  C   C32       1.0  0.028967994955074496  0.0077085475782539  0.6777071739372784  1.0000
  N   N1        1.0  0.5861743054221691  0.2549172799261967  0.5593894081147324  1.0000
  N   N2        1.0  0.4138285187796882  0.24508008471141096  0.05938748383108108  1.0000
  N   N3        1.0  0.4138272562385339  0.7450822372693224  0.4406101009925647  1.0000
  N   N4        1.0  0.5861745607675884  0.7549165632376711  0.9406083359385701  1.0000
  N   N5        1.0  0.3641341294455103  0.3874812008791865  0.608061325356857  1.0000
  N   N6        1.0  0.6358595973084176  0.11252600960673217  0.10806078482279698  1.0000
  N   N7        1.0  0.6358644212584678  0.6125269257202176  0.3919413460451934  1.0000
  N   N8        1.0  0.3641388954812114  0.8874754181651882  0.8919397783817185  1.0000
  N   N9        1.0  0.0723387306410146  0.5410070208654504  0.7546629695091835  1.0000
  N   N10       1.0  0.9276597351353641  0.9589935536928492  0.2546641516998703  1.0000
  N   N11       1.0  0.9276566684553484  0.4589934465501597  0.24533548550264325  1.0000
  N   N12       1.0  0.07234336096168899  0.04100500821756729  0.7453358844546043  1.0000
  N   N13       1.0  0.8664344435171784  0.5716731116197237  0.8458797717171291  1.0000
  N   N14       1.0  0.1335595284283144  0.928327037318489  0.34587970611843116  1.0000
  N   N15       1.0  0.1335640327267953  0.4283264022063589  0.15412184558145722  1.0000
  N   N16       1.0  0.8664404822511924  0.0716715212193932  0.6541213841315494  1.0000
  N   N17       1.0  0.5526819780046494  0.0546639456015043  0.4277716653542638  1.0000
  N   N18       1.0  0.447324466027716  0.44533080389943774  0.92777074242948  1.0000
  N   N19       1.0  0.44732408768827264  0.9453212220528399  0.5722320601237668  1.0000
  N   N20       1.0  0.5526755860175924  0.5546725395092408  0.07222982077688296  1.0000
  N   N21       1.0  0.5463333884273353  0.1390258152132589  0.3846449922896084  1.0000
  N   N22       1.0  0.4536653242927144  0.36097441408168146  0.8846449742122497  1.0000
  N   N23       1.0  0.4536682145987497  0.8609784868515149  0.6153534627261761  1.0000
  N   N24       1.0  0.5463346946567355  0.6390251014182766  0.11535189965546518  1.0000
  N   N25       1.0  0.5446100576820355  0.21877825723791486  0.341292211977226  1.0000
  N   N26       1.0  0.455385501858771  0.2812217137318028  0.8412909979569034  1.0000
  N   N27       1.0  0.4553930466923858  0.7812212616624734  0.6587130946570026  1.0000
  N   N28       1.0  0.5446130157485314  0.7187825849557754  0.15870693001072306  1.0000
  N   N29       1.0  0.049040130313798606  0.1289056757408744  0.481058864340646  1.0000
  N   N30       1.0  0.9509664797366355  0.3710989568661347  0.9810557890871362  1.0000
  N   N31       1.0  0.9509691945314741  0.8710995917374685  0.5189395906766803  1.0000
  N   N32       1.0  0.0490397100475093  0.6289005653773498  0.018938449541671794  1.0000
  N   N33       1.0  0.078431356561282  0.2379150860388393  0.4628921503425259  1.0000
  N   N34       1.0  0.9215689880731546  0.2620817771916322  0.9628904567840872  1.0000
  N   N35       1.0  0.9215701802809234  0.7620815602379238  0.5371089399058844  1.0000
  N   N36       1.0  0.07843722653483809  0.7379206159907594  0.037109052326186984  1.0000
  N   N37       1.0  0.1064454120273908  0.3441219554481023  0.44595029302250555  1.0000
  N   N38       1.0  0.8935595590758892  0.15587768414435033  0.9459505134536597  1.0000
  N   N39       1.0  0.8935561827279271  0.6558813896514977  0.5540513242797684  1.0000
  N   N40       1.0  0.10645276018332336  0.8441170599951136  0.05404952269822159  1.0000
