data_image0
_chemical_formula_structural       Cu2H48C52Br4N4O10
_chemical_formula_sum              "Cu2 H48 C52 Br4 N4 O10"
_cell_length_a       9.650271766084131
_cell_length_b       10.745612328202052
_cell_length_c       13.28695071204457
_cell_angle_alpha    99.40938955564891
_cell_angle_beta     101.90169716955738
_cell_angle_gamma    90.59302487805873

_space_group_name_H-M_alt    "P 1"
_space_group_IT_number       1

loop_
  _space_group_symop_operation_xyz
  'x, y, z'

loop_
  _atom_site_type_symbol
  _atom_site_label
  _atom_site_symmetry_multiplicity
  _atom_site_fract_x
  _atom_site_fract_y
  _atom_site_fract_z
  _atom_site_occupancy
  Cu  Cu1       1.0  1.0935261372e-06  9.480917882000001e-07  1.7978295546000005e-06  1.0000
  Cu  Cu2       1.0  0.4999978017988552  1.3565509888998733e-06  0.9999990608850882  1.0000
  H   H1        1.0  0.8291413295930639  0.19603642062261886  0.08239737976170868  1.0000
  H   H2        1.0  0.17086194972780086  0.8039673372047532  0.9176054422531339  1.0000
  H   H3        1.0  0.84150500477579  0.3437806489667494  0.24983878524408012  1.0000
  H   H4        1.0  0.1584972552948045  0.6562240509775563  0.7501647569162488  1.0000
  H   H5        1.0  0.24105801512871494  0.1883190357049926  0.36811891125431373  1.0000
  H   H6        1.0  0.7589428628749745  0.8116790520801661  0.6318843014696542  1.0000
  H   H7        1.0  0.21366223644809426  0.0485466603008504  0.19568466791015746  1.0000
  H   H8        1.0  0.7863354641768368  0.9514514193418792  0.8043180560774846  1.0000
  H   H9        1.0  0.1548418816554999  0.404748802456055  0.4593657207695331  1.0000
  H   H10       1.0  0.8451592340607874  0.5952540056585178  0.540636644223362  1.0000
  H   H11       1.0  0.023255062263082497  0.3051500098892603  0.4853352679079779  1.0000
  H   H12       1.0  0.9767481154014276  0.6948518604622225  0.5146687954311278  1.0000
  H   H13       1.0  0.9723910397117377  0.43496795318717585  0.4204171530150874  1.0000
  H   H14       1.0  0.0276079687042383  0.565034848405972  0.5795833824338745  1.0000
  H   H15       1.0  0.21839859729098526  0.6382651382823995  0.43444316763189067  1.0000
  H   H16       1.0  0.7816066009024709  0.36173390081786033  0.5655555649192296  1.0000
  H   H17       1.0  0.2945176614176148  0.45317437678178857  0.32242933638902843  1.0000
  H   H18       1.0  0.7054865957342429  0.5468265454405098  0.6775657363461465  1.0000
  H   H19       1.0  0.2362520910721244  0.43376201943178927  0.13077075156809312  1.0000
  H   H20       1.0  0.7637500024751559  0.5662379530777102  0.8692238641451342  1.0000
  H   H21       1.0  0.10406594223499611  0.6051734090149312  0.04845079109136214  1.0000
  H   H22       1.0  0.8959341472116195  0.3948293931060931  0.9515468998302697  1.0000
  H   H23       1.0  0.705758324123714  0.06781160287811622  0.20087687875526686  1.0000
  H   H24       1.0  0.29424706643026605  0.9321912122670497  0.7991208748670576  1.0000
  H   H25       1.0  0.7421339458129523  0.011372481600759  0.3786791484262438  1.0000
  H   H26       1.0  0.2578662632616116  0.9886331550134958  0.6213211916681589  1.0000
  H   H27       1.0  0.3604961303379072  0.7722076056927775  0.27009990715290405  1.0000
  H   H28       1.0  0.6395010812229316  0.22780085126003521  0.729894322919485  1.0000
  H   H29       1.0  0.33572554554847034  0.8436015773648508  0.09817704421894298  1.0000
  H   H30       1.0  0.6642726289583578  0.1564049942796544  0.9018178382299595  1.0000
  H   H31       1.0  0.5822456817894305  0.9254392199277321  0.5078770134909549  1.0000
  H   H32       1.0  0.4177532867505604  0.07456263683434373  0.49212263890041913  1.0000
  H   H33       1.0  0.674572007360922  0.796036945557738  0.4595972737042687  1.0000
  H   H34       1.0  0.3254280875617965  0.20396585601671555  0.540399665357505  1.0000
  H   H35       1.0  0.4877029462145828  0.7794523731028917  0.44764811668865434  1.0000
  H   H36       1.0  0.5122929067270334  0.22055041816156515  0.5523489225845497  1.0000
  H   H37       1.0  0.7046737296983637  0.5931235843352666  0.384304409446422  1.0000
  H   H38       1.0  0.2953164772908464  0.40687258664630843  0.6156954080412761  1.0000
  H   H39       1.0  0.7835231937951262  0.7133349554014431  0.2573823986929328  1.0000
  H   H40       1.0  0.2164733968753794  0.28666217778920366  0.7426207830447284  1.0000
  H   H41       1.0  0.7370647626860957  0.621398022743307  0.07037409065349463  1.0000
  H   H42       1.0  0.26293588855718747  0.37859534361930275  0.9296284660818233  1.0000
  H   H43       1.0  0.6102091324566246  0.40963290403131236  0.007622255801209102  1.0000
  H   H44       1.0  0.3897884321120628  0.5903623427578921  0.99238007459325  1.0000
  H   H45       1.0  0.2082851328448641  0.08275905487387553  0.9346567668185275  1.0000
  H   H46       1.0  0.7917126514648345  0.9172399652273883  0.0653408253478319  1.0000
  H   H47       1.0  0.2899657500246278  0.1208516870554703  0.05156003902526862  1.0000
  H   H48       1.0  0.710029027362438  0.8791511031345397  0.9484390929154005  1.0000
  C   C1        1.0  0.9186986564702267  0.1983633892340181  0.14778184004214984  1.0000
  C   C2        1.0  0.08130253899801688  0.801641308542706  0.8522222910659283  1.0000
  C   C3        1.0  0.9259569492296367  0.2790242848300437  0.24181714056327772  1.0000
  C   C4        1.0  0.0740441500583486  0.7209785249242344  0.7581874800091983  1.0000
  C   C5        1.0  0.0410357283284668  0.2768952978691104  0.3249311190003965  1.0000
  C   C6        1.0  0.9589652912075551  0.7231056222230096  0.6750717354568964  1.0000
  C   C7        1.0  0.14702932773073482  0.1930502567027261  0.30766568809333  1.0000
  C   C8        1.0  0.852971680853095  0.8069506644825283  0.6923386700836931  1.0000
  C   C9        1.0  0.13357014763325034  0.11510024327525772  0.21178747937059234  1.0000
  C   C10       1.0  0.8664308320267865  0.884899731985783  0.7882144920291199  1.0000
  C   C11       1.0  0.0483402110380169  0.36030928936269657  0.42791719576399606  1.0000
  C   C12       1.0  0.9516630229307668  0.6396935241801601  0.5720854950531165  1.0000
  C   C13       1.0  0.0038101600251750013  0.8140355722365911  0.14035694607103016  1.0000
  C   C14       1.0  0.9961898965648573  0.18596723316383654  0.8596452560097564  1.0000
  C   C15       1.0  0.0817741457316643  0.714200251614358  0.1943133224377435  1.0000
  C   C16       1.0  0.9182194818249912  0.28580064729249693  0.8056853841953571  1.0000
  C   C17       1.0  0.1144939979111967  0.7212803039455267  0.3028288597320882  1.0000
  C   C18       1.0  0.8855036174856679  0.2787158865816154  0.6971728500002359  1.0000
  C   C19       1.0  0.1909464563238643  0.6287544570386955  0.34966727849465684  1.0000
  C   C20       1.0  0.8090532210212301  0.37124079572536334  0.6503361295838774  1.0000
  C   C21       1.0  0.233767627176654  0.52550880993239  0.28673241881171674  1.0000
  C   C22       1.0  0.7662345062466045  0.47449210740818876  0.7132630799590985  1.0000
  C   C23       1.0  0.20138399917509986  0.5151819236020926  0.17816794846115164  1.0000
  C   C24       1.0  0.7986169844177411  0.48481710245532383  0.821827125002095  1.0000
  C   C25       1.0  0.1273269612423249  0.6096662437982233  0.13294681509747625  1.0000
  C   C26       1.0  0.872671943973998  0.39033372166198893  0.867048815599141  1.0000
  C   C27       1.0  0.6312213290160713  0.0036125634672004004  0.22024751464709177  1.0000
  C   C28       1.0  0.36877870412627095  0.9963892954624498  0.7797515487965259  1.0000
  C   C29       1.0  0.6504275173685555  0.9712710625452414  0.3189860369033611  1.0000
  C   C30       1.0  0.34957260647794897  0.028732684953425295  0.6810132889357166  1.0000
  C   C31       1.0  0.5536890931214629  0.88597257879065  0.33995085337091535  1.0000
  C   C32       1.0  0.4463133249097667  0.11403495182091214  0.6600500749431647  1.0000
  C   C33       1.0  0.439016581621658  0.8391187342029697  0.25886174583331484  1.0000
  C   C34       1.0  0.5609866797276197  0.1608840766070472  0.7411371856845081  1.0000
  C   C35       1.0  0.4250838797792015  0.8767897996533026  0.1621648477176692  1.0000
  C   C36       1.0  0.5749119622102157  0.123212992704282  0.8378336952752508  1.0000
  C   C37       1.0  0.5744316252624486  0.8444588550189708  0.4443237803381594  1.0000
  C   C38       1.0  0.4255632756853699  0.15554582046065243  0.555671102838815  1.0000
  C   C39       1.0  0.4994016710543506  0.2607629983507139  0.11513633268327797  1.0000
  C   C40       1.0  0.500590636215776  0.7392322310417967  0.8848599201316178  1.0000
  C   C41       1.0  0.5800398665373762  0.385412724009072  0.15887028755255986  1.0000
  C   C42       1.0  0.4199598780641907  0.6145834708532265  0.8411302442842655  1.0000
  C   C43       1.0  0.6089214210718055  0.4387232190740633  0.26478612852385214  1.0000
  C   C44       1.0  0.39108006801343015  0.5612654280335647  0.7352151832750665  1.0000
  C   C45       1.0  0.6822364563143138  0.5552899952820526  0.30120651754983657  1.0000
  C   C46       1.0  0.3177577893432897  0.4447024110577545  0.6987956823749571  1.0000
  C   C47       1.0  0.727189023219097  0.6215603698521547  0.23081524999985706  1.0000
  C   C48       1.0  0.2728074822233425  0.37843487422290434  0.7691869174824861  1.0000
  C   C49       1.0  0.7011532937768763  0.5695322938089191  0.12490732471909645  1.0000
  C   C50       1.0  0.2988496008229617  0.43046391192864075  0.8750974551533448  1.0000
  C   C51       1.0  0.6297425738889828  0.45216309383925335  0.08988762740601433  1.0000
  C   C52       1.0  0.3702602065590028  0.5478302768584983  0.9101137514338052  1.0000
  Br  Br1       1.0  0.5630482509692669  0.3464826454702746  0.3666021911497738  1.0000
  Br  Br2       1.0  0.4369730315547002  0.6534984956505808  0.6333966552382224  1.0000
  Br  Br3       1.0  0.06822966800376662  0.8662745592715811  0.3931427987442221  1.0000
  Br  Br4       1.0  0.9317734174132895  0.1337244738538317  0.6068548561228228  1.0000
  N   N1        1.0  0.020798817639821703  0.11712232496278571  0.1335634247069351  1.0000
  N   N2        1.0  0.9792021565441261  0.8828776508448258  0.866439298552635  1.0000
  N   N3        1.0  0.5205845553339898  0.9570716617641538  0.1429977840180713  1.0000
  N   N4        1.0  0.47941549971274344  0.042930194979220515  0.8569982719861147  1.0000
  O   O1        1.0  0.06867921383127398  0.8556521132441403  0.07643281348046572  1.0000
  O   O2        1.0  0.9313229954111438  0.14435164296222072  0.9235713493419839  1.0000
  O   O3        1.0  0.5666740672361215  0.18104032713206664  0.062345624217087434  1.0000
  O   O4        1.0  0.43331615618138397  0.8189558422098102  0.9376519376910368  1.0000
  O   O5        1.0  0.886000769288039  0.8462217783751668  0.15966326120165072  1.0000
  O   O6        1.0  0.1139958088869761  0.15377440725156083  0.8403352781791258  1.0000
  O   O7        1.0  0.3767326308594647  0.2465021937647336  0.13100451440635652  1.0000
  O   O8        1.0  0.6232608895647402  0.7534968182128027  0.8689961854108577  1.0000
  O   O9        1.0  0.25090006060163017  0.04541631470434031  0.9976347365100368  1.0000
  O   O10       1.0  0.7490999326647341  0.9545845993942239  0.0023634438759998753  1.0000
