data_image0
_chemical_formula_structural       Cd2H20C20N4Cl4
_chemical_formula_sum              "Cd2 H20 C20 N4 Cl4"
_cell_length_a       3.8215876652197736
_cell_length_b       8.524712744178935
_cell_length_c       17.59821645602714
_cell_angle_alpha    90.00042251651548
_cell_angle_beta     97.20114417785925
_cell_angle_gamma    90.00060269366347

_space_group_name_H-M_alt    "P 1"
_space_group_IT_number       1

loop_
  _space_group_symop_operation_xyz
  'x, y, z'

loop_
  _atom_site_type_symbol
  _atom_site_label
  _atom_site_symmetry_multiplicity
  _atom_site_fract_x
  _atom_site_fract_y
  _atom_site_fract_z
  _atom_site_occupancy
  Cd  Cd1       1.0  0.9999956877370262  2.6147939279999975e-07  2.1274265051976734e-06  1.0000
  Cd  Cd2       1.0  0.4999999054314301  0.499994827332465  0.49999995537134356  1.0000
  H   H1        1.0  0.15368774510015726  0.06514179325783691  0.828875348698503  1.0000
  H   H2        1.0  0.3463508357129825  0.5651415679818116  0.6711332064466758  1.0000
  H   H3        1.0  0.8463375198018921  0.9348537268351297  0.1711329600619678  1.0000
  H   H4        1.0  0.6536651562216135  0.4348609904004024  0.3288686866939869  1.0000
  H   H5        1.0  0.13231933557362643  0.2786391063278658  0.7284411051523989  1.0000
  H   H6        1.0  0.367728409437241  0.7786463263316038  0.7715633301511531  1.0000
  H   H7        1.0  0.8676975276466546  0.721355240665453  0.2715647849336875  1.0000
  H   H8        1.0  0.6322888478574878  0.22136444342870484  0.22843232696265395  1.0000
  H   H9        1.0  0.9320739832288254  0.5462786101453928  0.7623164184028539  1.0000
  H   H10       1.0  0.5679465653375075  0.0462852663768629  0.7376814406015129  1.0000
  H   H11       1.0  0.06792657461567589  0.4537180829068533  0.23768691832369626  1.0000
  H   H12       1.0  0.4320484949674037  0.9537243302253059  0.26230871837610437  1.0000
  H   H13       1.0  0.7468617201985237  0.5908670924613305  0.8926116131554664  1.0000
  H   H14       1.0  0.7531194856922312  0.09086929012354973  0.6073817694942463  1.0000
  H   H15       1.0  0.2531225322288648  0.40912842746967487  0.1073891702038878  1.0000
  H   H16       1.0  0.2468620282020594  0.9091344411288633  0.3926064519983327  1.0000
  H   H17       1.0  0.7675559214357434  0.3624214049775318  0.9836934370103592  1.0000
  H   H18       1.0  0.73241334588684  0.862412456532127  0.5163013843338433  1.0000
  H   H19       1.0  0.2324226884265953  0.6375776341057461  0.016305543577182398  1.0000
  H   H20       1.0  0.26757744091978697  0.137579544190821  0.4836932527683331  1.0000
  C   C1        1.0  0.06206474750284489  0.18338725863971211  0.8395028545270051  1.0000
  C   C2        1.0  0.4379605545463717  0.6833826635187067  0.6605048039261234  1.0000
  C   C3        1.0  0.9379499791405194  0.816612953664688  0.1605052746532749  1.0000
  C   C4        1.0  0.5620495458155259  0.31661989482661573  0.33949414444554543  1.0000
  C   C5        1.0  0.05388855756996946  0.3018729416548781  0.7848486190114838  1.0000
  C   C6        1.0  0.4461570986475605  0.8018797458966632  0.7151558725245692  1.0000
  C   C7        1.0  0.9461257955825815  0.69812375145586  0.21515779717686456  1.0000
  C   C8        1.0  0.5538551384428061  0.19812985079819614  0.2848408367809938  1.0000
  C   C9        1.0  0.9417221220929047  0.4509185402162431  0.8037472924729626  1.0000
  C   C10       1.0  0.5582981404301322  0.9509171801181537  0.6962555741873189  1.0000
  C   C11       1.0  0.05827366455490328  0.549080498959711  0.19625823844251755  1.0000
  C   C12       1.0  0.44170243797044145  0.04909007038730812  0.3037358165699189  1.0000
  C   C13       1.0  0.83877681246242  0.4761912056889131  0.8759795140193418  1.0000
  C   C14       1.0  0.6612193367090242  0.9761928453753727  0.6240184906165069  1.0000
  C   C15       1.0  0.1612133315652287  0.523806660399096  0.1240242141141081  1.0000
  C   C16       1.0  0.3387680687441942  0.023809712853875502  0.3759726756425081  1.0000
  C   C17       1.0  0.8511792239371229  0.35065893484610205  0.9269273006234116  1.0000
  C   C18       1.0  0.6488118395412171  0.850648034293741  0.5730723966563573  1.0000
  C   C19       1.0  0.14881054672370903  0.6493459695887368  0.0730747145410859  1.0000
  C   C20       1.0  0.3511843409743633  0.14934983174837416  0.4269229012485453  1.0000
  N   N1        1.0  0.9621102843979442  0.20700498710150586  0.9091981623267955  1.0000
  N   N2        1.0  0.5378940833989388  0.7069996326188673  0.5908051760246735  1.0000
  N   N3        1.0  0.0378857512988517  0.793001090443781  0.0908085105935186  1.0000
  N   N4        1.0  0.46211049879840266  0.2929994065228954  0.40919254055462057  1.0000
  Cl  Cl1       1.0  0.4490425766586624  0.850827190809625  0.9212288863737683  1.0000
  Cl  Cl2       1.0  0.050948654311234506  0.3508232234730428  0.578773733385141  1.0000
  Cl  Cl3       1.0  0.5509583546628818  0.14917184837622705  0.07877616334216239  1.0000
  Cl  Cl4       1.0  0.9490516545393888  0.6491711234500955  0.4212284613467928  1.0000
