data_image0
_chemical_formula_structural       CoH26C40N6O10
_chemical_formula_sum              "Co1 H26 C40 N6 O10"
_cell_length_a       8.5347542962929
_cell_length_b       10.026421700136089
_cell_length_c       10.914887120007982
_cell_angle_alpha    100.79661415855203
_cell_angle_beta     94.27386537663935
_cell_angle_gamma    104.92509509395856

_space_group_name_H-M_alt    "P 1"
_space_group_IT_number       1

loop_
  _space_group_symop_operation_xyz
  'x, y, z'

loop_
  _atom_site_type_symbol
  _atom_site_label
  _atom_site_symmetry_multiplicity
  _atom_site_fract_x
  _atom_site_fract_y
  _atom_site_fract_z
  _atom_site_occupancy
  Co  Co1       1.0  0.4999974475499728  0.999995919735795  0.4999964568753015  1.0000
  H   H1        1.0  0.40150026221122903  0.5575884157248083  0.9967707876266091  1.0000
  H   H2        1.0  0.598514008597178  0.4423851442717463  0.0032271877028761994  1.0000
  H   H3        1.0  0.7839038934173744  0.8979377584786262  0.18423333525919364  1.0000
  H   H4        1.0  0.21609809780408543  0.10206802545538807  0.8157632118679032  1.0000
  H   H5        1.0  0.2695685559894799  0.35173689742728  0.310435342138021  1.0000
  H   H6        1.0  0.7304380937423217  0.6482516141297127  0.6895878148983172  1.0000
  H   H7        1.0  0.2780001681066225  0.8225628071784783  0.6758634745695248  1.0000
  H   H8        1.0  0.7219857125185387  0.17745512073692993  0.32412794118683763  1.0000
  H   H9        1.0  0.10351693532110329  0.6526487922070319  0.7838901062799339  1.0000
  H   H10       1.0  0.89648952773927  0.34737939076624963  0.2161141495483392  1.0000
  H   H11       1.0  0.040744250163534404  0.3940248979170207  0.7002542053779025  1.0000
  H   H12       1.0  0.9592644101820156  0.6059997772448397  0.2997616942937782  1.0000
  H   H13       1.0  0.13712990007143594  0.302452796600626  0.4995601973420776  1.0000
  H   H14       1.0  0.8628669882949112  0.6975530807173698  0.5004570989256224  1.0000
  H   H15       1.0  0.15871638381184286  0.8712515052021743  0.4881873359221487  1.0000
  H   H16       1.0  0.841278984822985  0.12872859712658882  0.5117991037564027  1.0000
  H   H17       1.0  0.9038239669947075  0.8522133118297075  0.3522736991574291  1.0000
  H   H18       1.0  0.0961740002418878  0.14777538983462074  0.6477167539754447  1.0000
  H   H19       1.0  0.4403544580624867  0.12949043413564  0.2839134093372024  1.0000
  H   H20       1.0  0.5596478318608717  0.8705169259536377  0.7160925305114034  1.0000
  H   H21       1.0  0.1948116904531147  0.13255772164340124  0.1481840759909048  1.0000
  H   H22       1.0  0.8051871909688517  0.86745375892977  0.8518212195212699  1.0000
  H   H23       1.0  0.6815061978538353  0.24520626070215457  0.048104647281498075  1.0000
  H   H24       1.0  0.3185101458689346  0.7548088699682296  0.9519078524891214  1.0000
  H   H25       1.0  0.612364707989677  0.7995542367354105  0.021849036850063883  1.0000
  H   H26       1.0  0.387642755231738  0.20045828080873923  0.9781551644305824  1.0000
  C   C1        1.0  0.45085372590523326  0.7057424924012069  0.3597308458250126  1.0000
  C   C2        1.0  0.5491381605496244  0.29424904155593606  0.6402549418649315  1.0000
  C   C3        1.0  0.3994940020621841  0.5614377438857758  0.29514949219903747  1.0000
  C   C4        1.0  0.6005108770471422  0.43854749895925244  0.7048529464798677  1.0000
  C   C5        1.0  0.3098289935129587  0.4638645689963212  0.3551429230431751  1.0000
  C   C6        1.0  0.6901685307762693  0.536131221651651  0.6448621470700504  1.0000
  C   C7        1.0  0.2629786020294702  0.5100533237821239  0.47402968984208366  1.0000
  C   C8        1.0  0.7370263737447829  0.48995506411468864  0.5259756523910895  1.0000
  C   C9        1.0  0.30651407895545896  0.6592721717607831  0.526341777417116  1.0000
  C   C10       1.0  0.6934950898737072  0.34073825950306963  0.47366228415954487  1.0000
  C   C11       1.0  0.24684543073842494  0.708793759514279  0.6387819872938394  1.0000
  C   C12       1.0  0.7531608100127372  0.2912254840825454  0.3612119597207197  1.0000
  C   C13       1.0  0.1511796664867262  0.6138841851913597  0.6983706535489702  1.0000
  C   C14       1.0  0.8488115804120113  0.38613590249253343  0.3016214144653162  1.0000
  C   C15       1.0  0.11381305592514931  0.4666883575289944  0.6499012560569923  1.0000
  C   C16       1.0  0.8861860749471334  0.5333315416535528  0.3501051108250338  1.0000
  C   C17       1.0  0.16812907006271866  0.4156476491797463  0.5396284368515509  1.0000
  C   C18       1.0  0.8318854677541339  0.5843648897758768  0.46037535323864637  1.0000
  C   C19       1.0  0.5757104786185536  0.8096707587811025  0.3094155276019706  1.0000
  C   C20       1.0  0.4242671447767066  0.19031631474155833  0.6905668518063949  1.0000
  C   C21       1.0  0.43782289142326647  0.5205582210776568  0.1637244786585086  1.0000
  C   C22       1.0  0.5621824956481446  0.4794252877759958  0.8362842011014635  1.0000
  C   C23       1.0  0.16204509347898727  0.9247780317562473  0.41006192398977964  1.0000
  C   C24       1.0  0.8379442381974656  0.0751981645646254  0.5899300190862605  1.0000
  C   C25       1.0  0.020799722808263296  0.9159672815786093  0.3354836198578113  1.0000
  C   C26       1.0  0.9791998334532579  0.0840149682706013  0.6645033866530029  1.0000
  C   C27       1.0  0.02734706413171768  0.9903574129092552  0.23760972948765882  1.0000
  C   C28       1.0  0.9726521874781539  0.009635874844754302  0.7623878109665015  1.0000
  C   C29       1.0  0.31891380217749804  0.07109034030168  0.2978804728507499  1.0000
  C   C30       1.0  0.6810806557380149  0.9289103137581097  0.7021185657373794  1.0000
  C   C31       1.0  0.8455085247787582  0.0633525795533743  0.09152408664666471  1.0000
  C   C32       1.0  0.15449870799111673  0.9366511548444338  0.9084725770534234  1.0000
  C   C33       1.0  0.1819906826960747  0.0719331836253758  0.221200604047155  1.0000
  C   C34       1.0  0.818009657597436  0.928067739981401  0.7788025566467952  1.0000
  C   C35       1.0  0.6673236056308911  0.0269161595545739  0.04204770278725083  1.0000
  C   C36       1.0  0.3326926350796101  0.9730943451974597  0.957956871343356  1.0000
  C   C37       1.0  0.6014503439720542  0.1379881215659111  0.027017200435032904  1.0000
  C   C38       1.0  0.3985511170528966  0.8620323228797772  0.9729985747421637  1.0000
  C   C39       1.0  0.564162991759609  0.8882867631165396  0.013602413815021917  1.0000
  C   C40       1.0  0.4358446562949966  0.1117229129713451  0.9864069495246568  1.0000
  N   N1        1.0  0.4042783599455292  0.7535060976078825  0.46872615184433647  1.0000
  N   N2        1.0  0.5957133845803855  0.24649995448483256  0.5312577730524808  1.0000
  N   N3        1.0  0.31142135711923663  0.9998728199405349  0.39188374085671285  1.0000
  N   N4        1.0  0.6885686691474862  0.00011716383600910109  0.6081118120405264  1.0000
  N   N5        1.0  0.881223746480302  0.9759705768692298  0.1660148338596343  1.0000
  N   N6        1.0  0.1187760858511169  0.02403208072892231  0.8339820857532559  1.0000
  O   O1        1.0  0.5261766865649592  0.4416920510368313  0.1352771598532172  1.0000
  O   O2        1.0  0.4738364077891433  0.558293954541618  0.8647378854823059  1.0000
  O   O3        1.0  0.35888857575618965  0.5709760040665798  0.0823464533092064  1.0000
  O   O4        1.0  0.641108822534413  0.4289847044667567  0.9176477952619139  1.0000
  O   O5        1.0  0.9477903629440619  0.16738671722776388  0.07200471290435931  1.0000
  O   O6        1.0  0.05222073160948779  0.8326181093023166  0.927992362350345  1.0000
  O   O7        1.0  0.6525184450586323  0.7600641636008375  0.2266521502614154  1.0000
  O   O8        1.0  0.3474727897101957  0.2399252595799481  0.7733333268732423  1.0000
  O   O9        1.0  0.6036232735126319  0.9424139245396006  0.3565912931499255  1.0000
  O   O10       1.0  0.3963468875411564  0.05756076004105639  0.6433945091160354  1.0000
