data_image0
_chemical_formula_structural       In8H72C112O48
_chemical_formula_sum              "In8 H72 C112 O48"
_cell_length_a       13.92563940155819
_cell_length_b       13.925675680496441
_cell_length_c       25.35319053040943
_cell_angle_alpha    105.12075338371916
_cell_angle_beta     105.1208109872414
_cell_angle_gamma    92.77383573278752

_space_group_name_H-M_alt    "P 1"
_space_group_IT_number       1

loop_
  _space_group_symop_operation_xyz
  'x, y, z'

loop_
  _atom_site_type_symbol
  _atom_site_label
  _atom_site_symmetry_multiplicity
  _atom_site_fract_x
  _atom_site_fract_y
  _atom_site_fract_z
  _atom_site_occupancy
  In  In1       1.0  0.6249989363142493  0.8749978911312086  0.7499997866957673  1.0000
  In  In2       1.0  0.1250000772118726  0.3750013467651173  0.25000117051445164  1.0000
  In  In3       1.0  0.12499960144376142  0.8750012233028102  0.2500006264477436  1.0000
  In  In4       1.0  0.12500079795440674  0.8750011902719309  0.7499976598867378  1.0000
  In  In5       1.0  0.36029692644898886  0.860219659270733  0.7204219339617383  1.0000
  In  In6       1.0  0.13978163219404396  0.6397040165035293  0.2795790073589117  1.0000
  In  In7       1.0  0.8897029657172342  0.8897835681616827  0.7795773578054651  1.0000
  In  In8       1.0  0.11021787776164876  0.11029515120434755  0.22042196642891554  1.0000
  H   H1        1.0  0.9056652015143599  0.3590312930052235  0.3358004318992869  1.0000
  H   H2        1.0  0.9620078316777171  0.6799818404211423  0.39992154009350145  1.0000
  H   H3        1.0  0.885968754848058  0.5716385085642273  0.5336191340006806  1.0000
  H   H4        1.0  0.8899299835319571  0.6735645622248684  0.6309403133327012  1.0000
  H   H5        1.0  0.5733691023852645  0.6877379895648875  0.5746402459629537  1.0000
  H   H6        1.0  0.775035278482662  0.35722142196372897  0.3876958572154835  1.0000
  H   H7        1.0  0.567954132099523  0.5828059448932238  0.47624818540268893  1.0000
  H   H8        1.0  0.8307487327674182  0.6793930935418473  0.45110795113134833  1.0000
  H   H9        1.0  0.6409697799176259  0.09433512386313937  0.6641991876597757  1.0000
  H   H10       1.0  0.32001770552680864  0.037992118942106856  0.6000803729425783  1.0000
  H   H11       1.0  0.4283609905109814  0.11403095535330736  0.46638009386429513  1.0000
  H   H12       1.0  0.32643484652162874  0.11006866558138027  0.3690590312659339  1.0000
  H   H13       1.0  0.31225948704440043  0.4266281088387203  0.4253593860524632  1.0000
  H   H14       1.0  0.6427776448810648  0.22496280664560703  0.6123022519950823  1.0000
  H   H15       1.0  0.4171909123568086  0.43204351798425483  0.5237516065103875  1.0000
  H   H16       1.0  0.3206063150814274  0.16925033671493153  0.548893454051779  1.0000
  H   H17       1.0  0.023194053106216556  0.5699855884960244  0.6640572859690509  1.0000
  H   H18       1.0  0.2803009239109145  0.5622750600751942  0.6000594602464062  1.0000
  H   H19       1.0  0.03827134118014191  0.35259747793901397  0.4662351270393613  1.0000
  H   H20       1.0  0.042646755826680934  0.2590430675961529  0.36887843687365063  1.0000
  H   H21       1.0  0.11302752983069565  0.9988970004583425  0.4254177349195062  1.0000
  H   H22       1.0  0.9695897459333267  0.3875551942773541  0.6121631105018679  1.0000
  H   H23       1.0  0.10673643203075768  0.09205353514219901  0.5238298447936955  1.0000
  H   H24       1.0  0.2286329939473931  0.37990822189812695  0.5488994397806763  1.0000
  H   H25       1.0  0.43001324016862713  0.9768037188953257  0.3359430890361779  1.0000
  H   H26       1.0  0.4377294281437259  0.7196974464590156  0.3999405072914044  1.0000
  H   H27       1.0  0.6474049597510432  0.9617299925090708  0.533762384949391  1.0000
  H   H28       1.0  0.7409582728833402  0.9573523274089839  0.6311193294604183  1.0000
  H   H29       1.0  0.0011066950385725384  0.8869710379955151  0.5745816110092434  1.0000
  H   H30       1.0  0.6124445088793139  0.030406232508994435  0.3878338338635885  1.0000
  H   H31       1.0  0.9079513953433178  0.8932653916649614  0.47616912806871886  1.0000
  H   H32       1.0  0.6200955428543367  0.7713656744851605  0.4510996629055273  1.0000
  H   H33       1.0  0.2584519506799837  0.009719879616085322  0.7445683456183332  1.0000
  H   H34       1.0  0.34433962775820254  0.3909696305199403  0.16419953675600854  1.0000
  H   H35       1.0  0.28799271200657023  0.07001867578136262  0.10007939650852653  1.0000
  H   H36       1.0  0.36403391138262753  0.17836234525103145  0.9663830810472265  1.0000
  H   H37       1.0  0.36006845639146723  0.0764384071430019  0.8690606665226499  1.0000
  H   H38       1.0  0.6766283797321723  0.06226064219462312  0.9253568144702984  1.0000
  H   H39       1.0  0.4749686319106915  0.3927785019974337  0.11230395028422184  1.0000
  H   H40       1.0  0.6820471907673707  0.1671890893287156  0.023749823246042488  1.0000
  H   H41       1.0  0.41925055637736364  0.07060748777164601  0.04889323079868292  1.0000
  H   H42       1.0  0.7637476559011279  0.015278889807533115  0.7555334373898932  1.0000
  H   H43       1.0  0.6090318404053933  0.655665585932752  0.8358004885723888  1.0000
  H   H44       1.0  0.9299837699755503  0.7120075441480795  0.8999206627503897  1.0000
  H   H45       1.0  0.8216383624449788  0.6359683701241181  0.03361966338280105  1.0000
  H   H46       1.0  0.9235644011343498  0.6399312951071893  0.13094061668243745  1.0000
  H   H47       1.0  0.9377390082814898  0.32337167865805583  0.07464100964094919  1.0000
  H   H48       1.0  0.6072222627438679  0.525036109769559  0.887696476844866  1.0000
  H   H49       1.0  0.8328077822174226  0.3179560841668379  0.9762489016392382  1.0000
  H   H50       1.0  0.9293951604209244  0.580749326375255  0.9511075816411891  1.0000
  H   H51       1.0  0.22680553103747808  0.18001318811888506  0.8359444253560258  1.0000
  H   H52       1.0  0.9696978759632987  0.1877239068647612  0.8999411572019441  1.0000
  H   H53       1.0  0.21172739471700203  0.3974017369105667  0.03376432613207212  1.0000
  H   H54       1.0  0.2073514581006962  0.4909555445977816  0.13112124826050586  1.0000
  H   H55       1.0  0.13697132019822794  0.7511029524444197  0.07458243455450034  1.0000
  H   H56       1.0  0.28040894864090427  0.36244440787373855  0.8878373976477578  1.0000
  H   H57       1.0  0.1432638189033713  0.6579468908340618  0.9761702751078475  1.0000
  H   H58       1.0  0.021366213047194545  0.37009099876684814  0.9511011440463193  1.0000
  H   H59       1.0  0.8199882580791923  0.7731935149631468  0.16405643551703272  1.0000
  H   H60       1.0  0.8122717428103102  0.03030303718799129  0.10006030664662553  1.0000
  H   H61       1.0  0.6025960401658922  0.7882731843985625  0.9662350182094174  1.0000
  H   H62       1.0  0.5090405708131842  0.7926534734234923  0.8688796477758843  1.0000
  H   H63       1.0  0.24889327311789375  0.8630297291255719  0.9254188320765524  1.0000
  H   H64       1.0  0.6375577769176316  0.7195877044824499  0.11216364563755128  1.0000
  H   H65       1.0  0.3420510415440532  0.8567336827159411  0.023829823260300035  1.0000
  H   H66       1.0  0.6299045757936524  0.9786314187370168  0.04890073205672258  1.0000
  H   H67       1.0  0.9902808052712332  0.741547793504658  0.2554338908922702  1.0000
  H   H68       1.0  0.9847181814458424  0.23625026093184692  0.24446608256631214  1.0000
  H   H69       1.0  0.2652819653289954  0.5137498583622958  0.25553446091740994  1.0000
  H   H70       1.0  0.25971975817338944  0.008453563656267721  0.24456631132999723  1.0000
  H   H71       1.0  0.48624899031471386  0.7347199836378382  0.7444665298511098  1.0000
  H   H72       1.0  0.9915488120129726  0.740281292199164  0.7554319690601405  1.0000
  C   C1        1.0  0.016367011762931018  0.5190244164517069  0.33214158457995074  1.0000
  C   C2        1.0  0.88907955847521  0.428549735713176  0.36142025120263815  1.0000
  C   C3        1.0  0.9211203773336083  0.6096485865777126  0.39777339705594283  1.0000
  C   C4        1.0  0.7316308816861652  0.6858525570416917  0.6088487145137266  1.0000
  C   C5        1.0  0.7263545165192512  0.5725992651403901  0.4996982521212986  1.0000
  C   C6        1.0  0.817605040856357  0.5968603837260178  0.542714538496277  1.0000
  C   C7        1.0  0.9418357760316243  0.5194202051685225  0.3649275376991384  1.0000
  C   C8        1.0  0.8194837203321371  0.6531459551405945  0.5970941234057677  1.0000
  C   C9        1.0  0.7348818056465661  0.7484182374365179  0.6668024665738274  1.0000
  C   C10       1.0  0.640955485937731  0.6610644414916466  0.5651342354819563  1.0000
  C   C11       1.0  0.8165763031762908  0.42716609623431623  0.3899168630056736  1.0000
  C   C12       1.0  0.6377687335448102  0.6039761054234561  0.510668815807847  1.0000
  C   C13       1.0  0.795995791620051  0.5177557054848664  0.42184628090201687  1.0000
  C   C14       1.0  0.8480856567491629  0.6094142157299842  0.4261670824831043  1.0000
  C   C15       1.0  0.48097812026655634  0.9836348367179256  0.6678594666040424  1.0000
  C   C16       1.0  0.571451965795383  0.11091945662701637  0.6385794028258616  1.0000
  C   C17       1.0  0.3903503272660559  0.0788792649280197  0.6022270757055921  1.0000
  C   C18       1.0  0.3141458298912314  0.2683670901230217  0.39115188396680634  1.0000
  C   C19       1.0  0.4273990958427449  0.27364336614055434  0.5003013894975014  1.0000
  C   C20       1.0  0.4031393470979979  0.18239299827020986  0.4572848708844718  1.0000
  C   C21       1.0  0.4805824180501192  0.05816379095225705  0.635073435956798  1.0000
  C   C22       1.0  0.34685342504842964  0.18051493735864454  0.4029051636477021  1.0000
  C   C23       1.0  0.2515799933735324  0.2651157760708784  0.3331976146046145  1.0000
  C   C24       1.0  0.33893249753821675  0.3590429341445188  0.4348653742646676  1.0000
  C   C25       1.0  0.5728329228250858  0.18342149329773608  0.6100812805867903  1.0000
  C   C26       1.0  0.396019313574776  0.3622295314288878  0.48933064904051804  1.0000
  C   C27       1.0  0.48224365491616095  0.20400243029155263  0.578152681202063  1.0000
  C   C28       1.0  0.3905840009842906  0.15191262329520344  0.5738326115995349  1.0000
  C   C29       1.0  0.18697279675246395  0.6843155346475741  0.6678339703084646  1.0000
  C   C30       1.0  0.06720182378489895  0.5278251174618236  0.6384850107727047  1.0000
  C   C31       1.0  0.21210917417456462  0.5235438694345194  0.6022146691895999  1.0000
  C   C32       1.0  0.07698873552798367  0.1228940469545564  0.3910987580413875  1.0000
  C   C33       1.0  0.07318660318832584  0.22696414008383678  0.5002793771664145  1.0000
  C   C34       1.0  0.05439630664607633  0.2751324584666151  0.45719609130171085  1.0000
  C   C35       1.0  0.15463496518242456  0.5770693696437806  0.6350389814390526  1.0000
  C   C36       1.0  0.056143163728386195  0.22252545734225054  0.40279676571110923  1.0000
  C   C37       1.0  0.08141931041529209  0.06804021423308632  0.33313569798748693  1.0000
  C   C38       1.0  0.09595329141159682  0.0760018409802541  0.43487631212001787  1.0000
  C   C39       1.0  0.03736675124658743  0.4268701099396708  0.6099776048675453  1.0000
  C   C40       1.0  0.09348382822211942  0.1273856862842494  0.4893528801150922  1.0000
  C   C41       1.0  0.09615961371158499  0.37440934068043696  0.578110066529213  1.0000
  C   C42       1.0  0.1835311629804864  0.422170831943916  0.5738170870927419  1.0000
  C   C43       1.0  0.3156864845081486  0.813024700959538  0.332166977861192  1.0000
  C   C44       1.0  0.4721756390785077  0.9327947721877691  0.3615142016760658  1.0000
  C   C45       1.0  0.47645861768273096  0.7878897212677246  0.39778500962542307  1.0000
  C   C46       1.0  0.8771079114304073  0.9230120783082115  0.6089004045969164  1.0000
  C   C47       1.0  0.7730386618484104  0.9268161262025316  0.4997196402667044  1.0000
  C   C48       1.0  0.7248704599176252  0.9456055785778901  0.5428018799941016  1.0000
  C   C49       1.0  0.42293049523225806  0.8453613024415036  0.3649605297197028  1.0000
  C   C50       1.0  0.7774772579880677  0.9438582300863133  0.5972014158221057  1.0000
  C   C51       1.0  0.9319611040222997  0.9185800349358646  0.6668634157964564  1.0000
  C   C52       1.0  0.9240010393399704  0.9040481895601504  0.5651226039381144  1.0000
  C   C53       1.0  0.5731298103200048  0.9626311450041172  0.39001992899417104  1.0000
  C   C54       1.0  0.8726177688394972  0.9065178673776302  0.5106458067350702  1.0000
  C   C55       1.0  0.6255932580570375  0.9038400340941806  0.4218889181379098  1.0000
  C   C56       1.0  0.5778335304452399  0.8164681893332854  0.4261822004307519  1.0000
  C   C57       1.0  0.233635274590725  0.23097859090660938  0.16785913829486537  1.0000
  C   C58       1.0  0.36092355553723376  0.32145211185069666  0.13858099434528987  1.0000
  C   C59       1.0  0.3288818177996262  0.1403522614221515  0.10222768733640211  1.0000
  C   C60       1.0  0.5183662622089431  0.06414985681225031  0.8911509766879605  1.0000
  C   C61       1.0  0.5236470756347275  0.1773986776620546  0.00030299901163741757  1.0000
  C   C62       1.0  0.4323950748065145  0.1531399796863014  0.9572866332259693  1.0000
  C   C63       1.0  0.3081670023205235  0.23058270707034723  0.13507411433237596  1.0000
  C   C64       1.0  0.4305155772213428  0.09685655220793189  0.902906218003267  1.0000
  C   C65       1.0  0.5151140224598907  0.0015827799450604774  0.8331966703539565  1.0000
  C   C66       1.0  0.609043292208021  0.08893474578180628  0.9348641136049523  1.0000
  C   C67       1.0  0.4334267936378424  0.32283219295170074  0.11008289263717329  1.0000
  C   C68       1.0  0.6122332467290126  0.14602060194451397  0.9893304980173171  1.0000
  C   C69       1.0  0.4540068885242974  0.23224134583436037  0.0781538160022848  1.0000
  C   C70       1.0  0.40191606046514045  0.14058393281974452  0.07383354356878871  1.0000
  C   C71       1.0  0.7690235529390963  0.7663651495477881  0.8321401263287812  1.0000
  C   C72       1.0  0.6785500954879214  0.6390795532827412  0.8614199762214341  1.0000
  C   C73       1.0  0.8596498522079871  0.6711198426482244  0.8977726713337122  1.0000
  C   C74       1.0  0.9358525403743342  0.4816324916264706  0.10884913680764906  1.0000
  C   C75       1.0  0.8226002260012355  0.4763562034550478  0.9996989959881193  1.0000
  C   C76       1.0  0.8468601111579447  0.5676056919960786  0.042714995661349196  1.0000
  C   C77       1.0  0.7694197485331747  0.6918345837463564  0.8649260523892226  1.0000
  C   C78       1.0  0.9031458028472061  0.5694841823714896  0.09709521868043683  1.0000
  C   C79       1.0  0.998419023922132  0.48488461408154376  0.16680254912606787  1.0000
  C   C80       1.0  0.9110659977876808  0.39095685335226443  0.06513502142874471  1.0000
  C   C81       1.0  0.6771681142790205  0.5665771522591573  0.8899178280061977  1.0000
  C   C82       1.0  0.8539792870511036  0.38776962085674427  0.010669855951619015  1.0000
  C   C83       1.0  0.7677564192579002  0.5459973124958354  0.9218469565385166  1.0000
  C   C84       1.0  0.8594149239502543  0.5980865493920363  0.9261673807677723  1.0000
  C   C85       1.0  0.06302878973065172  0.0656871287594782  0.8321659694872068  1.0000
  C   C86       1.0  0.18279788541912032  0.22217386490036983  0.8615160754713359  1.0000
  C   C87       1.0  0.03789105699922898  0.22645571558332045  0.897786185091711  1.0000
  C   C88       1.0  0.17301054406739522  0.6271055502171735  0.10890273152875102  1.0000
  C   C89       1.0  0.17681191528737397  0.5230336515532771  0.9997205297226871  1.0000
  C   C90       1.0  0.1956019072813007  0.4748661537273263  0.04280359383245272  1.0000
  C   C91       1.0  0.09536622892140674  0.17292911814356415  0.8649613436946666  1.0000
  C   C92       1.0  0.19385544710843314  0.5274735517600462  0.09720331254136033  1.0000
  C   C93       1.0  0.1685807215101606  0.6819595561304297  0.16686504383761055  1.0000
  C   C94       1.0  0.15404584139498925  0.6739977707776886  0.06512353416972874  1.0000
  C   C95       1.0  0.21263245574800765  0.3231291107253045  0.8900229789594577  1.0000
  C   C96       1.0  0.15651501297501366  0.6226128933541873  0.010646682355066224  1.0000
  C   C97       1.0  0.15383999019245242  0.3755902768929007  0.9218909104160959  1.0000
  C   C98       1.0  0.0664674167443524  0.32782842127655715  0.926183619398259  1.0000
  C   C99       1.0  0.9343131931795626  0.9369740921487805  0.16783371428592644  1.0000
  C   C100      1.0  0.7778263811390786  0.8172030643263429  0.1384850909144078  1.0000
  C   C101      1.0  0.7735407683955273  0.9621080397210946  0.10221539870210704  1.0000
  C   C102      1.0  0.37289155953586595  0.8269936899687665  0.891098449975388  1.0000
  C   C103      1.0  0.47696270680892644  0.8231846806200096  0.00027973091118842236  1.0000
  C   C104      1.0  0.5251313338181948  0.8043983921464605  0.9571963094013329  1.0000
  C   C105      1.0  0.8270700203251734  0.9046361876890358  0.13504025836085995  1.0000
  C   C106      1.0  0.472522840247969  0.806147505635167  0.9027973160861935  1.0000
  C   C107      1.0  0.3180375336044183  0.8314232576075399  0.8331361212987576  1.0000
  C   C108      1.0  0.3259998572451085  0.8459545612667014  0.9348776926631645  1.0000
  C   C109      1.0  0.6768715213786863  0.7873652624821402  0.10997868665840836  1.0000
  C   C110      1.0  0.3773834634058776  0.8434838187742247  0.9893540833826224  1.0000
  C   C111      1.0  0.6244066940418306  0.8461562327557814  0.0781105679237086  1.0000
  C   C112      1.0  0.6721663776027783  0.9335301743111801  0.07381797593404832  1.0000
  O   O1        1.0  0.4860714172450291  0.7787676892566183  0.720236007767035  1.0000
  O   O2        1.0  0.658078253969201  0.79264454277822  0.6716512436519082  1.0000
  O   O3        1.0  0.8139539350518421  0.7545409251360342  0.707533664789189  1.0000
  O   O4        1.0  0.06849182285280621  0.6022590439423823  0.33981644713883696  1.0000
  O   O5        1.0  0.021291073183086012  0.4349486340205999  0.2981336790600935  1.0000
  O   O6        1.0  0.7177354320123824  0.5124635696250978  0.44553235396080043  1.0000
  O   O7        1.0  0.2212330208247551  0.5139272806154338  0.27976354457555896  1.0000
  O   O8        1.0  0.20735097316671877  0.341919021148506  0.32834764099096253  1.0000
  O   O9        1.0  0.24545810133256657  0.18604257045124944  0.29246656417774375  1.0000
  O   O10       1.0  0.39774340011124565  0.9315100262572216  0.6601851415302349  1.0000
  O   O11       1.0  0.5650546351633708  0.9787101125540402  0.7018669105996196  1.0000
  O   O12       1.0  0.48753481588598674  0.2822609698344608  0.5544676515304873  1.0000
  O   O13       1.0  0.05849137763832612  0.7656086074800685  0.2796912475100229  1.0000
  O   O14       1.0  0.12058169671838935  0.9862751650332413  0.3282988025928972  1.0000
  O   O15       1.0  0.04688449933180295  0.10640363907651824  0.29237977917805585  1.0000
  O   O16       1.0  0.26270506973924784  0.7286986781998834  0.6602770395688609  1.0000
  O   O17       1.0  0.13664594918974177  0.7232633157784322  0.7017158720973954  1.0000
  O   O18       1.0  0.06729144419684743  0.2724905046915397  0.554456083589109  1.0000
  O   O19       1.0  0.2343902757993634  0.9415116320750841  0.7203095088327133  1.0000
  O   O20       1.0  0.013727691352770082  0.8794203819494798  0.6717016876859462  1.0000
  O   O21       1.0  0.893594038966555  0.9531127805722976  0.7076176373369877  1.0000
  O   O22       1.0  0.2713049085607864  0.7372927401019638  0.3397241163834934  1.0000
  O   O23       1.0  0.2767355058421543  0.8633506414030877  0.2982863694932334  1.0000
  O   O24       1.0  0.7275129549297291  0.9327103102748283  0.4455429358918651  1.0000
  O   O25       1.0  0.76392632579298  0.97123166596986  0.7797634122491814  1.0000
  O   O26       1.0  0.5919144734728263  0.9573523554728071  0.8283469333914724  1.0000
  O   O27       1.0  0.43604112526583105  0.9954642300709936  0.792466782810898  1.0000
  O   O28       1.0  0.18150979218025753  0.14774609276592807  0.16018508870315884  1.0000
  O   O29       1.0  0.22871125269124803  0.3150560552545656  0.2018655750551872  1.0000
  O   O30       1.0  0.5322679609413755  0.23753197296907302  0.05446846395798842  1.0000
  O   O31       1.0  0.028769079219429707  0.236074059412239  0.2202370037783936  1.0000
  O   O32       1.0  0.04264886791910534  0.40808286059572646  0.17165214785691774  1.0000
  O   O33       1.0  0.004542160953199992  0.5639567704484136  0.20753366186504255  1.0000
  O   O34       1.0  0.8522562859851706  0.8184906928861225  0.8398147100958796  1.0000
  O   O35       1.0  0.6849464350630329  0.7712869685142465  0.7981328490738022  1.0000
  O   O36       1.0  0.7624642755976867  0.46773902922499394  0.9455332497374515  1.0000
  O   O37       1.0  0.19151071147730656  0.9843932648534945  0.2203106422275454  1.0000
  O   O38       1.0  0.1294198091783373  0.7637246430613233  0.17170251950549445  1.0000
  O   O39       1.0  0.20311617962374848  0.6435969396899281  0.2076201056032688  1.0000
  O   O40       1.0  0.987296570344114  0.02130287255443607  0.8397219022835287  1.0000
  O   O41       1.0  0.11335467436332897  0.02674044485911518  0.7982845968458747  1.0000
  O   O42       1.0  0.18270742713745158  0.47750978064843275  0.9455449067214803  1.0000
  O   O43       1.0  0.015607619708212976  0.8084913440931986  0.7796903492678807  1.0000
  O   O44       1.0  0.23627346300185825  0.8705853546080251  0.8282991562984352  1.0000
  O   O45       1.0  0.3564012957622683  0.7968898483763813  0.7923816041776066  1.0000
  O   O46       1.0  0.9786951572045766  0.012705076650398392  0.16027636187808986  1.0000
  O   O47       1.0  0.973263419515476  0.8866479785134445  0.20171507039891892  1.0000
  O   O48       1.0  0.522489295648171  0.8172870967754308  0.054455840916297384  1.0000
