data_image0
_chemical_formula_structural       H14PbC12I2N2
_chemical_formula_sum              "H14 Pb1 C12 I2 N2"
_cell_length_a       4.429718951813766
_cell_length_b       9.54250546879341
_cell_length_c       10.473529987200513
_cell_angle_alpha    115.46877833898283
_cell_angle_beta     89.90631735687401
_cell_angle_gamma    94.32670911738778

_space_group_name_H-M_alt    "P 1"
_space_group_IT_number       1

loop_
  _space_group_symop_operation_xyz
  'x, y, z'

loop_
  _atom_site_type_symbol
  _atom_site_label
  _atom_site_symmetry_multiplicity
  _atom_site_fract_x
  _atom_site_fract_y
  _atom_site_fract_z
  _atom_site_occupancy
  H   H1        1.0  0.2392144994461702  0.652336328418649  0.9851329204179605  1.0000
  H   H2        1.0  0.7605943706188115  0.34770176115740264  0.014911773713457352  1.0000
  H   H3        1.0  0.2572074926193721  0.3661645745773825  0.8336507316820202  1.0000
  H   H4        1.0  0.7428415581468144  0.6338941996096921  0.16638383874131077  1.0000
  H   H5        1.0  0.6867943423075645  0.4170945349027093  0.525787655240485  1.0000
  H   H6        1.0  0.3133056607929774  0.5828796646490345  0.4741836818971235  1.0000
  H   H7        1.0  0.6874884079351632  0.7004080956056528  0.6905569472838662  1.0000
  H   H8        1.0  0.3123005001215945  0.2995425412084741  0.3094450808886505  1.0000
  H   H9        1.0  0.10709368797025581  0.18204452537467122  0.4730902837503093  1.0000
  H   H10       1.0  0.8927128342733185  0.8179258177251043  0.5268583628394267  1.0000
  H   H11       1.0  0.09830723456688871  0.13750997382479827  0.6216742096613217  1.0000
  H   H12       1.0  0.9019385615858155  0.86252717135757  0.3783202522832453  1.0000
  H   H13       1.0  0.7565924086166763  0.1411212685604966  0.5338514639870197  1.0000
  H   H14       1.0  0.2434273710147608  0.858876083533751  0.46629184047425537  1.0000
  Pb  Pb1       1.0  0.00016347853505746385  0.9999844832600574  0.9999279545725627  1.0000
  C   C1        1.0  0.11814431253260689  0.5951388196781267  0.8824823151455518  1.0000
  C   C2        1.0  0.8817189988665535  0.4048810980389986  0.11754311357429958  1.0000
  C   C3        1.0  0.12819737313715512  0.43641501999473326  0.7978196407807727  1.0000
  C   C4        1.0  0.8717917560959024  0.5636164649703092  0.20220408903130493  1.0000
  C   C5        1.0  0.9744032100837645  0.367162007508604  0.6657568195316015  1.0000
  C   C6        1.0  0.025650823863756483  0.632845596906911  0.3342492857978171  1.0000
  C   C7        1.0  0.8119602559816316  0.4644839855445754  0.6271241611772068  1.0000
  C   C8        1.0  0.18805948039505438  0.5355011865598412  0.3728664070997637  1.0000
  C   C9        1.0  0.8125473486422623  0.6218971029713316  0.7178049429955917  1.0000
  C   C10       1.0  0.18731687603634842  0.37807628278825695  0.2821995367321719  1.0000
  C   C11       1.0  0.9853283320365451  0.19819094352209277  0.5695794916843722  1.0000
  C   C12       1.0  0.014736348019624765  0.8018144823825466  0.4304401308662447  1.0000
  I   I1        1.0  0.5076173140322241  0.0330234701831529  0.7921735001851857  1.0000
  I   I2        1.0  0.4927558280746211  0.9669608470805356  0.20767774555395122  1.0000
  N   N1        1.0  0.9641415416755023  0.6876074735300932  0.8437259063691299  1.0000
  N   N2        1.0  0.035647870255139893  0.31238272140007683  0.15629245571771117  1.0000
