data_image0
_chemical_formula_structural       K4P4H36C28N4O28
_chemical_formula_sum              "K4 P4 H36 C28 N4 O28"
_cell_length_a       7.395523349792629
_cell_length_b       9.535277992279287
_cell_length_c       16.32848390398501
_cell_angle_alpha    85.04320646567943
_cell_angle_beta     88.98990486886808
_cell_angle_gamma    84.13145011478954

_space_group_name_H-M_alt    "P 1"
_space_group_IT_number       1

loop_
  _space_group_symop_operation_xyz
  'x, y, z'

loop_
  _atom_site_type_symbol
  _atom_site_label
  _atom_site_symmetry_multiplicity
  _atom_site_fract_x
  _atom_site_fract_y
  _atom_site_fract_z
  _atom_site_occupancy
  K   K1        1.0  0.32226533062887314  0.6497323304553151  0.9213866125698971  1.0000
  K   K2        1.0  0.677741521980529  0.3502547451411361  0.07860908117887529  1.0000
  K   K3        1.0  0.6766297084466614  0.8366062101213317  0.06641440529894986  1.0000
  K   K4        1.0  0.3233675401730736  0.1633925447251556  0.9335831796842269  1.0000
  P   P1        1.0  0.7993345401013271  0.5888248910787794  0.8907944423398957  1.0000
  P   P2        1.0  0.20066661836853678  0.41117493756195245  0.1092055073088432  1.0000
  P   P3        1.0  0.20336144154155275  0.9046899427224917  0.08342279141231758  1.0000
  P   P4        1.0  0.7966371454001546  0.09530883332782741  0.9165772327654905  1.0000
  H   H1        1.0  0.9076290994973631  0.7993232422142001  0.8916405418727038  1.0000
  H   H2        1.0  0.09236935711744819  0.2006765859261037  0.10835881438269718  1.0000
  H   H3        1.0  0.3726590735376192  0.6635438910573016  0.7246665704459757  1.0000
  H   H4        1.0  0.6273415420151095  0.3364601818638705  0.2753343803667717  1.0000
  H   H5        1.0  0.3843610652744827  0.6613554469045937  0.5717819127959416  1.0000
  H   H6        1.0  0.6156380672230242  0.3386496808497271  0.4282183794688592  1.0000
  H   H7        1.0  0.9692414902845594  0.6095991418287029  0.5792410496501716  1.0000
  H   H8        1.0  0.030757234187227266  0.3903985701581406  0.4207584181654908  1.0000
  H   H9        1.0  0.9583098626476525  0.6171846372553489  0.7318958708033134  1.0000
  H   H10       1.0  0.04169169760767488  0.38281201715518154  0.2681042461858282  1.0000
  H   H11       1.0  0.08390788908044296  0.6993891617208308  0.10622860407168128  1.0000
  H   H12       1.0  0.9160905639327763  0.30061067240622924  0.8937713643259853  1.0000
  H   H13       1.0  0.15416463766013064  0.6884283405865618  0.262861418191406  1.0000
  H   H14       1.0  0.845836658339813  0.3115704239906877  0.7371379750951945  1.0000
  H   H15       1.0  0.09636757796474879  0.7235605313541811  0.4122595043062347  1.0000
  H   H16       1.0  0.9036322277767893  0.2764393000297148  0.5877404547169647  1.0000
  H   H17       1.0  0.39306143894540907  0.0905296033795082  0.38783919483444856  1.0000
  H   H18       1.0  0.6069395927991437  0.90947127136446  0.6121594747496103  1.0000
  H   H19       1.0  0.4441549355681572  0.0586514391882815  0.23694382364553226  1.0000
  H   H20       1.0  0.5558451416319556  0.9413462700553978  0.7630556347956626  1.0000
  H   H21       1.0  0.11532845339723957  0.9409245057623182  0.8586821627873391  1.0000
  H   H22       1.0  0.8846743256579186  0.05907320398178942  0.14131788904720816  1.0000
  H   H23       1.0  0.2811340602335193  0.9145577077691557  0.700519100619502  1.0000
  H   H24       1.0  0.718864396381285  0.0854421203711553  0.299480255635892  1.0000
  H   H25       1.0  0.06393108870000926  0.8621933192802022  0.7319132785218585  1.0000
  H   H26       1.0  0.9360687134399439  0.13780651809044286  0.2680872926436138  1.0000
  H   H27       1.0  0.10147524776055408  0.0450229888356048  0.7210663919735651  1.0000
  H   H28       1.0  0.8985232016510805  0.9549768512782038  0.2789341885663744  1.0000
  H   H29       1.0  0.12076542140822255  0.4364546959083315  0.8408363135373519  1.0000
  H   H30       1.0  0.8792342504048347  0.5635461935522984  0.15916358970571307  1.0000
  H   H31       1.0  0.198892191407772  0.43586769178300244  0.7017286895772796  1.0000
  H   H32       1.0  0.8011139761899102  0.5641353001152964  0.29827105523319364  1.0000
  H   H33       1.0  0.23097025490232428  0.26078779909676086  0.7502257065271465  1.0000
  H   H34       1.0  0.7690360538270226  0.7392141227513065  0.24977286977891558  1.0000
  H   H35       1.0  0.4197292670899769  0.3627111285988036  0.7329732063233435  1.0000
  H   H36       1.0  0.5802754030461372  0.6372929420796397  0.2670283285082746  1.0000
  C   C1        1.0  0.664013943766278  0.6393853423241468  0.7369307357969745  1.0000
  C   C2        1.0  0.33598585837366807  0.36061449504649806  0.2630698353684977  1.0000
  C   C3        1.0  0.5023149865500184  0.6526275069191669  0.692129842214598  1.0000
  C   C4        1.0  0.4976856254011253  0.3473765719887539  0.30787172074042246  1.0000
  C   C5        1.0  0.5085538404471635  0.6505421796988529  0.6074277464389723  1.0000
  C   C6        1.0  0.4914452884487588  0.3494629540422097  0.39257315796810827  1.0000
  C   C7        1.0  0.6780714149043872  0.6343108774825835  0.5682798172491133  1.0000
  C   C8        1.0  0.3219281121754065  0.3656910880150264  0.43172186664064327  1.0000
  C   C9        1.0  0.8401868273608739  0.6212787188134713  0.6120186400274432  1.0000
  C   C10       1.0  0.15981284445218336  0.3787221706471655  0.3879812632156217  1.0000
  C   C11       1.0  0.8334462544770885  0.6246890365442114  0.6969374065479315  1.0000
  C   C12       1.0  0.16655368159135256  0.3753097427496996  0.3030632203976822  1.0000
  C   C13       1.0  0.2996985698184744  0.8737443667225193  0.2426049461133957  1.0000
  C   C14       1.0  0.7003011055961679  0.12625651675136143  0.7573943449873967  1.0000
  C   C15       1.0  0.2029519131328712  0.7773480606401152  0.2904834408038184  1.0000
  C   C16       1.0  0.7970480301387466  0.22265070668029818  0.7095159618572495  1.0000
  C   C17       1.0  0.17218488447660713  0.7959064375546988  0.3733739113494465  1.0000
  C   C18       1.0  0.827813706066692  0.20409233250887845  0.6266255006860817  1.0000
  C   C19       1.0  0.24108125561897953  0.9096069025217518  0.4065811951220296  1.0000
  C   C20       1.0  0.7589185537241504  0.09039292287539522  0.5934181517588968  1.0000
  C   C21       1.0  0.33894389207353726  0.0052370128412633  0.3591611837910591  1.0000
  C   C22       1.0  0.6610546984697617  0.9947617572223069  0.6408382282444691  1.0000
  C   C23       1.0  0.367306871213934  0.9874981309128471  0.2762428583994563  1.0000
  C   C24       1.0  0.632693068456099  0.012500642394314797  0.7237571564038844  1.0000
  C   C25       1.0  0.1635469788439892  0.937886770987426  0.7404863884571781  1.0000
  C   C26       1.0  0.8364528268975491  0.06211306039647009  0.2595135705660283  1.0000
  C   C27       1.0  0.27537769888602526  0.36795442976457343  0.7497479194807041  1.0000
  C   C28       1.0  0.7246283311815841  0.6320496261972084  0.250252381691908  1.0000
  N   N1        1.0  0.6852248735608197  0.6308593683080944  0.479443812607009  1.0000
  N   N2        1.0  0.3147707328640905  0.36914154135551774  0.520557343044004  1.0000
  N   N3        1.0  0.21589603755685247  0.9273146908136173  0.4942010970227101  1.0000
  N   N4        1.0  0.7841049941877002  0.07268618393035105  0.5057975725613488  1.0000
  O   O1        1.0  0.6433687548550322  0.6447154976406965  0.8203568406547317  1.0000
  O   O2        1.0  0.3566314490703845  0.3552811654997399  0.1796438978511503  1.0000
  O   O3        1.0  0.9482910014999176  0.6962056266887232  0.8792582783028634  1.0000
  O   O4        1.0  0.051708804241627576  0.3037942046951727  0.1207416807203359  1.0000
  O   O5        1.0  0.8928161213923926  0.449655009114686  0.8664425433274303  1.0000
  O   O6        1.0  0.1071877353309318  0.5503448260132232  0.13355861185691956  1.0000
  O   O7        1.0  0.6936881876937943  0.5948347017210127  0.9696428351562715  1.0000
  O   O8        1.0  0.30631053317640067  0.40516301625257256  0.0303572448016638  1.0000
  O   O9        1.0  0.540198057251821  0.6537314846727966  0.4409078124162278  1.0000
  O   O10       1.0  0.45979727411293664  0.3462715531177808  0.5590944559590625  1.0000
  O   O11       1.0  0.8363091772432011  0.6037014722986243  0.4462299815687558  1.0000
  O   O12       1.0  0.1636854818404458  0.3962962598911943  0.5537707386548547  1.0000
  O   O13       1.0  0.3410895589499389  0.8535784503088949  0.1610989609797926  1.0000
  O   O14       1.0  0.6589102503931912  0.14642137508825212  0.838900385901141  1.0000
  O   O15       1.0  0.04395939114081666  0.8063988888359434  0.09486365500239909  1.0000
  O   O16       1.0  0.9560377091440841  0.19360094803427333  0.905136322769735  1.0000
  O   O17       1.0  0.11554921056525555  0.05297300479466571  0.0917701598188998  1.0000
  O   O18       1.0  0.8844492460495557  0.947026823345638  0.9082291964364942  1.0000
  O   O19       1.0  0.3232307678287042  0.8792296339245028  0.010031294987705086  1.0000
  O   O20       1.0  0.6767679566430757  0.12076807806233351  0.9899681728279645  1.0000
  O   O21       1.0  0.2796121842494016  0.028342690314197207  0.5227306970042278  1.0000
  O   O22       1.0  0.7203874911652403  0.9716581931596839  0.47726859409656436  1.0000
  O   O23       1.0  0.13254997666122387  0.8391220505224054  0.5366759813654481  1.0000
  O   O24       1.0  0.8674496951518336  0.1608788389382312  0.46332392187762383  1.0000
  O   O25       1.0  0.22538332270591604  0.9270478745683165  0.8240523659291341  1.0000
  O   O26       1.0  0.7746191920938584  0.07295194534250982  0.1759469622028647  1.0000
  O   O27       1.0  0.25318273326111296  0.4223918953324812  0.829014489501155  1.0000
  O   O28       1.0  0.7468181537501832  0.5776100554484743  0.17098596072958824  1.0000
