data_image0
_chemical_formula_structural       Al4H88C100O20
_chemical_formula_sum              "Al4 H88 C100 O20"
_cell_length_a       6.6679932843949965
_cell_length_b       22.603767295029325
_cell_length_c       27.017524170388363
_cell_angle_alpha    78.12727984014818
_cell_angle_beta     90.05720616575445
_cell_angle_gamma    90.01236830185766

_space_group_name_H-M_alt    "P 1"
_space_group_IT_number       1

loop_
  _space_group_symop_operation_xyz
  'x, y, z'

loop_
  _atom_site_type_symbol
  _atom_site_label
  _atom_site_symmetry_multiplicity
  _atom_site_fract_x
  _atom_site_fract_y
  _atom_site_fract_z
  _atom_site_occupancy
  Al  Al1       1.0  0.7584493792192076  0.25137077766228094  0.2508689706375263  1.0000
  Al  Al2       1.0  0.24530603973067852  0.7499914760646436  0.7490682943519286  1.0000
  Al  Al3       1.0  0.2584607251623368  0.24861716575691878  0.24899667696404745  1.0000
  Al  Al4       1.0  0.7453085639753496  0.7499076207402238  0.7508585505191191  1.0000
  H   H1        1.0  0.7898794635261909  0.39284549076177205  0.0213814108845298  1.0000
  H   H2        1.0  0.16051091537424614  0.6158111348119989  0.982082841631474  1.0000
  H   H3        1.0  0.2889189169554172  0.10704269538281615  0.4785444381266756  1.0000
  H   H4        1.0  0.6627722764201635  0.8845675506680877  0.5181778181376018  1.0000
  H   H5        1.0  0.6905496798660664  0.10681471268951272  0.05916118757803449  1.0000
  H   H6        1.0  0.2997172508933446  0.9397721177004572  0.9057720681229354  1.0000
  H   H7        1.0  0.1914889877569124  0.393094941586675  0.440586038349906  1.0000
  H   H8        1.0  0.7993276796640387  0.5602041241053329  0.5943412891927196  1.0000
  H   H9        1.0  0.29434012462260034  0.051064158900104  0.10191431667669797  1.0000
  H   H10       1.0  0.6832468663066749  0.8889717051179319  0.9403206490953406  1.0000
  H   H11       1.0  0.7952068527338625  0.44889352046518394  0.39811981163284565  1.0000
  H   H12       1.0  0.18267919722914877  0.6107423536129275  0.5594661509976644  1.0000
  H   H13       1.0  0.29084153346774855  0.11840058619213073  0.16424864472117653  1.0000
  H   H14       1.0  0.6988999327733652  0.8236549222466253  0.8780910412422926  1.0000
  H   H15       1.0  0.7918068529333196  0.38151777162427447  0.3358115014667361  1.0000
  H   H16       1.0  0.1978045644978366  0.6760383176370794  0.6217273120152738  1.0000
  H   H17       1.0  0.2720849674780794  0.06847823225827201  0.0049995515621005975  1.0000
  H   H18       1.0  0.706045076715057  0.9274802998756259  0.0003817052064932003  1.0000
  H   H19       1.0  0.7725686027490113  0.43149268660208423  0.4951173100524002  1.0000
  H   H20       1.0  0.20611690303957178  0.5724016591028375  0.4992874792643035  1.0000
  H   H21       1.0  0.2702569942830237  0.005688324886222076  0.9414357319566946  1.0000
  H   H22       1.0  0.704124994108227  0.9932946532481496  0.061863388016199394  1.0000
  H   H23       1.0  0.7701536640255567  0.49425951551850034  0.5586987948146029  1.0000
  H   H24       1.0  0.20479008643827257  0.5066157211883536  0.4377777434000264  1.0000
  H   H25       1.0  0.6445319848284755  0.36143561237425814  0.9564064473227273  1.0000
  H   H26       1.0  0.6738036298561881  0.3987585809058131  0.8922697537246335  1.0000
  H   H27       1.0  0.8520763310775905  0.34444998681389905  0.9211454225056028  1.0000
  H   H28       1.0  0.3068832080537121  0.6491288866525196  0.04390507806737529  1.0000
  H   H29       1.0  0.1134891604346322  0.6590576171908042  0.08611580141363359  1.0000
  H   H30       1.0  0.312210231582604  0.6082401558438805  0.1074066658732846  1.0000
  H   H31       1.0  0.14243587881586  0.1381972265700142  0.5434266025999931  1.0000
  H   H32       1.0  0.1715821169897822  0.10082731870622302  0.6075715633166893  1.0000
  H   H33       1.0  0.34930164305389166  0.1553988487228608  0.5789167476642945  1.0000
  H   H34       1.0  0.8112720488240583  0.8515619077108243  0.45651712847795517  1.0000
  H   H35       1.0  0.6186603702209014  0.8412604519334153  0.4141215721637437  1.0000
  H   H36       1.0  0.8165103947952448  0.8924252976818537  0.39300482246120777  1.0000
  H   H37       1.0  0.8689535122623725  0.3290422255108325  0.0861699657403392  1.0000
  H   H38       1.0  0.0850674374814062  0.3565681495845965  0.05077943385500559  1.0000
  H   H39       1.0  0.10817691352878002  0.31874195251580784  0.11476656742902948  1.0000
  H   H40       1.0  0.8702445261298877  0.647973593129322  0.9470126692982602  1.0000
  H   H41       1.0  0.0884220390108794  0.6779210472570796  0.91351003370265  1.0000
  H   H42       1.0  0.8551809609708626  0.6826983035304791  0.8820325250549457  1.0000
  H   H43       1.0  0.36674803704550374  0.17086064193798486  0.41368663766374414  1.0000
  H   H44       1.0  0.5832553867530094  0.14381533216144501  0.44922272781782613  1.0000
  H   H45       1.0  0.6059423010813489  0.18162407956643994  0.3852372974815025  1.0000
  H   H46       1.0  0.3714348521955415  0.8521552074050195  0.5527201551147484  1.0000
  H   H47       1.0  0.5890776456429236  0.8221465652642197  0.5865494548428103  1.0000
  H   H48       1.0  0.3552805127600109  0.8173359969350715  0.6176590136074367  1.0000
  H   H49       1.0  0.045651803368386416  0.4082169028756937  0.2550842717374877  1.0000
  H   H50       1.0  0.09823759023273479  0.4860790942065094  0.24850187394360287  1.0000
  H   H51       1.0  0.8463589821770228  0.4609678563530863  0.24810296591555667  1.0000
  H   H52       1.0  0.1159085218297733  0.5863040732807222  0.7514134280383897  1.0000
  H   H53       1.0  0.24049303281019263  0.5169691808406753  0.7719387949134527  1.0000
  H   H54       1.0  0.9872141333595935  0.5171508181061597  0.7526762900220945  1.0000
  H   H55       1.0  0.5478554129695894  0.0918510039270544  0.24498061094861603  1.0000
  H   H56       1.0  0.6015642098449732  0.014060613044350108  0.2516641840314193  1.0000
  H   H57       1.0  0.34930656887731715  0.038859456006825596  0.25178757787775646  1.0000
  H   H58       1.0  0.6157498979589205  0.9136996222743721  0.7486598568208364  1.0000
  H   H59       1.0  0.7393303400874132  0.9832148022212124  0.7282585240263728  1.0000
  H   H60       1.0  0.4860077937579134  0.9826630117537152  0.7474165558163077  1.0000
  H   H61       1.0  0.15050952101383072  0.4313710838103973  0.8132092798880775  1.0000
  H   H62       1.0  0.06781229294666959  0.38769255177163603  0.8714134047506829  1.0000
  H   H63       1.0  0.8944314384468299  0.412616976379752  0.8215614936827434  1.0000
  H   H64       1.0  0.8976053747184451  0.5622074669735541  0.20186869947605857  1.0000
  H   H65       1.0  0.1430947297919047  0.5866206685304077  0.18361389599367325  1.0000
  H   H66       1.0  0.9376924515804673  0.6104226949795902  0.14254828240572684  1.0000
  H   H67       1.0  0.6485348237596043  0.06873344521401493  0.6869948375899354  1.0000
  H   H68       1.0  0.56563184349951  0.1123347291435834  0.6287326483759088  1.0000
  H   H69       1.0  0.39229600487971794  0.08723374054462596  0.678470343328982  1.0000
  H   H70       1.0  0.40212522036549814  0.9376587200220287  0.2981561799683092  1.0000
  H   H71       1.0  0.6478821543121355  0.913659416035955  0.31665673940143774  1.0000
  H   H72       1.0  0.44244780849648896  0.8895517087498493  0.3575373698127748  1.0000
  H   H73       1.0  0.6732811052385725  0.2341127980226503  0.11112830016779898  1.0000
  H   H74       1.0  0.5264080225988081  0.17860717254579575  0.08934968244491868  1.0000
  H   H75       1.0  0.5598844523418833  0.1768842236836008  0.1552416690765952  1.0000
  H   H76       1.0  0.33186335362635333  0.8925428702071799  0.7929819792142041  1.0000
  H   H77       1.0  0.470950415323145  0.9124012866182768  0.8435929179210857  1.0000
  H   H78       1.0  0.43345274529121985  0.8352928839351748  0.8390507075647591  1.0000
  H   H79       1.0  0.1743005292682867  0.26575932848759726  0.38868453069846237  1.0000
  H   H80       1.0  0.027573939067096397  0.3212644465737001  0.4104336553717687  1.0000
  H   H81       1.0  0.06064378285021381  0.322971752156363  0.34454790565172994  1.0000
  H   H82       1.0  0.8307615370945597  0.6074798122904356  0.7071764760710193  1.0000
  H   H83       1.0  0.9700463877909231  0.5874818084279099  0.6567282568391091  1.0000
  H   H84       1.0  0.932795678348171  0.664635246758685  0.661137238732401  1.0000
  H   H85       1.0  0.5089233585538722  0.29492454034002696  0.1902119030739371  1.0000
  H   H86       1.0  0.4909407273145733  0.7030421342029954  0.8089803883562039  1.0000
  H   H87       1.0  0.0092909928635052  0.20510961945046804  0.3096853800348142  1.0000
  H   H88       1.0  0.9906117525741324  0.7968456754098842  0.6909500826225778  1.0000
  C   C1        1.0  0.5039817202781265  0.31083989151480307  0.3145951348728175  1.0000
  C   C2        1.0  0.49458050060024317  0.6927489438258404  0.6827768827686852  1.0000
  C   C3        1.0  0.0030583047671016  0.18910917970861624  0.18529214088852083  1.0000
  C   C4        1.0  0.9955127893588128  0.8071315850206704  0.8171592240528793  1.0000
  C   C5        1.0  0.5096182213949659  0.15242105841971212  0.30721140912165606  1.0000
  C   C6        1.0  0.4994473616204972  0.8487347711173286  0.6933892357521427  1.0000
  C   C7        1.0  0.0095245620618272  0.3476246470468567  0.1927438258952705  1.0000
  C   C8        1.0  0.9993847763196586  0.6511972164849881  0.8065819453482204  1.0000
  C   C9        1.0  0.0025295580293587003  0.5924570234241742  0.8444065756121757  1.0000
  C   C10       1.0  0.009238080510222301  0.40804160407078893  0.1574580572591771  1.0000
  C   C11       1.0  0.5023558292986507  0.907518954193627  0.6556056945299031  1.0000
  C   C12       1.0  0.5098253733349409  0.09206332542978396  0.3425662804429166  1.0000
  C   C13       1.0  0.9982196288026443  0.48327662898872614  0.8599824425077927  1.0000
  C   C14       1.0  0.020162441845606293  0.516820386422232  0.14637658561156996  1.0000
  C   C15       1.0  0.4970894803476895  0.01669244478397762  0.6401026754335531  1.0000
  C   C16       1.0  0.5230093272349592  0.9833120661602452  0.35371784049173965  1.0000
  C   C17       1.0  0.0324557820575109  0.538343326394397  0.8267354992592644  1.0000
  C   C18       1.0  0.0086056786863367  0.46016775610610955  0.17863784170688746  1.0000
  C   C19       1.0  0.5317714132181379  0.9616339187214039  0.6733323536447243  1.0000
  C   C20       1.0  0.5106677728935622  0.039910281176069894  0.321411513128659  1.0000
  C   C21       1.0  0.9808908937200158  0.5932088317854465  0.8956268158020887  1.0000
  C   C22       1.0  0.0008402084016623  0.4101552827959198  0.10565780162200157  1.0000
  C   C23       1.0  0.4809961449970785  0.9068118384497698  0.6043565507988687  1.0000
  C   C24       1.0  0.500741199164537  0.0899778909911007  0.39434990170163076  1.0000
  C   C25       1.0  0.9797391588071349  0.5366774757745604  0.9310013589042325  1.0000
  C   C26       1.0  0.9958891590844203  0.4681069860992438  0.07227588592375869  1.0000
  C   C27       1.0  0.4797439423647134  0.96337271594512  0.5690202277428965  1.0000
  C   C28       1.0  0.4966817731105523  0.0320339772647387  0.4277772446466628  1.0000
  C   C29       1.0  0.9517151185915438  0.48262209963316144  0.9116296944731843  1.0000
  C   C30       1.0  0.0347599440293607  0.5208603471479877  0.09292629314494857  1.0000
  C   C31       1.0  0.4509228300847923  0.017367373220544397  0.5884061490385618  1.0000
  C   C32       1.0  0.5370006932155391  0.979345622723095  0.4071826446868129  1.0000
  C   C33       1.0  0.0041740932227086  0.5309738030111575  0.9851752642742608  1.0000
  C   C34       1.0  0.9600760692052502  0.4754688143815571  0.018440413664073698  1.0000
  C   C35       1.0  0.5048505888389555  0.9691735899558082  0.514867552549603  1.0000
  C   C36       1.0  0.46032163002568893  0.024634090963616  0.4815755864514628  1.0000
  C   C37       1.0  0.8685513981342865  0.42967986302391387  0.9968608336087568  1.0000
  C   C38       1.0  0.09107855350138291  0.5772718804687358  0.006856039894181298  1.0000
  C   C39       1.0  0.3679074631218171  0.07029120302867403  0.5031096093166381  1.0000
  C   C40       1.0  0.5930413716072138  0.923005404586121  0.49330796300360896  1.0000
  C   C41       1.0  0.8675992846873656  0.4309339187548034  0.9458483622236783  1.0000
  C   C42       1.0  0.1023950895661301  0.5745838807864275  0.058111461453705694  1.0000
  C   C43       1.0  0.3664795426087509  0.06898486307029111  0.5541275185304144  1.0000
  C   C44       1.0  0.6052552040174176  0.9257388238355588  0.4420690924201906  1.0000
  C   C45       1.0  0.8174822295086273  0.147431371210736  0.11722276498162636  1.0000
  C   C46       1.0  0.17433999356045146  0.8792194771804847  0.8635951061576248  1.0000
  C   C47       1.0  0.3184861039518836  0.35245308916151424  0.3826120727322788  1.0000
  C   C48       1.0  0.6736291928954189  0.6207155266675386  0.6364367634184444  1.0000
  C   C49       1.0  0.8218835672350621  0.10857109767643888  0.0830172950056109  1.0000
  C   C50       1.0  0.16443349075019142  0.9149635451531283  0.9000125041053407  1.0000
  C   C51       1.0  0.3228534903008294  0.3913248247973016  0.41679898432846574  1.0000
  C   C52       1.0  0.6639375954730938  0.5849672008749066  0.6000214095830358  1.0000
  C   C53       1.0  0.9907943332194123  0.07404908547433561  0.07639902678419468  1.0000
  C   C54       1.0  0.9916362444431215  0.9203753869664554  0.9284949191853897  1.0000
  C   C55       1.0  0.49169370876614243  0.42588313123616933  0.4234874901658258  1.0000
  C   C56       1.0  0.49122846783057383  0.5794939314026949  0.5714353656961035  1.0000
  C   C57       1.0  0.16198584882847203  0.0780841639715746  0.1058684410293225  1.0000
  C   C58       1.0  0.822753550558467  0.8864151974755005  0.9199105834998704  1.0000
  C   C59       1.0  0.6629071661408545  0.42184421377687203  0.3941240431362373  1.0000
  C   C60       1.0  0.32215768719661503  0.6133630994918491  0.5799434614627471  1.0000
  C   C61       1.0  0.1601003592720716  0.11536588615654611  0.14078678524554528  1.0000
  C   C62       1.0  0.8297704014018591  0.8497499104938556  0.884566332365395  1.0000
  C   C63       1.0  0.6610658940135181  0.38453961568412615  0.3592082790884134  1.0000
  C   C64       1.0  0.3289021362700026  0.6500282517379787  0.6153064817317571  1.0000
  C   C65       1.0  0.9912485447480321  0.15013370294815337  0.1470131039812017  1.0000
  C   C66       1.0  0.0019720134733205  0.8457914455707115  0.8556992657392541  1.0000
  C   C67       1.0  0.4922638396185306  0.3497730979131718  0.35290155674103824  1.0000
  C   C68       1.0  0.5010910794475478  0.6540811565346943  0.6442505239767229  1.0000
  C   C69       1.0  0.1482889815224198  0.03706883838685831  0.0042827470092277  1.0000
  C   C70       1.0  0.8302561911378206  0.9588450659779114  0.00018665058586720033  1.0000
  C   C71       1.0  0.6486931297425259  0.46288765203623683  0.4957284487592375  1.0000
  C   C72       1.0  0.3304080661951261  0.5410442267101843  0.4995811312768836  1.0000
  C   C73       1.0  0.1468312797361619  0.0010433571941277306  0.9683350341832548  1.0000
  C   C74       1.0  0.8287700183277238  0.9960083176938783  0.035329415856267594  1.0000
  C   C75       1.0  0.6469007254128769  0.49888365805500007  0.5316966085497795  1.0000
  C   C76       1.0  0.3292532290218091  0.5039072145171133  0.4644156864760234  1.0000
  C   C77       1.0  0.9893331595514779  0.960210458559189  0.9657014509022729  1.0000
  C   C78       1.0  0.9891358734953927  0.035341170734049916  0.038567001729653286  1.0000
  C   C79       1.0  0.4892333760321748  0.5396887085908377  0.5342074507323956  1.0000
  C   C80       1.0  0.4897843605157064  0.46460291490729605  0.4613084577422056  1.0000
  C   C81       1.0  0.7549448932193527  0.3814094015367075  0.92764594989854  1.0000
  C   C82       1.0  0.21329737602271592  0.62525086525325  0.0751093959962859  1.0000
  C   C83       1.0  0.25286327391253854  0.11832957053363198  0.5722812824077224  1.0000
  C   C84       1.0  0.7175598410521076  0.875248443893156  0.42519957669694713  1.0000
  C   C85       1.0  0.0156750743698524  0.3508057182902036  0.08820579596044098  1.0000
  C   C86       1.0  0.9476141829923537  0.6533525808830094  0.9106200430783601  1.0000
  C   C87       1.0  0.513992683067336  0.14939103284328337  0.41175738504990267  1.0000
  C   C88       1.0  0.4481837787130232  0.84671161384113  0.589242922162448  1.0000
  C   C89       1.0  0.9996116691734827  0.4535621041816286  0.23534739832398796  1.0000
  C   C90       1.0  0.0957411841825575  0.5401259729455816  0.7729518721594317  1.0000
  C   C91       1.0  0.5022633545436506  0.04646065299371569  0.26469648961860764  1.0000
  C   C92       1.0  0.5949154473753709  0.959860323493132  0.7271543960995286  1.0000
  C   C93       1.0  0.027932285294951998  0.4256675351142433  0.8408840698595768  1.0000
  C   C94       1.0  0.0002726070243284  0.5720088548991528  0.1694550599946965  1.0000
  C   C95       1.0  0.5260425923434795  0.07431976488445716  0.6592371585610619  1.0000
  C   C96       1.0  0.5045743112320409  0.928047403807888  0.3306670978598801  1.0000
  C   C97       1.0  0.6340613536886578  0.18585418841827564  0.11827593793238829  1.0000
  C   C98       1.0  0.3633988332408506  0.8800321006607493  0.833602838648332  1.0000
  C   C99       1.0  0.1350453464117933  0.3140143763473589  0.3815170616430094  1.0000
  C   C100      1.0  0.8625495019687293  0.6199140342132526  0.6665879908063772  1.0000
  O   O1        1.0  0.339319116309639  0.1745292082390151  0.2922986659112324  1.0000
  O   O2        1.0  0.667911454464516  0.8256473578505139  0.7087938234599918  1.0000
  O   O3        1.0  0.8393410404568584  0.3253253583990058  0.20744523998367728  1.0000
  O   O4        1.0  0.1677170996693889  0.6744714711828409  0.7914184703285654  1.0000
  O   O5        1.0  0.6781955207807756  0.2973541008887821  0.30047975434000307  1.0000
  O   O6        1.0  0.32179342292172924  0.7074111815477551  0.6969464546470404  1.0000
  O   O7        1.0  0.1773570012992565  0.2028639042851168  0.1992583895075128  1.0000
  O   O8        1.0  0.822707361576647  0.792079199651717  0.8031971671944687  1.0000
  O   O9        1.0  0.6781176044618887  0.17733940437954493  0.29456208079339047  1.0000
  O   O10       1.0  0.3289930374981367  0.8258679776266363  0.707565736823767  1.0000
  O   O11       1.0  0.1782109269136001  0.3228438630950663  0.20552330208504085  1.0000
  O   O12       1.0  0.8288107855059649  0.6738287567358227  0.7921221854607267  1.0000
  O   O13       1.0  0.8378772188464724  0.20607473531735115  0.20130064512050438  1.0000
  O   O14       1.0  0.16231986051878522  0.7911354956936947  0.8011394239536572  1.0000
  O   O15       1.0  0.33872431092620303  0.2936408741653835  0.2987059617655632  1.0000
  O   O16       1.0  0.6613986373140223  0.7091609794930492  0.6985663536441392  1.0000
  O   O17       1.0  0.5094798100253684  0.26072496092588443  0.21860098035001127  1.0000
  O   O18       1.0  0.4942618890234557  0.7376699168795682  0.7809708437962113  1.0000
  O   O19       1.0  0.0097407530055449  0.23926488491008513  0.2812586804513728  1.0000
  O   O20       1.0  0.9940362393551966  0.762215755064432  0.7189548186373356  1.0000
