data_image0
_chemical_formula_structural       Al2H14C26Br2O12
_chemical_formula_sum              "Al2 H14 C26 Br2 O12"
_cell_length_a       6.604411862214944
_cell_length_b       11.167506218953864
_cell_length_c       15.249821169285392
_cell_angle_alpha    84.25619521826778
_cell_angle_beta     78.43182376172713
_cell_angle_gamma    71.23138153116831

_space_group_name_H-M_alt    "P 1"
_space_group_IT_number       1

loop_
  _space_group_symop_operation_xyz
  'x, y, z'

loop_
  _atom_site_type_symbol
  _atom_site_label
  _atom_site_symmetry_multiplicity
  _atom_site_fract_x
  _atom_site_fract_y
  _atom_site_fract_z
  _atom_site_occupancy
  Al  Al1       1.0  0.5033120113839188  0.4954906370661192  0.5004763226841293  1.0000
  Al  Al2       1.0  0.005642560863257978  0.4887893707750806  0.503472162324691  1.0000
  H   H1        1.0  0.2571995224318187  0.41284501052455613  0.6060316089316659  1.0000
  H   H2        1.0  0.7093580138312277  0.6439991310247777  0.45190490770593783  1.0000
  H   H3        1.0  0.8915796937476446  0.5599428618829235  0.7777325603875697  1.0000
  H   H4        1.0  0.201546010629329  0.37051572225513496  0.23103247873483218  1.0000
  H   H5        1.0  0.4976133365772598  0.6614571413984364  0.23194159929007443  1.0000
  H   H6        1.0  0.5591865115132679  0.6747516045072571  0.06705072278319338  1.0000
  H   H7        1.0  0.321972804617623  0.4580250399916038  0.7699751428550885  1.0000
  H   H8        1.0  0.22618521787337184  0.4651787725941148  0.9353421177667516  1.0000
  H   H9        1.0  0.2632442556841283  0.2221264325835577  0.3820894089763201  1.0000
  H   H10       1.0  0.46421120221518924  0.752926210160517  0.3823210288412825  1.0000
  H   H11       1.0  0.7479569677803396  0.8832862834958136  0.5570227115369448  1.0000
  H   H12       1.0  0.6335505373144628  0.12037202686601489  0.5456285626366721  1.0000
  H   H13       1.0  0.9387603954101209  0.5967162731352927  0.9108441884897546  1.0000
  H   H14       1.0  0.22459571483639718  0.2968211255214256  0.10079064478498621  1.0000
  C   C1        1.0  0.8707384034610471  0.26841375444332977  0.48395005424514204  1.0000
  C   C2        1.0  0.6812106976579742  0.4947478862393595  0.6646528902156064  1.0000
  C   C3        1.0  0.13749410106059667  0.7216506490562508  0.5018075233396788  1.0000
  C   C4        1.0  0.31136361089841097  0.5014259179935224  0.34142071533783286  1.0000
  C   C5        1.0  0.6143454290871873  0.5075856630183039  0.7632012305493846  1.0000
  C   C6        1.0  0.3475436031667272  0.5136127164573026  0.2421121068199454  1.0000
  C   C7        1.0  0.7426251787375193  0.5414142140966973  0.8127025115272772  1.0000
  C   C8        1.0  0.6841650756757217  0.5510410931223788  0.9055720263126547  1.0000
  C   C9        1.0  0.28374817064635494  0.4359165207780221  0.19439814171553857  1.0000
  C   C10       1.0  0.3330385414387608  0.43659187886142087  0.10112206180248512  1.0000
  C   C11       1.0  0.4484705307860892  0.5996947333793301  0.1953835019041108  1.0000
  C   C12       1.0  0.485715549342629  0.6053432890281628  0.10235410910591013  1.0000
  C   C13       1.0  0.4232616723088257  0.48398302205534094  0.8080973560991823  1.0000
  C   C14       1.0  0.3684410568978009  0.49031358273207803  0.900608648693414  1.0000
  C   C15       1.0  0.49542429530229276  0.5227134164811458  0.9529808531718305  1.0000
  C   C16       1.0  0.4365247598474938  0.522400526831774  0.05180786582440791  1.0000
  C   C17       1.0  0.9447121462195368  0.1280581776145198  0.47684171613007464  1.0000
  C   C18       1.0  0.15781467612202246  0.05897996940493041  0.43340560581741283  1.0000
  C   C19       1.0  0.7979501918447198  0.0650764526601435  0.5165669417389296  1.0000
  C   C20       1.0  0.3059263417815501  0.11943380308737518  0.3833362088013104  1.0000
  C   C21       1.0  0.5033392825618108  0.0501359716140186  0.3359090269425239  1.0000
  C   C22       1.0  0.0703276017426403  0.8617307618726997  0.48571094560273326  1.0000
  C   C23       1.0  0.8612131765489011  0.9322061475043879  0.5219589675807087  1.0000
  C   C24       1.0  0.21933077706155044  0.923335878389821  0.43605125489730784  1.0000
  C   C25       1.0  0.42164425835365166  0.8551484275346015  0.3853010256780821  1.0000
  C   C26       1.0  0.5616873746123761  0.9161210914087972  0.33633640586329966  1.0000
  Br  Br1       1.0  0.6897327228527742  0.13799306342372827  0.26872522032658713  1.0000
  Br  Br2       1.0  0.8282053829852176  0.8165551190627196  0.2701494084850893  1.0000
  O   O1        1.0  0.6778255996664555  0.32698791511548114  0.47225606484757066  1.0000
  O   O2        1.0  0.8665329696300219  0.5058962963484247  0.6282535740837079  1.0000
  O   O3        1.0  0.001471121823143903  0.6654783956231541  0.49505816260239044  1.0000
  O   O4        1.0  0.44428715272143654  0.5277744100882628  0.3806387153296385  1.0000
  O   O5        1.0  0.32555883863076224  0.6690507232040446  0.5217503076813159  1.0000
  O   O6        1.0  0.15038024359167673  0.46556351314136185  0.3810345060683674  1.0000
  O   O7        1.0  0.0018279101147058094  0.3182165296872554  0.5052050625058158  1.0000
  O   O8        1.0  0.5485781196657697  0.47175096563225344  0.6232285904007073  1.0000
  O   O9        1.0  0.2687850118610341  0.43448335017928497  0.5424383732307234  1.0000
  O   O10       1.0  0.7408055257530036  0.5538133669939356  0.4654558068890537  1.0000
  O   O11       1.0  0.8127984247975351  0.5849215000225739  0.9523371517697473  1.0000
  O   O12       1.0  0.28665929986981814  0.35049034695842346  0.05652702846317941  1.0000
