data_image0
_chemical_formula_structural       Al4H24C64N4O52
_chemical_formula_sum              "Al4 H24 C64 N4 O52"
_cell_length_a       6.7389095455882835
_cell_length_b       20.01933767901301
_cell_length_c       20.392767047781422
_cell_angle_alpha    101.76238515731166
_cell_angle_beta     90.5568364597711
_cell_angle_gamma    91.29968451772285

_space_group_name_H-M_alt    "P 1"
_space_group_IT_number       1

loop_
  _space_group_symop_operation_xyz
  'x, y, z'

loop_
  _atom_site_type_symbol
  _atom_site_label
  _atom_site_symmetry_multiplicity
  _atom_site_fract_x
  _atom_site_fract_y
  _atom_site_fract_z
  _atom_site_occupancy
  Al  Al1       1.0  0.7840186460402664  0.751074695833651  0.25134850900555966  1.0000
  Al  Al2       1.0  0.21598608732183072  0.2489267278116643  0.748655216549651  1.0000
  Al  Al3       1.0  0.2835281051731187  0.7504072945430876  0.24949019302687261  1.0000
  Al  Al4       1.0  0.7164781576134233  0.2495960349963582  0.7505130445406966  1.0000
  H   H1        1.0  0.7964569718169372  0.587917415387956  0.9342365845811007  1.0000
  H   H2        1.0  0.20353879762031823  0.41208146917657734  0.06576959748907295  1.0000
  H   H3        1.0  0.7529928518138292  0.9266495942390093  0.5671556246411883  1.0000
  H   H4        1.0  0.24700304165437362  0.07335466242026462  0.43284506884078433  1.0000
  H   H5        1.0  0.7872378952480901  0.40395658074155705  0.44619936743148275  1.0000
  H   H6        1.0  0.21273373000042284  0.5960263766512881  0.5537881403420358  1.0000
  H   H7        1.0  0.292232382176863  0.09273249309570279  0.054511602654912415  1.0000
  H   H8        1.0  0.7077708227197165  0.9072672048833894  0.945488606975346  1.0000
  H   H9        1.0  0.8405353950009059  0.46151941468163227  0.7583503684302432  1.0000
  H   H10       1.0  0.1593713481580608  0.5384804642989635  0.24165793992018086  1.0000
  H   H11       1.0  0.657245702327792  0.04392542699240918  0.7404957627333248  1.0000
  H   H12       1.0  0.34276205875836047  0.9560787715613158  0.2594994750054057  1.0000
  H   H13       1.0  0.09305197920835441  0.2117011189504225  0.9290772070503127  1.0000
  H   H14       1.0  0.9069661282111882  0.7883013328516029  0.07091656758500162  1.0000
  H   H15       1.0  0.29251481597088974  0.2783652164954304  0.5670410058305323  1.0000
  H   H16       1.0  0.7074824690046954  0.7216351518072771  0.4329601818025639  1.0000
  H   H17       1.0  0.2983249834183895  0.42260951527070734  0.2989912099198194  1.0000
  H   H18       1.0  0.7016618029448266  0.5773867314928225  0.700997405825902  1.0000
  H   H19       1.0  0.8068075705262318  0.0715127742492854  0.20303641900898134  1.0000
  H   H20       1.0  0.19320605588798404  0.9284883691253893  0.7969608362894294  1.0000
  H   H21       1.0  0.5306307965527922  0.6626778389404748  0.22007418326846565  1.0000
  H   H22       1.0  0.4693739085538979  0.3373222120492159  0.7799350439806008  1.0000
  H   H23       1.0  0.0392899345628592  0.8380814917611872  0.2840479942991579  1.0000
  H   H24       1.0  0.9607177776765924  0.1619205268450656  0.715951240799342  1.0000
  C   C1        1.0  0.5399296064049467  0.8243491538488995  0.1704538639081505  1.0000
  C   C2        1.0  0.46007949734188  0.1756489764007867  0.829545865341473  1.0000
  C   C3        1.0  0.031211062510522  0.6764777645062807  0.3298804789855724  1.0000
  C   C4        1.0  0.9687951155134941  0.32352188529603854  0.670126751027148  1.0000
  C   C5        1.0  0.5367976240704024  0.8384254439067435  0.34871948844598694  1.0000
  C   C6        1.0  0.46322360923870326  0.16158335635308418  0.6512808269698527  1.0000
  C   C7        1.0  0.0272495254131258  0.6624701747358159  0.15255190393139637  1.0000
  C   C8        1.0  0.9727434131216128  0.3375344868222996  0.847453283283699  1.0000
  C   C9        1.0  0.9899256598605602  0.3911003434962196  0.910507028438204  1.0000
  C   C10       1.0  0.010064228444640796  0.6089008136355786  0.08950063744805453  1.0000
  C   C11       1.0  0.4602340644252719  0.10753823955359817  0.5887090639433624  1.0000
  C   C12       1.0  0.5397796999060135  0.8924686980717805  0.41128720921627604  1.0000
  C   C13       1.0  0.8780113527589464  0.5749517241627801  0.9760742923520528  1.0000
  C   C14       1.0  0.12198151059155292  0.4250497452480603  0.023932386091473704  1.0000
  C   C15       1.0  0.6628663820941297  0.9341457560925477  0.524732898646697  1.0000
  C   C16       1.0  0.33713991182094116  0.0658590485565114  0.4752653381256452  1.0000
  C   C17       1.0  0.9113257466069485  0.6248377712159225  0.03286361089507041  1.0000
  C   C18       1.0  0.0886760413999781  0.3751645449180927  0.9671421071765496  1.0000
  C   C19       1.0  0.6507370863103715  0.8829879081340761  0.4681435619089031  1.0000
  C   C20       1.0  0.34926923490116485  0.11701808894270019  0.5318531770821695  1.0000
  C   C21       1.0  0.0802654873696298  0.5439017131037716  0.08729059706175953  1.0000
  C   C22       1.0  0.919713991869351  0.4560985886762907  0.912718022838256  1.0000
  C   C23       1.0  0.4358327844283636  0.9517411760243064  0.413068850910122  1.0000
  C   C24       1.0  0.5641705382734585  0.04826359902760659  0.5869268702909808  1.0000
  C   C25       1.0  0.053083355388963596  0.49202661315550955  0.02805088894224641  1.0000
  C   C26       1.0  0.9469065721846447  0.5079762363338957  0.9719552808009697  1.0000
  C   C27       1.0  0.4406018619796797  0.004490158394865827  0.47183513437363467  1.0000
  C   C28       1.0  0.55940590485271  0.995514245066822  0.5281611051623473  1.0000
  C   C29       1.0  0.0864536711472113  0.4658788792049648  0.4415911906650722  1.0000
  C   C30       1.0  0.9135164692120339  0.5341039794453623  0.5583983127065937  1.0000
  C   C31       1.0  0.58903952609748  0.034190961422027  0.059113028955280825  1.0000
  C   C32       1.0  0.4109651062223065  0.9658063479901601  0.9408876797407191  1.0000
  C   C33       1.0  0.8828339061538415  0.4467709104893203  0.47007915193432853  1.0000
  C   C34       1.0  0.1171377756017904  0.5532143539850267  0.5299098650879019  1.0000
  C   C35       1.0  0.3852711449175885  0.0513838371734252  0.030260143651027208  1.0000
  C   C36       1.0  0.6147335142192033  0.948614574552522  0.9697410692200139  1.0000
  C   C37       1.0  0.9642349592552648  0.368707890201449  0.6232881134842149  1.0000
  C   C38       1.0  0.03576663241327789  0.6312864023742859  0.3767125726662358  1.0000
  C   C39       1.0  0.4589970604622949  0.13131716492320317  0.8771630466567688  1.0000
  C   C40       1.0  0.5410209487843717  0.8686808368699347  0.12284072465438813  1.0000
  C   C41       1.0  0.17595079343805511  0.47709311432973317  0.5143135343510468  1.0000
  C   C42       1.0  0.8240223277127258  0.5228902615076051  0.48567598337513135  1.0000
  C   C43       1.0  0.6766237899788551  0.02557526027164411  0.987142103069417  1.0000
  C   C44       1.0  0.32338973682776373  0.9744216009820195  0.012858642137302903  1.0000
  C   C45       1.0  0.9713061506978563  0.4558881777185704  0.5433395828882086  1.0000
  C   C46       1.0  0.028677271771663005  0.5440915541014989  0.45664896608035843  1.0000
  C   C47       1.0  0.4711723897957896  0.044837480762019814  0.9576814289818434  1.0000
  C   C48       1.0  0.5288381442473594  0.9551583633747427  0.04231930023215111  1.0000
  C   C49       1.0  0.9571476383120511  0.40922609731953224  0.5863485040408919  1.0000
  C   C50       1.0  0.0428299327155344  0.5907571118355506  0.41364253381743066  1.0000
  C   C51       1.0  0.45526959200846306  0.09153743085631309  0.914923846875077  1.0000
  C   C52       1.0  0.5447514291582678  0.9084625632334422  0.08507493799536552  1.0000
  C   C53       1.0  0.815301740959761  0.47225077688604955  0.8527657385944424  1.0000
  C   C54       1.0  0.18464364330327504  0.5277510558148107  0.14724874748974065  1.0000
  C   C55       1.0  0.6838196639730825  0.0402875784641097  0.6471648127814903  1.0000
  C   C56       1.0  0.31618216809324196  0.9597168929373224  0.35283190222050115  1.0000
  C   C57       1.0  0.15927405410869971  0.30476458728288236  0.9675000084257948  1.0000
  C   C58       1.0  0.8407381467964967  0.6952388668847647  0.03250125261808991  1.0000
  C   C59       1.0  0.2495850833791593  0.18306540865614093  0.5315125837123206  1.0000
  C   C60       1.0  0.7504122566688309  0.8169374346159516  0.46848360640195363  1.0000
  C   C61       1.0  0.16851024749016125  0.42114458701477986  0.3805349538405097  1.0000
  C   C62       1.0  0.8314702478218264  0.5788368322458054  0.6194545891236204  1.0000
  C   C63       1.0  0.6728283373488466  0.07740778277386079  0.12235591495114316  1.0000
  C   C64       1.0  0.3271808267371554  0.9225929372392229  0.8776418205332207  1.0000
  N   N1        1.0  0.6392775150370723  0.5478773953842406  0.4633081259680766  1.0000
  N   N2        1.0  0.36068977238995353  0.45211016262595655  0.5366848840833216  1.0000
  N   N3        1.0  0.1382690233137467  0.9462024112700648  0.03317029828982501  1.0000
  N   N4        1.0  0.8617371422625412  0.05379708671815564  0.9668264194045552  1.0000
  O   O1        1.0  0.36678487400672566  0.8158051039433899  0.3263369018231402  1.0000
  O   O2        1.0  0.6332393104037877  0.18420300873569317  0.6736624228735483  1.0000
  O   O3        1.0  0.8636099268660402  0.6806001568119837  0.18008970616406123  1.0000
  O   O4        1.0  0.136378547426304  0.3194041591584663  0.8199114564257645  1.0000
  O   O5        1.0  0.7087903166452278  0.8047332668123699  0.18609354539613326  1.0000
  O   O6        1.0  0.2912128604754187  0.19526514862504737  0.8139101639716773  1.0000
  O   O7        1.0  0.19783232495333888  0.6890607051839125  0.3059984264870367  1.0000
  O   O8        1.0  0.8021725175909609  0.3109450499425179  0.6940118205795686  1.0000
  O   O9        1.0  0.7035594027527453  0.8214269314822786  0.3229095652477128  1.0000
  O   O10       1.0  0.2964646906695307  0.1785772064377511  0.6770947520531723  1.0000
  O   O11       1.0  0.19983404547696892  0.6839680452192667  0.17294515691282444  1.0000
  O   O12       1.0  0.8001602931845043  0.3160330353442262  0.8270620271492819  1.0000
  O   O13       1.0  0.8609522497474347  0.6972779395668808  0.31692716180587166  1.0000
  O   O14       1.0  0.13905829339454104  0.3027183020457898  0.6830730681477066  1.0000
  O   O15       1.0  0.37051084486753894  0.8112224214719886  0.19241862524280864  1.0000
  O   O16       1.0  0.6294907190287448  0.18877102679181954  0.8075730480087703  1.0000
  O   O17       1.0  0.5318359197907726  0.7096053214454443  0.24466670005883634  1.0000
  O   O18       1.0  0.4681673229358268  0.29039579854938313  0.7553380192972697  1.0000
  O   O19       1.0  0.0362489106151855  0.7921803835793001  0.25675838796944833  1.0000
  O   O20       1.0  0.9637647181926853  0.20782077213539915  0.7432413701838814  1.0000
  O   O21       1.0  0.6551959429910355  0.4997708707068611  0.8534707409162865  1.0000
  O   O22       1.0  0.9217403044693242  0.45295095297554866  0.7959357651938321  1.0000
  O   O23       1.0  0.3447509587208159  0.5002319297284927  0.14655576817847307  1.0000
  O   O24       1.0  0.07816338319333481  0.5470453067847173  0.20407201807419995  1.0000
  O   O25       1.0  0.8622751444640997  0.03121116359098148  0.6479040883701972  1.0000
  O   O26       1.0  0.5683064721445633  0.04445524951781014  0.7021585826250746  1.0000
  O   O27       1.0  0.13772370393756722  0.9687926881694507  0.3520921113786458  1.0000
  O   O28       1.0  0.43169540780953497  0.9555512216031731  0.29783813892974825  1.0000
  O   O29       1.0  0.3110195279483818  0.2924881197901641  0.9954493513700842  1.0000
  O   O30       1.0  0.0312008745955552  0.2562885043899072  0.9336592491438228  1.0000
  O   O31       1.0  0.6889956417764083  0.7075153516345977  0.0045519223901138  1.0000
  O   O32       1.0  0.968817228991938  0.7437136647302225  0.06633802850547003  1.0000
  O   O33       1.0  0.08501578263283699  0.18829070275354803  0.5080167422016189  1.0000
  O   O34       1.0  0.3699492899451187  0.2366853786799936  0.5600078224636962  1.0000
  O   O35       1.0  0.914985968982471  0.8117104617065962  0.4919784602752488  1.0000
  O   O36       1.0  0.6300509729488796  0.7633154043557369  0.4399928786252901  1.0000
  O   O37       1.0  0.1628013194923739  0.3592171084985835  0.3727440167282837  1.0000
  O   O38       1.0  0.2439939455125852  0.4563183242860305  0.33589902579102937  1.0000
  O   O39       1.0  0.8372089119033106  0.640766483052765  0.6272456599517756  1.0000
  O   O40       1.0  0.7559496047680484  0.5436698659389592  0.6640878782991992  1.0000
  O   O41       1.0  0.6589934054934616  0.1392160106364457  0.13539209571349187  1.0000
  O   O42       1.0  0.7578949025803327  0.0398530642284456  0.16256328092872252  1.0000
  O   O43       1.0  0.3410336141310993  0.860786697844908  0.8646027188680068  1.0000
  O   O44       1.0  0.24211576985934613  0.9601486642729782  0.8374344641902101  1.0000
  O   O45       1.0  0.5324688867785383  0.5824670328914863  0.5059631201223098  1.0000
  O   O46       1.0  0.60759280678257  0.5340238059437679  0.40216367471541775  1.0000
  O   O47       1.0  0.4675222450628951  0.4175243021589736  0.49403801259043706  1.0000
  O   O48       1.0  0.39234338513715983  0.4659666852400051  0.5978322153975315  1.0000
  O   O49       1.0  0.0303545336217823  0.9107528430298044  0.9891142335454436  1.0000
  O   O50       1.0  0.10694486688343827  0.9583813557510723  0.09409076673076561  1.0000
  O   O51       1.0  0.9696576122146965  0.08924857439819789  0.0108795123808392  1.0000
  O   O52       1.0  0.8930523357269494  0.04161578338427317  0.905904403565977  1.0000
