data_image0
_chemical_formula_structural       Zn2H30C24N4O10
_chemical_formula_sum              "Zn2 H30 C24 N4 O10"
_cell_length_a       5.210825641623665
_cell_length_b       9.149357372096784
_cell_length_c       16.320214184867137
_cell_angle_alpha    96.83278206229004
_cell_angle_beta     97.26559471176913
_cell_angle_gamma    100.64174848455418

_space_group_name_H-M_alt    "P 1"
_space_group_IT_number       1

loop_
  _space_group_symop_operation_xyz
  'x, y, z'

loop_
  _atom_site_type_symbol
  _atom_site_label
  _atom_site_symmetry_multiplicity
  _atom_site_fract_x
  _atom_site_fract_y
  _atom_site_fract_z
  _atom_site_occupancy
  Zn  Zn1       1.0  0.8666205308192334  0.8975926921622062  0.6405590528161368  1.0000
  Zn  Zn2       1.0  0.13337870794278223  0.10240778421817963  0.3594392733758411  1.0000
  H   H1        1.0  0.20685896175718452  0.7390766327843822  0.739159233539489  1.0000
  H   H2        1.0  0.79314151482275  0.2609272044908977  0.2608381320096668  1.0000
  H   H3        1.0  0.047136255844137116  0.16556617628484824  0.7727813728716768  1.0000
  H   H4        1.0  0.9528661535374284  0.8344376559910601  0.2272160726519559  1.0000
  H   H5        1.0  0.49024034433604424  0.35292539819778324  0.7120318441993589  1.0000
  H   H6        1.0  0.5097649785787226  0.6470705731721152  0.2879676741456123  1.0000
  H   H7        1.0  0.2105105011519585  0.25444331321494223  0.6406164571435227  1.0000
  H   H8        1.0  0.7894917695761094  0.7455549221196733  0.35938369093096867  1.0000
  H   H9        1.0  0.4758888074343872  0.23867946933201986  0.5265328269852674  1.0000
  H   H10       1.0  0.5241076648887671  0.7613187810007036  0.4734670811657864  1.0000
  H   H11       1.0  0.7533227101028644  0.3557575857982728  0.5892567562644615  1.0000
  H   H12       1.0  0.2466810892461312  0.6442395146891188  0.4107427704937692  1.0000
  H   H13       1.0  0.5985416915146047  0.8093692652456356  0.8529936340602333  1.0000
  H   H14       1.0  0.4014525622590667  0.19063348009883901  0.1470052418867809  1.0000
  H   H15       1.0  0.418224063698041  0.25270704600539773  0.8906310580276084  1.0000
  H   H16       1.0  0.5817725270579786  0.7472968241875648  0.10936859918462719  1.0000
  H   H17       1.0  0.27249040057106555  0.4738302849383871  0.5549125806136033  1.0000
  H   H18       1.0  0.7275223374714416  0.5261701908248425  0.4450899828177554  1.0000
  H   H19       1.0  0.1763677028019686  0.5163769427569916  0.6521962021242373  1.0000
  H   H20       1.0  0.8236403511655297  0.4836212947687387  0.34780602458270954  1.0000
  H   H21       1.0  0.882097269877882  0.31969942197981294  0.9428346386070956  1.0000
  H   H22       1.0  0.11789960662597573  0.68029995820077  0.05716597083470279  1.0000
  H   H23       1.0  0.019869950896065795  0.2618268897660698  0.03737082750599539  1.0000
  H   H24       1.0  0.9801245835702874  0.7381713712957565  0.9626296135735899  1.0000
  H   H25       1.0  0.6807140183689598  0.27560482465347047  0.0197845118178748  1.0000
  H   H26       1.0  0.3192817488601563  0.724396803032981  0.9802155815219038  1.0000
  H   H27       1.0  0.24976857094669216  0.7775888557206657  0.5842332647474677  1.0000
  H   H28       1.0  0.7502340989069226  0.22241051519154814  0.4157681975207694  1.0000
  H   H29       1.0  0.12572252994977628  0.8628912622366374  0.5127738100277739  1.0000
  H   H30       1.0  0.8742820929261228  0.13710808075725822  0.4872252806029138  1.0000
  C   C1        1.0  0.6707492226199322  0.13633140635834454  0.6200495966581201  1.0000
  C   C2        1.0  0.32925072123610744  0.8636656926683061  0.3799485443451401  1.0000
  C   C3        1.0  0.26622031574726185  0.851821771163472  0.7740671411899882  1.0000
  C   C4        1.0  0.7337786372669015  0.14818319522929366  0.2259302327724271  1.0000
  C   C5        1.0  0.1747281423639109  0.09083727525185743  0.7932418572161382  1.0000
  C   C6        1.0  0.8252684635575847  0.9091665777518897  0.20675596128707238  1.0000
  C   C7        1.0  0.39725032893829143  0.3360656022537968  0.6464464432837005  1.0000
  C   C8        1.0  0.6027558023378888  0.6639326288118214  0.3535544776427528  1.0000
  C   C9        1.0  0.5422348885940593  0.03739663796194751  0.8822417060539892  1.0000
  C   C10       1.0  0.4577578365586845  0.9626072422297511  0.11775779120928578  1.0000
  C   C11       1.0  0.5757193623095489  0.27042575398917285  0.5914280224155987  1.0000
  C   C12       1.0  0.42428291852883876  0.729572469885966  0.40857089985287587  1.0000
  C   C13       1.0  0.4782791311697709  0.8907764657189434  0.8381079624995775  1.0000
  C   C14       1.0  0.5217166512248285  0.10922514477829992  0.1618902921311758  1.0000
  C   C15       1.0  0.38205637328795217  0.13760450170981642  0.8589701750383939  1.0000
  C   C16       1.0  0.6179398132873574  0.8623982386352794  0.1410287808830972  1.0000
  C   C17       1.0  0.7708900390174308  0.08389538019559241  0.9496122207125665  1.0000
  C   C18       1.0  0.2290971684230812  0.9161040307115657  0.0503886017598489  1.0000
  C   C19       1.0  0.3404610592393739  0.48419948858812506  0.6225409555700168  1.0000
  C   C20       1.0  0.65954546610719  0.5157998837848226  0.3774618924531907  1.0000
  C   C21       1.0  0.5755123629443801  0.6146754032856094  0.6461060407252716  1.0000
  C   C22       1.0  0.4244898875630483  0.38532285496796  0.3538965589612459  1.0000
  C   C23       1.0  0.8450103789435487  0.24485273668557286  0.9899443682719139  1.0000
  C   C24       1.0  0.15498415046764796  0.7551455301059918  0.010056685710679896  1.0000
  N   N1        1.0  0.11816985881946356  0.9506956042709904  0.7508844412691856  1.0000
  N   N2        1.0  0.8818310269963376  0.04930935712240372  0.24911301266770644  1.0000
  N   N3        1.0  0.8928161297255671  0.9773237777589332  0.969104886101121  1.0000
  N   N4        1.0  0.1071663734192896  0.02267341782966531  0.0308980512589017  1.0000
  O   O1        1.0  0.7986238355964377  0.06326328817569052  0.5706372494183256  1.0000
  O   O2        1.0  0.20137457963868136  0.9367349456981909  0.42936151290119534  1.0000
  O   O3        1.0  0.6364289427902963  0.09591728534675781  0.6892735340539602  1.0000
  O   O4        1.0  0.3635690581537931  0.9040798301387414  0.31072575278084  1.0000
  O   O5        1.0  0.7878916964591554  0.6032153953899243  0.6867819770358423  1.0000
  O   O6        1.0  0.21211910372655038  0.39678509110240884  0.31322111932404784  1.0000
  O   O7        1.0  0.5370542834092119  0.7415936667959427  0.6213457632994377  1.0000
  O   O8        1.0  0.46294989989984714  0.2584045864582549  0.3786569163615567  1.0000
  O   O9        1.0  0.08253220026698939  0.806983381796613  0.5604491239689793  1.0000
  O   O10       1.0  0.9174724175537392  0.19301596692702117  0.43955057956470966  1.0000
