data_image0
_chemical_formula_structural       Hg2H32C44I4Br4N12O4
_chemical_formula_sum              "Hg2 H32 C44 I4 Br4 N12 O4"
_cell_length_a       4.394954607126149
_cell_length_b       13.325351585956048
_cell_length_c       22.153726426801224
_cell_angle_alpha    90.02061545691112
_cell_angle_beta     89.99916830201694
_cell_angle_gamma    90.00012145769654

_space_group_name_H-M_alt    "P 1"
_space_group_IT_number       1

loop_
  _space_group_symop_operation_xyz
  'x, y, z'

loop_
  _atom_site_type_symbol
  _atom_site_label
  _atom_site_symmetry_multiplicity
  _atom_site_fract_x
  _atom_site_fract_y
  _atom_site_fract_z
  _atom_site_occupancy
  Hg  Hg1       1.0  0.5000016761004318  0.9999953543630085  0.5000003618976834  1.0000
  Hg  Hg2       1.0  6.943185375999998e-06  0.4999978700042789  0.9999999274561874  1.0000
  H   H1        1.0  0.5938583283871919  0.23717020650496318  0.7227801456890999  1.0000
  H   H2        1.0  0.0938194536525003  0.2628254349271657  0.777211112768633  1.0000
  H   H3        1.0  0.40616947255814034  0.7628295807116884  0.27721410563216853  1.0000
  H   H4        1.0  0.9061719418052262  0.7371765758940896  0.2227863059233641  1.0000
  H   H5        1.0  0.3689401316765597  0.17948841351834943  0.6235308198969207  1.0000
  H   H6        1.0  0.868866199128284  0.3205006753487682  0.876460952988026  1.0000
  H   H7        1.0  0.6311240746701615  0.8205068789929372  0.37646251334733444  1.0000
  H   H8        1.0  0.13112974692990784  0.6794983178914721  0.1235382610642901  1.0000
  H   H9        1.0  0.8449329969867275  0.9107225212830911  0.6372743612648648  1.0000
  H   H10       1.0  0.3449234751982856  0.5892634186304379  0.8627302949731256  1.0000
  H   H11       1.0  0.15508797764864818  0.08926669252065271  0.3627275280039014  1.0000
  H   H12       1.0  0.6550747461363355  0.41073705966104523  0.13727072969746248  1.0000
  H   H13       1.0  0.7728041018615315  0.01717313511799291  0.9711590781835113  1.0000
  H   H14       1.0  0.2727931899195895  0.48282404306021215  0.5288433899010981  1.0000
  H   H15       1.0  0.2271850178817942  0.982831032054861  0.0288491813598952  1.0000
  H   H16       1.0  0.7271822780810241  0.5171696931432308  0.47115625776881837  1.0000
  H   H17       1.0  0.9945633895200174  0.8447481895800235  0.9607785390912866  1.0000
  H   H18       1.0  0.4945453204228513  0.6552499168844506  0.5392207482627782  1.0000
  H   H19       1.0  0.0054257302171479  0.155253726276257  0.0392297128248273  1.0000
  H   H20       1.0  0.5054210463464487  0.3447445974521842  0.46077574227370377  1.0000
  H   H21       1.0  0.857099546687408  0.740192470233879  0.8711353624388564  1.0000
  H   H22       1.0  0.3570916481228537  0.7598085511994979  0.6288620863677892  1.0000
  H   H23       1.0  0.14291460188389488  0.2598117286033741  0.128869285993801  1.0000
  H   H24       1.0  0.6428883707269789  0.24019122808496016  0.3711330677928259  1.0000
  H   H25       1.0  0.5010350535655946  0.8040321818660773  0.7946434725445712  1.0000
  H   H26       1.0  0.0010259191462296  0.69597305031855  0.7053568544407796  1.0000
  H   H27       1.0  0.49898364567842884  0.1959720169729451  0.20536117588133604  1.0000
  H   H28       1.0  0.9989563749562222  0.30403120785891974  0.2946410232762133  1.0000
  H   H29       1.0  0.1357704360730025  0.0552277823643834  0.8075859992040079  1.0000
  H   H30       1.0  0.6357603164046992  0.4447723190262778  0.6924137263012327  1.0000
  H   H31       1.0  0.8642391619873209  0.9447712069243085  0.1924136662122322  1.0000
  H   H32       1.0  0.3642265282682614  0.5552296640953573  0.30758685208690645  1.0000
  C   C1        1.0  0.6495635643574431  0.16347127070104514  0.7041079376378859  1.0000
  C   C2        1.0  0.1495146856268832  0.33652440204453876  0.7958845095624624  1.0000
  C   C3        1.0  0.3504733378569611  0.836523998058631  0.2958881039520875  1.0000
  C   C4        1.0  0.8504767098710743  0.6634806184458313  0.204112016530857  1.0000
  C   C5        1.0  0.5249702761086256  0.1318282214728939  0.6492098261510861  1.0000
  C   C6        1.0  0.024919962133040496  0.3681658458845192  0.8507838887328986  1.0000
  C   C7        1.0  0.4750802781600355  0.8681685560834681  0.350785317735081  1.0000
  C   C8        1.0  0.9750828099925144  0.6318369114231644  0.1492139838688331  1.0000
  C   C9        1.0  0.785862522684198  0.9837343477058128  0.6563387679488528  1.0000
  C   C10       1.0  0.2858425587182865  0.5162583399248888  0.843661572762926  1.0000
  C   C11       1.0  0.21415390139299004  0.016261643786919  0.3436604359033452  1.0000
  C   C12       1.0  0.7141488365715603  0.4837466291265927  0.15634082132496016  1.0000
  C   C13       1.0  0.9114927864014817  0.015654706950528008  0.7111942996010184  1.0000
  C   C14       1.0  0.41147483323419454  0.4843403393031594  0.7888063948578647  1.0000
  C   C15       1.0  0.0885236375677465  0.9843427577220609  0.2888080690254213  1.0000
  C   C16       1.0  0.5885074607763059  0.5156653960110021  0.21119419624917407  1.0000
  C   C17       1.0  0.13395499821712775  0.9484871412930785  0.7432393976722337  1.0000
  C   C18       1.0  0.6339403469033514  0.5515069254878214  0.7567618506122854  1.0000
  C   C19       1.0  0.8660591504375006  0.0515065790980103  0.25676205547704  1.0000
  C   C20       1.0  0.36604194715107496  0.4484973208191363  0.2432373812573019  1.0000
  C   C21       1.0  0.4346896527652078  0.9471927022762544  0.8384388337235008  1.0000
  C   C22       1.0  0.9346840320249113  0.5528083357878161  0.661563349890784  1.0000
  C   C23       1.0  0.5653153945407183  0.0528115163416629  0.16156355780168496  1.0000
  C   C24       1.0  0.06529371131041017  0.44719064953169146  0.3384367669569528  1.0000
  C   C25       1.0  0.5188680748285106  0.0057054724806633005  0.8887757504835035  1.0000
  C   C26       1.0  0.018860490412279798  0.4942937957522844  0.6112234168657835  1.0000
  C   C27       1.0  0.48113242190239447  0.9942935207613318  0.11122346356205531  1.0000
  C   C28       1.0  0.9811218036257258  0.5057044470437974  0.38877579466437606  1.0000
  C   C29       1.0  0.7162615239363743  0.969742901079421  0.9327544453640114  1.0000
  C   C30       1.0  0.21624530525006236  0.5302579913758976  0.5672456786150518  1.0000
  C   C31       1.0  0.28373214664796353  0.030264307419010095  0.0672493105003724  1.0000
  C   C32       1.0  0.7837256120860444  0.46973874658122133  0.432753979231336  1.0000
  C   C33       1.0  0.8387678487086347  0.8736446551714326  0.926703614081525  1.0000
  C   C34       1.0  0.3387585760198562  0.6263533423798718  0.5732947817644956  1.0000
  C   C35       1.0  0.16122582188965137  0.1263618068449759  0.0732996878562346  1.0000
  C   C36       1.0  0.6612214427614164  0.37363892064548304  0.4267017011244292  1.0000
  C   C37       1.0  0.761917691013707  0.8150587435875425  0.8767508457625794  1.0000
  C   C38       1.0  0.2619074875508431  0.6849422000943407  0.6232473370881095  1.0000
  C   C39       1.0  0.2380941823074494  0.18494772634959844  0.1232515533797596  1.0000
  C   C40       1.0  0.7380725312489105  0.31505681688074827  0.37674916868267166  1.0000
  C   C41       1.0  0.5614167012648961  0.8506030204610725  0.8330598164452496  1.0000
  C   C42       1.0  0.0614100238347461  0.6493969975522447  0.666941216195731  1.0000
  C   C43       1.0  0.43859289669157403  0.14939894288519182  0.1669430188300893  1.0000
  C   C44       1.0  0.9385813715807032  0.35060125316103813  0.3330570925525222  1.0000
  I   I1        1.0  0.8733836484047187  0.8419927892406847  0.5076898736551811  1.0000
  I   I2        1.0  0.37338808773967697  0.658003758016612  0.9923057059837602  1.0000
  I   I3        1.0  0.12661684809385323  0.15800314685015593  0.49231564959942625  1.0000
  I   I4        1.0  0.6266192349842894  0.3419952312711986  0.0076939594358619995  1.0000
  Br  Br1       1.0  0.36113498775336694  0.1385049048681068  0.8979202683306653  1.0000
  Br  Br2       1.0  0.8611194186682738  0.36149383079776254  0.6020832966868426  1.0000
  Br  Br3       1.0  0.6388655090358242  0.8614978524387029  0.10207760427444157  1.0000
  Br  Br4       1.0  0.1388651505078258  0.6385021132005736  0.3979213238230201  1.0000
  N   N1        1.0  0.843887405352376  0.10572178999721162  0.7350209666772612  1.0000
  N   N2        1.0  0.34386607610429104  0.394274732416811  0.7649767739461591  1.0000
  N   N3        1.0  0.15612901876093588  0.8942757102869194  0.264977339491395  1.0000
  N   N4        1.0  0.6561207686589654  0.605731022683301  0.2350215602331289  1.0000
  N   N5        1.0  0.5944641869135551  0.0422832348919613  0.6254088491636267  1.0000
  N   N6        1.0  0.0944286244656567  0.4577055897520453  0.8745896067553076  1.0000
  N   N7        1.0  0.4055613385570779  0.9577127684748207  0.37458900052246247  1.0000
  N   N8        1.0  0.9055627709218825  0.5422941539252832  0.1254096098461943  1.0000
  N   N9        1.0  0.22950822981515262  0.9871444316198464  0.7969741403269025  1.0000
  N   N10       1.0  0.7294926158790673  0.5128542158323626  0.7030263880701426  1.0000
  N   N11       1.0  0.7705059188259323  0.0128560348072995  0.2030282384726192  1.0000
  N   N12       1.0  0.2704919535076087  0.4871485295977608  0.2969728387112127  1.0000
  O   O1        1.0  0.2181339265170408  0.8685262072295145  0.7203050516596221  1.0000
  O   O2        1.0  0.7181249322704628  0.6314739243708942  0.7796964183585047  1.0000
  O   O3        1.0  0.7818824974542478  0.13147200788193913  0.2796973195092392  1.0000
  O   O4        1.0  0.28187556449903167  0.3685333276553919  0.2203023722695718  1.0000
