data_image0
_chemical_formula_structural       Na4H32C24S8O14
_chemical_formula_sum              "Na4 H32 C24 S8 O14"
_cell_length_a       6.424784253259463
_cell_length_b       10.957824967726157
_cell_length_c       13.717155248268039
_cell_angle_alpha    103.13619682733352
_cell_angle_beta     103.54630648383008
_cell_angle_gamma    89.9875086626456

_space_group_name_H-M_alt    "P 1"
_space_group_IT_number       1

loop_
  _space_group_symop_operation_xyz
  'x, y, z'

loop_
  _atom_site_type_symbol
  _atom_site_label
  _atom_site_symmetry_multiplicity
  _atom_site_fract_x
  _atom_site_fract_y
  _atom_site_fract_z
  _atom_site_occupancy
  Na  Na1       1.0  0.2653986674169034  0.43978855486309953  0.018913124464937404  1.0000
  Na  Na2       1.0  0.24646462559308452  0.0602432815792184  0.981013880653471  1.0000
  Na  Na3       1.0  0.7346005689191628  0.5602132382024008  0.9810862109756258  1.0000
  Na  Na4       1.0  0.7535361117950858  0.9397575630670613  0.018986903561490423  1.0000
  H   H1        1.0  0.3243014733571314  0.4617547531796973  0.7491355471761593  1.0000
  H   H2        1.0  0.5750821254925285  0.03829224932822939  0.2512553785633855  1.0000
  H   H3        1.0  0.6756991763277967  0.5382451572370142  0.2508643254272584  1.0000
  H   H4        1.0  0.42491505119935613  0.9617048520268553  0.7487428606082888  1.0000
  H   H5        1.0  0.04697807439664099  0.4839827189782965  0.5943359381738986  1.0000
  H   H6        1.0  0.45259037792524043  0.016528558222219693  0.40615829956127675  1.0000
  H   H7        1.0  0.9530224916316216  0.5160162615528562  0.40566229504612045  1.0000
  H   H8        1.0  0.5474067866269153  0.9834685301008076  0.5938421229259347  1.0000
  H   H9        1.0  0.8286016997378168  0.2945058356209244  0.4785112917705162  1.0000
  H   H10       1.0  0.3500452837149979  0.2062281840900581  0.5217544883969936  1.0000
  H   H11       1.0  0.1714003673425495  0.7054921964910078  0.521488390223908  1.0000
  H   H12       1.0  0.6499537569817022  0.7937717187961794  0.4782466626797159  1.0000
  H   H13       1.0  0.8748523616105361  0.08746440028485128  0.5233002581439763  1.0000
  H   H14       1.0  0.35162810823151597  0.41313754563230987  0.4767063742354622  1.0000
  H   H15       1.0  0.12514988087631454  0.912535500286239  0.4767012470735351  1.0000
  H   H16       1.0  0.6483724416104336  0.5868614175227549  0.5232947700719492  1.0000
  H   H17       1.0  0.15157226468965493  0.066067439002282  0.67897486146488  1.0000
  H   H18       1.0  0.4727814281260693  0.4340870228758789  0.3209490513975197  1.0000
  H   H19       1.0  0.8484300735935905  0.9339334044864243  0.3210260998204787  1.0000
  H   H20       1.0  0.5272145902335339  0.5659147551286947  0.6790528409896409  1.0000
  H   H21       1.0  0.008395144418678096  0.5314482753644612  0.8361211888949143  1.0000
  H   H22       1.0  0.17234632494159285  0.9686102458809597  0.16380609909587202  1.0000
  H   H23       1.0  0.9916039084177443  0.4685516405538407  0.16387777886625796  1.0000
  H   H24       1.0  0.8276544124465774  0.031390598765319994  0.8361946851190892  1.0000
  H   H25       1.0  0.9071470765772817  0.3975047814697205  0.8307684514221592  1.0000
  H   H26       1.0  0.0762139927361289  0.10253335537595379  0.16912176761915282  1.0000
  H   H27       1.0  0.09285357310764647  0.6024951289469839  0.16923142118125156  1.0000
  H   H28       1.0  0.9237883415005468  0.8974674837687285  0.8308799214380542  1.0000
  H   H29       1.0  0.9332350758201926  0.23880219504738412  0.9390524295794194  1.0000
  H   H30       1.0  0.9940456975865147  0.2612651828476799  0.0608003806472084  1.0000
  H   H31       1.0  0.06676557791131899  0.7611977197133439  0.060946715252143076  1.0000
  H   H32       1.0  0.005953446999733105  0.7387356716442213  0.9391987709536522  1.0000
  C   C1        1.0  0.25790995383012216  0.26236387595562843  0.7197552562290852  1.0000
  C   C2        1.0  0.5380906050709059  0.2377013020225434  0.2804107046321533  1.0000
  C   C3        1.0  0.7420939016915399  0.7376360364899452  0.2802442427432794  1.0000
  C   C4        1.0  0.4619095939580761  0.7622939242142192  0.7195867932290766  1.0000
  C   C5        1.0  0.22880566494296772  0.38014192035944905  0.6974101082496063  1.0000
  C   C6        1.0  0.531381548123413  0.12002894318160878  0.30290141684171346  1.0000
  C   C7        1.0  0.771194988788537  0.6198579944012791  0.3025890365819635  1.0000
  C   C8        1.0  0.4686156123821662  0.8799681407974017  0.697099733417353  1.0000
  C   C9        1.0  0.0722974546108546  0.39144305693336157  0.6106478632268163  1.0000
  C   C10       1.0  0.4616005286448512  0.10900760168438944  0.3897227125129348  1.0000
  C   C11       1.0  0.9277048917655505  0.608557795243385  0.38935164251485327  1.0000
  C   C12       1.0  0.5383968315466774  0.8909913768179005  0.6102758943381372  1.0000
  C   C13       1.0  0.947956298315532  0.28591292557862846  0.5470761363392356  1.0000
  C   C14       1.0  0.4008591005176569  0.2146873901605133  0.4531751803089961  1.0000
  C   C15       1.0  0.052044159776599506  0.7140850990028439  0.4529248241284805  1.0000
  C   C16       1.0  0.5991369218885226  0.7853143921880773  0.5468259843063095  1.0000
  C   C17       1.0  0.9757191084916317  0.16903587225752398  0.571665891193895  1.0000
  C   C18       1.0  0.40411482002113525  0.33145527973942274  0.4284433386941656  1.0000
  C   C19       1.0  0.024284655280205025  0.830963101614458  0.4283334239387742  1.0000
  C   C20       1.0  0.595882739856343  0.6685455932861399  0.571552724748905  1.0000
  C   C21       1.0  0.13081470182338964  0.1563778565630756  0.6584200990261805  1.0000
  C   C22       1.0  0.4725349864895278  0.3438644806801249  0.3416435918982473  1.0000
  C   C23       1.0  0.8691859397683857  0.8436220451655885  0.3415812291209263  1.0000
  C   C24       1.0  0.5274623575156882  0.65613448044607  0.6583579260402174  1.0000
  S   S1        1.0  0.7235064414376354  0.2077171435520526  0.7730707363109913  1.0000
  S   S2        1.0  0.9502145300614873  0.29209428039089846  0.22683567865022516  1.0000
  S   S3        1.0  0.2764958968456099  0.7922836999366536  0.22693022497437443  1.0000
  S   S4        1.0  0.04977961620015489  0.7079046873944745  0.7731647573755893  1.0000
  S   S5        1.0  0.46397648649310247  0.2469525399507261  0.8285156342069441  1.0000
  S   S6        1.0  0.635142484731908  0.2529373220016423  0.1715403211160051  1.0000
  S   S7        1.0  0.5360242508950677  0.7530483046955606  0.1714851500080171  1.0000
  S   S8        1.0  0.364855054912681  0.7470635293038155  0.8284593811863061  1.0000
  O   O1        1.0  0.3909294321327296  0.14174198452571565  0.8637002545471333  1.0000
  O   O2        1.0  0.5268112758593161  0.3581358693838651  0.13634115241696065  1.0000
  O   O3        1.0  0.6090712135056224  0.8582579215469647  0.13630034582813258  1.0000
  O   O4        1.0  0.4731862637852799  0.6418649819215927  0.8636585498853505  1.0000
  O   O5        1.0  0.4949336109513069  0.3690818564848469  0.9035148352192053  1.0000
  O   O6        1.0  0.5908720211124106  0.13079355481099234  0.09658340017431749  1.0000
  O   O7        1.0  0.5050671345300161  0.6309189968494733  0.09648449345205985  1.0000
  O   O8        1.0  0.409125697985246  0.8692091692976402  0.9034173975792399  1.0000
  O   O9        1.0  0.9782557350159989  0.475508391860721  0.8788024052302105  1.0000
  O   O10       1.0  0.099481293926253  0.024537727093104384  0.1211184476941156  1.0000
  O   O11       1.0  0.021743313773853894  0.5244915197135638  0.12119729030280267  1.0000
  O   O12       1.0  0.9005194434619171  0.9754631175531825  0.8788823365208458  1.0000
  O   O13       1.0  0.05537486063426661  0.25007071719910096  0.9999402270960901  1.0000
  O   O14       1.0  0.9446273899457368  0.7499291920600298  5.982257772527298e-05  1.0000
