data_image0
_chemical_formula_structural       CdH14C16N12O8
_chemical_formula_sum              "Cd1 H14 C16 N12 O8"
_cell_length_a       7.257448978690458
_cell_length_b       7.476183093595042
_cell_length_c       12.041772552714201
_cell_angle_alpha    81.79062282932296
_cell_angle_beta     76.29704317297794
_cell_angle_gamma    59.85351265607118

_space_group_name_H-M_alt    "P 1"
_space_group_IT_number       1

loop_
  _space_group_symop_operation_xyz
  'x, y, z'

loop_
  _atom_site_type_symbol
  _atom_site_label
  _atom_site_symmetry_multiplicity
  _atom_site_fract_x
  _atom_site_fract_y
  _atom_site_fract_z
  _atom_site_occupancy
  Cd  Cd1       1.0  0.4999970213335629  0.5000033958013929  0.9999986834023886  1.0000
  H   H1        1.0  0.5023689370556781  0.130460057438853  0.14423174353600396  1.0000
  H   H2        1.0  0.49763696631399057  0.8695439316349505  0.8557675304997617  1.0000
  H   H3        1.0  0.5481205496553089  0.6159327725388691  0.315068785910654  1.0000
  H   H4        1.0  0.45187061767818915  0.3840638059667967  0.684929057889093  1.0000
  H   H5        1.0  0.3522768845708912  0.6646419707486471  0.5164918068591788  1.0000
  H   H6        1.0  0.6477154888843303  0.33536070831521403  0.4835070175503517  1.0000
  H   H7        1.0  0.18008284227973093  0.3091321145642282  0.4864369045374133  1.0000
  H   H8        1.0  0.819934186925096  0.6908609678037294  0.5135616885226498  1.0000
  H   H9        1.0  0.6553146398639381  0.6853248865847664  0.12006783934536006  1.0000
  H   H10       1.0  0.34467842066855087  0.3146792582604902  0.8799340867818727  1.0000
  H   H11       1.0  0.841229906512531  0.44306846518237825  0.10000350395128525  1.0000
  H   H12       1.0  0.15876327306778393  0.5569326042637783  0.8999986612957116  1.0000
  H   H13       1.0  0.7623336437225279  0.9012028286949199  0.034868877207124255  1.0000
  H   H14       1.0  0.23765805898376166  0.09879835338877999  0.9651285067199921  1.0000
  C   C1        1.0  0.3654349539351998  0.1349066706234012  0.33414165556836656  1.0000
  C   C2        1.0  0.6345734671145777  0.865086603988722  0.6658539987193707  1.0000
  C   C3        1.0  0.4684161265959474  0.9371906477373885  0.2831021874310196  1.0000
  C   C4        1.0  0.5315794679449795  0.0628027514473999  0.7168977801834729  1.0000
  C   C5        1.0  0.4680294920037298  0.7671078961366647  0.3529448042796163  1.0000
  C   C6        1.0  0.5319658481132308  0.23289168504508242  0.6470530238600745  1.0000
  C   C7        1.0  0.3592179756863631  0.793626160781123  0.46464580146151485  1.0000
  C   C8        1.0  0.6407807800739532  0.2063779390980898  0.53535365388651  1.0000
  C   C9        1.0  0.2512425069166542  0.9913550156106152  0.5139483123620252  1.0000
  C   C10       1.0  0.7487579066641813  0.008642930028607105  0.4860505882218931  1.0000
  C   C11       1.0  0.2587003838316022  0.15875296691519478  0.44762379406112984  1.0000
  C   C12       1.0  0.7412969930246617  0.8412510584088935  0.5523808473787355  1.0000
  C   C13       1.0  0.37542607141732287  0.31547976395980737  0.27120284605221207  1.0000
  C   C14       1.0  0.6245736067987268  0.6845395222803886  0.7288043481051077  1.0000
  C   C15       1.0  0.0013595677521678797  0.9568009709480592  0.7946882974847967  1.0000
  C   C16       1.0  0.9986399696407418  0.0432015661116196  0.20531200684775552  1.0000
  N   N1        1.0  0.1367023805545813  0.03849898445838561  0.6242667562570077  1.0000
  N   N2        1.0  0.8633006588728451  0.9615050582972203  0.3757320919330739  1.0000
  N   N3        1.0  0.7884762410227424  0.14484493839454157  0.9376646090359911  1.0000
  N   N4        1.0  0.21151328481857234  0.8551577631523414  0.06233545076314333  1.0000
  N   N5        1.0  0.8983247768186685  0.1526369461453925  0.8354618233008111  1.0000
  N   N6        1.0  0.10166970343869525  0.8473671952580444  0.16453906982279423  1.0000
  N   N7        1.0  0.8265003236221848  0.9499053194105896  0.9586344765292623  1.0000
  N   N8        1.0  0.1734956790795508  0.0500957743507158  0.041363961475198587  1.0000
  N   N9        1.0  0.9588391973879951  0.8268124772828499  0.872946561943813  1.0000
  N   N10       1.0  0.041158903951711144  0.17319009441742136  0.12705311415707854  1.0000
  N   N11       1.0  0.12797435714112748  0.8883575632083518  0.6880931485845778  1.0000
  N   N12       1.0  0.872023752362736  0.11164499289252919  0.311907358133965  1.0000
  O   O1        1.0  0.32197391217467713  0.47684487341351905  0.3135436177952613  1.0000
  O   O2        1.0  0.6780468551279598  0.5231265494820646  0.6864612280370181  1.0000
  O   O3        1.0  0.4572033784435448  0.2847556841916088  0.1559779480893582  1.0000
  O   O4        1.0  0.5428091698193496  0.7152435281011976  0.8440249269773404  1.0000
  O   O5        1.0  0.5570233051189606  0.9146683248495578  0.1727445425899106  1.0000
  O   O6        1.0  0.44297411730764225  0.08533276546993562  0.8272528624109228  1.0000
  O   O7        1.0  0.7241574600127405  0.5653486744820171  0.0675039508481206  1.0000
  O   O8        1.0  0.27583353453843523  0.43465393002671965  0.9325000596532504  1.0000
