data_image0
_chemical_formula_structural       Cd2H12C12S4N20
_chemical_formula_sum              "Cd2 H12 C12 S4 N20"
_cell_length_a       5.5370772330643465
_cell_length_b       9.973378639774577
_cell_length_c       10.956066028888577
_cell_angle_alpha    101.89095996004855
_cell_angle_beta     89.99960631242038
_cell_angle_gamma    89.99974845807763

_space_group_name_H-M_alt    "P 1"
_space_group_IT_number       1

loop_
  _space_group_symop_operation_xyz
  'x, y, z'

loop_
  _atom_site_type_symbol
  _atom_site_label
  _atom_site_symmetry_multiplicity
  _atom_site_fract_x
  _atom_site_fract_y
  _atom_site_fract_z
  _atom_site_occupancy
  Cd  Cd1       1.0  0.49998802322117797  0.5000010758467895  0.4999956676484985  1.0000
  Cd  Cd2       1.0  0.9999977185274175  0.9999929023879872  0.9999950400778986  1.0000
  H   H1        1.0  0.9794156322110652  0.5430374483668102  0.28370013287228346  1.0000
  H   H2        1.0  0.47943809884132077  0.9569468911953434  0.21629398878096137  1.0000
  H   H3        1.0  0.0205604142456508  0.45695546321179853  0.7162930835113102  1.0000
  H   H4        1.0  0.5205704556870145  0.043048037595234206  0.7837060031529006  1.0000
  H   H5        1.0  0.14080037232442782  0.6175742613508036  0.958376484270346  1.0000
  H   H6        1.0  0.6408262363435568  0.8824374801327296  0.5416297794065983  1.0000
  H   H7        1.0  0.8591883161524265  0.38242376886204005  0.04161862528497552  1.0000
  H   H8        1.0  0.3591985721281574  0.11758203099695662  0.4583767466084083  1.0000
  H   H9        1.0  0.8857158647916491  0.6396852450310321  0.05870769054281771  1.0000
  H   H10       1.0  0.38575019634975405  0.8603219761426362  0.44129751634988423  1.0000
  H   H11       1.0  0.11426379365875759  0.36031381899400133  0.9412857915579238  1.0000
  H   H12       1.0  0.6142872541367553  0.13969648287235967  0.5587142845897901  1.0000
  C   C1        1.0  0.15783256423464562  0.5596160777775979  0.24838201477176372  1.0000
  C   C2        1.0  0.6578623574843546  0.9403653876275159  0.25162267142279404  1.0000
  C   C3        1.0  0.8421434822226033  0.44037375071346924  0.7516124365536143  1.0000
  C   C4        1.0  0.3421732870657905  0.059626398561967206  0.7483904096991693  1.0000
  C   C5        1.0  0.04107211481389331  0.5736977772884729  0.0270232911119592  1.0000
  C   C6        1.0  0.541120555457745  0.9263077498076416  0.47298000499187515  1.0000
  C   C7        1.0  0.9589093496282146  0.4263033314524023  0.9729714953857639  1.0000
  C   C8        1.0  0.45891870105241134  0.07371277679236239  0.5270285409979039  1.0000
  C   C9        1.0  0.0010651454748896  0.3307495481278409  0.43063936783639184  1.0000
  C   C10       1.0  0.501062995961057  0.16924328056587976  0.06936384399149632  1.0000
  C   C11       1.0  0.9989199309708283  0.6692494975911176  0.5693577617307427  1.0000
  C   C12       1.0  0.49892569253939456  0.830753738721846  0.9306283336900448  1.0000
  S   S1        1.0  0.7555162046528849  0.29344312313529025  0.34918656217441685  1.0000
  S   S2        1.0  0.2555230249411906  0.2065435324983157  0.15082283143456723  1.0000
  S   S3        1.0  0.24443997569536438  0.7065497656135235  0.6508112135967963  1.0000
  S   S4        1.0  0.7444764995598093  0.7934452347089193  0.8491787185320092  1.0000
  N   N1        1.0  0.36565835301635013  0.5692077345871311  0.3100603171564488  1.0000
  N   N2        1.0  0.8656818456657404  0.9307790777573998  0.18994013484705619  1.0000
  N   N3        1.0  0.6343231114287703  0.43078823719911696  0.6899362236211246  1.0000
  N   N4        1.0  0.13433032088094168  0.069214826379401  0.8100596608137423  1.0000
  N   N5        1.0  0.5398933729328165  0.5929073245824766  0.2289520863030887  1.0000
  N   N6        1.0  0.03991356220671349  0.9070879699235948  0.27104742829829587  1.0000
  N   N7        1.0  0.4600935095001618  0.40709479049893815  0.7710465439266798  1.0000
  N   N8        1.0  0.9601004103355776  0.0929100373699612  0.7289522405520472  1.0000
  N   N9        1.0  0.4449956669517973  0.5981507327678557  0.12197241385351282  1.0000
  N   N10       1.0  0.9450184968238773  0.9018521548568187  0.378031764848771  1.0000
  N   N11       1.0  0.5549912155072718  0.4018483175213561  0.8780238038405416  1.0000
  N   N12       1.0  0.0550045056916275  0.09815711438403699  0.6219718866440118  1.0000
  N   N13       1.0  0.20435064851395882  0.5773638863302679  0.1321634041553992  1.0000
  N   N14       1.0  0.7043771095269163  0.9226389671487779  0.3678342703863393  1.0000
  N   N15       1.0  0.7956416519537227  0.42263207171298955  0.8678358722080759  1.0000
  N   N16       1.0  0.2956495050639134  0.07737240169036141  0.6321597430672129  1.0000
  N   N17       1.0  0.17968415226255266  0.3573402848537485  0.49043504611939437  1.0000
  N   N18       1.0  0.6796902250318836  0.14266097069418754  0.009586524948758805  1.0000
  N   N19       1.0  0.8203117601132774  0.6426638200431614  0.5095758309250442  1.0000
  N   N20       1.0  0.32031652339561123  0.8573349187129011  0.9904264294257104  1.0000
