data_image0
_chemical_formula_structural       Mn2H16C24N4O12
_chemical_formula_sum              "Mn2 H16 C24 N4 O12"
_cell_length_a       5.644782757303207
_cell_length_b       7.423192658098381
_cell_length_c       15.812636327115001
_cell_angle_alpha    92.31097718936108
_cell_angle_beta     89.99549056724625
_cell_angle_gamma    112.3743019175529

_space_group_name_H-M_alt    "P 1"
_space_group_IT_number       1

loop_
  _space_group_symop_operation_xyz
  'x, y, z'

loop_
  _atom_site_type_symbol
  _atom_site_label
  _atom_site_symmetry_multiplicity
  _atom_site_fract_x
  _atom_site_fract_y
  _atom_site_fract_z
  _atom_site_occupancy
  Mn  Mn1       1.0  0.629647791563201  0.0006886865396395988  0.2500198447113533  1.0000
  Mn  Mn2       1.0  0.37041149007407614  0.9993072209188795  0.7499824877241823  1.0000
  H   H1        1.0  0.6007868675925251  0.8470294526556542  0.0390424879924538  1.0000
  H   H2        1.0  0.7529655046697171  0.15432670175273697  0.46075367368879233  1.0000
  H   H3        1.0  0.3992455314184085  0.1529799715694864  0.9609513541444417  1.0000
  H   H4        1.0  0.24695238209294246  0.8456734073198502  0.5392531890932803  1.0000
  H   H5        1.0  0.8669878910228305  0.7401781257726084  0.9400670943823928  1.0000
  H   H6        1.0  0.12592650576772968  0.26015097648818397  0.559772037964841  1.0000
  H   H7        1.0  0.13303030735492163  0.259841841385878  0.05991944274210682  1.0000
  H   H8        1.0  0.8739843952051769  0.7398634911331212  0.4402402744590718  1.0000
  H   H9        1.0  0.9356693395878821  0.3678789449274971  0.13676782873304216  1.0000
  H   H10       1.0  0.5683242643591269  0.6329610353074525  0.3633762458213355  1.0000
  H   H11       1.0  0.06436614094393173  0.6321224551303998  0.863209350133751  1.0000
  H   H12       1.0  0.43161423003059685  0.36702008812553527  0.6366307354198356  1.0000
  H   H13       1.0  0.671942712072763  0.49372614858380337  0.22677615217104832  1.0000
  H   H14       1.0  0.1787359834778854  0.5079589164062667  0.2733026231837813  1.0000
  H   H15       1.0  0.32809293469857437  0.5062720567012561  0.7732072651373445  1.0000
  H   H16       1.0  0.8212031186861637  0.4920163469140418  0.7267048314427529  1.0000
  C   C1        1.0  0.10594091796818336  0.9454453153797926  0.2921750973008202  1.0000
  C   C2        1.0  0.16117019492405396  0.05601976946349649  0.20794222454389916  1.0000
  C   C3        1.0  0.8941016268844136  0.05453133372895279  0.7078336683772337  1.0000
  C   C4        1.0  0.8388811260612455  0.9439744025567262  0.7920663853175827  1.0000
  C   C5        1.0  0.6827751108807403  0.7420781464653242  0.05556663622676441  1.0000
  C   C6        1.0  0.9401209125096983  0.2592560368177955  0.44433671733160923  1.0000
  C   C7        1.0  0.3172683790371947  0.25793573370214756  0.9444254302854775  1.0000
  C   C8        1.0  0.05979492714276801  0.7407541395053556  0.555673581358832  1.0000
  C   C9        1.0  0.8300336194731557  0.678262588887442  0.002350871610857998  1.0000
  C   C10       1.0  0.15116217026087503  0.3224602969854545  0.49756747463847273  1.0000
  C   C11       1.0  0.1699998203973009  0.32175597353509017  0.9976343635455012  1.0000
  C   C12       1.0  0.8487480005750712  0.677552712715304  0.5024447981232287  1.0000
  C   C13       1.0  0.9260539240019836  0.5382581044177497  0.028110718135607705  1.0000
  C   C14       1.0  0.38763003512043065  0.46219730374217943  0.47189493061603127  1.0000
  C   C15       1.0  0.07397949493041975  0.4617533350258113  0.9718705284026046  1.0000
  C   C16       1.0  0.6122906063597497  0.537801235384684  0.528114419827155  1.0000
  C   C17       1.0  0.8694511290765305  0.4747457789488506  0.11121272085851072  1.0000
  C   C18       1.0  0.3949016604897152  0.5262319589352913  0.3888746019756085  1.0000
  C   C19       1.0  0.13057574760171056  0.525252594939566  0.8887669051937552  1.0000
  C   C20       1.0  0.6050295015512005  0.47375928832644104  0.6111345512411293  1.0000
  C   C21       1.0  0.7223532628669956  0.5420630867910886  0.16294484773378315  1.0000
  C   C22       1.0  0.1805226043999325  0.4593713790676118  0.3371035106010894  1.0000
  C   C23       1.0  0.27768412633157874  0.45793506248138266  0.8370398332362754  1.0000
  C   C24       1.0  0.8194088832619852  0.5406169799351231  0.6629049316637676  1.0000
  N   N1        1.0  0.626708475600175  0.6722865285792707  0.134778886408256  1.0000
  N   N2        1.0  0.9542996983860946  0.32927134761555266  0.36516573986699546  1.0000
  N   N3        1.0  0.37333745145467384  0.32772160265229644  0.8652111265727457  1.0000
  N   N4        1.0  0.045631882660003835  0.6707242736906236  0.6348435322007904  1.0000
  O   O1        1.0  0.8838180034683488  0.9046726932358025  0.3227312077362683  1.0000
  O   O2        1.0  0.9799044254277972  0.09714063304951988  0.17756896930190186  1.0000
  O   O3        1.0  0.1162362090863382  0.09532725473683001  0.6772788243001315  1.0000
  O   O4        1.0  0.02016483825887839  0.9028823067075601  0.8224492787574748  1.0000
  O   O5        1.0  0.2832073175544352  0.9042231755683615  0.32396329839799887  1.0000
  O   O6        1.0  0.379376305789762  0.0969219659889475  0.1759831306001303  1.0000
  O   O7        1.0  0.7168250114203687  0.09575075416753978  0.6760409649364691  1.0000
  O   O8        1.0  0.6206689128846107  0.9030706374995459  0.8240279662446073  1.0000
  O   O9        1.0  0.4796542435250045  0.732058104959897  0.18469311458519405  1.0000
  O   O10       1.0  0.7475482346928856  0.26961773446314646  0.3151875197649759  1.0000
  O   O11       1.0  0.5204077489529053  0.2679467453589622  0.8153050333467038  1.0000
  O   O12       1.0  0.2523936072902442  0.7303665274472944  0.684814486831826  1.0000
