data_image0
_chemical_formula_structural       Al4H44C64N8O20
_chemical_formula_sum              "Al4 H44 C64 N8 O20"
_cell_length_a       6.66282064265009
_cell_length_b       23.7950981504798
_cell_length_c       25.432723652096335
_cell_angle_alpha    90.1489314810863
_cell_angle_beta     89.83798170752182
_cell_angle_gamma    89.86777125049278

_space_group_name_H-M_alt    "P 1"
_space_group_IT_number       1

loop_
  _space_group_symop_operation_xyz
  'x, y, z'

loop_
  _atom_site_type_symbol
  _atom_site_label
  _atom_site_symmetry_multiplicity
  _atom_site_fract_x
  _atom_site_fract_y
  _atom_site_fract_z
  _atom_site_occupancy
  Al  Al1       1.0  0.9943491698695298  0.003618532106045799  0.49550806063909664  1.0000
  Al  Al2       1.0  0.49358032943758445  0.005261921203782499  0.4939733687926591  1.0000
  Al  Al3       1.0  0.989931401182666  0.5043965234891984  0.9945686452278795  1.0000
  Al  Al4       1.0  0.4906249092291191  0.5030775173305668  0.9952570456433423  1.0000
  H   H1        1.0  0.2406590130299833  0.07477718074255077  0.5139939939847197  1.0000
  H   H2        1.0  0.7380708689391824  0.9356075812950161  0.5174243386639716  1.0000
  H   H3        1.0  0.23734762103255488  0.4325603279104015  0.011978494010598703  1.0000
  H   H4        1.0  0.7358114956821638  0.572251188642596  0.0182876692381555  1.0000
  H   H5        1.0  0.4412948643759337  0.41649098353318675  0.1381558268678731  1.0000
  H   H6        1.0  0.458757755954629  0.3528484206402849  0.21614799081612557  1.0000
  H   H7        1.0  0.05754358187619601  0.37875260578818615  0.10188259875216939  1.0000
  H   H8        1.0  0.45284009335249203  0.10925905482044837  0.363077351535658  1.0000
  H   H9        1.0  0.0763537136310433  0.13386682864201294  0.3996041291211015  1.0000
  H   H10       1.0  0.08825856469241701  0.21567986250017404  0.3376599828860734  1.0000
  H   H11       1.0  0.9278472237785778  0.58902094844548  0.8596787978189794  1.0000
  H   H12       1.0  0.9172740287750186  0.6535829762670315  0.7819237519547643  1.0000
  H   H13       1.0  0.5504247814323335  0.6289485579424932  0.882855287479849  1.0000
  H   H14       1.0  0.9328551684144272  0.9059039535811233  0.6288812363589571  1.0000
  H   H15       1.0  0.5468618037518596  0.8663261747569561  0.5915115008602996  1.0000
  H   H16       1.0  0.5387054522188349  0.7871437320423311  0.6557297934693764  1.0000
  H   H17       1.0  0.5494273058332695  0.5840148124605802  0.1357466041394986  1.0000
  H   H18       1.0  0.5554250335960376  0.6450890223239367  0.21601540456465781  1.0000
  H   H19       1.0  0.9289754269362122  0.626614560584059  0.1115617949494592  1.0000
  H   H20       1.0  0.5568411742109874  0.8970982534890053  0.36736046063071376  1.0000
  H   H21       1.0  0.9409495311897872  0.863691383251641  0.40672335618065614  1.0000
  H   H22       1.0  0.9408468267908744  0.781647075925633  0.3447853190968501  1.0000
  H   H23       1.0  0.44541174004060485  0.3624363814868445  0.9030112642119549  1.0000
  H   H24       1.0  0.4615993155459607  0.27985666667164816  0.8418737258299133  1.0000
  H   H25       1.0  0.0613616028239008  0.4008364920504519  0.8679322813926974  1.0000
  H   H26       1.0  0.44005916663594746  0.13144131510573934  0.6120616341001012  1.0000
  H   H27       1.0  0.0612258095446734  0.08622980271621114  0.6301463430319885  1.0000
  H   H28       1.0  0.0809718169004157  0.145971317304479  0.7112317512448244  1.0000
  H   H29       1.0  0.10574160975458109  0.2757493817532718  0.20777446001107344  1.0000
  H   H30       1.0  0.22597634160331379  0.306675552592189  0.1550613495076263  1.0000
  H   H31       1.0  0.4552985206152301  0.21581207144489406  0.25927908732175103  1.0000
  H   H32       1.0  0.3195806286561478  0.16245553753429215  0.2874893974218935  1.0000
  H   H33       1.0  0.5531731424258978  0.7362702957700049  0.7798136096601453  1.0000
  H   H34       1.0  0.6884682927683913  0.7066578854445353  0.8302659754241051  1.0000
  H   H35       1.0  0.9003613151789905  0.7999156106528813  0.7324872413151197  1.0000
  H   H36       1.0  0.7771705531089736  0.854456436383657  0.7020074816478825  1.0000
  H   H37       1.0  0.9168139127814001  0.7273613739098149  0.2205294771779265  1.0000
  H   H38       1.0  0.783581109078831  0.6999137180855325  0.1683945634062383  1.0000
  H   H39       1.0  0.5751165515617984  0.7882408252703141  0.26540404930285894  1.0000
  H   H40       1.0  0.7035430021897895  0.8427891351873169  0.2942731292714882  1.0000
  H   H41       1.0  0.10384011557422212  0.2908589948079338  0.7675364721778453  1.0000
  H   H42       1.0  0.2232576113886466  0.34666681788018366  0.7969281649288079  1.0000
  H   H43       1.0  0.4508500779004335  0.23141578174669764  0.7214851924828097  1.0000
  H   H44       1.0  0.31107620273300546  0.20657370502907915  0.6697831978393509  1.0000
  C   C1        1.0  0.7402816376202991  0.07171958420738628  0.5673331179847452  1.0000
  C   C2        1.0  0.7538628519499254  0.07149309164982039  0.42427451695375856  1.0000
  C   C3        1.0  0.2513091370874889  0.932609067724314  0.4280451394134418  1.0000
  C   C4        1.0  0.23858124038559944  0.9356296691580533  0.5660850820831556  1.0000
  C   C5        1.0  0.748134496923015  0.4336805597196331  0.9265517281395077  1.0000
  C   C6        1.0  0.7391806150746448  0.43675116975643374  0.0676253929498927  1.0000
  C   C7        1.0  0.23570123630847917  0.5686696474271142  0.0693960248465402  1.0000
  C   C8        1.0  0.24527154055010666  0.5687579542686618  0.9226350429804527  1.0000
  C   C9        1.0  0.748084676905023  0.39990134913347214  0.11493951796083479  1.0000
  C   C10       1.0  0.5778435958825411  0.3932394101055009  0.1471628482029033  1.0000
  C   C11       1.0  0.5882506963901334  0.357885661680491  0.19033951801745994  1.0000
  C   C12       1.0  0.7647618696073836  0.3274801907084352  0.20173937004302903  1.0000
  C   C13       1.0  0.9390341402640345  0.33545596021291146  0.16987156992847474  1.0000
  C   C14       1.0  0.9267860744532186  0.3720982231950742  0.1269253244746835  1.0000
  C   C15       1.0  0.7707917365686187  0.2876907292110146  0.24272359016602255  1.0000
  C   C16       1.0  0.7852040989996425  0.2509533617197163  0.27621252209319647  1.0000
  C   C17       1.0  0.7805584329909865  0.20672117766051187  0.31305534760738146  1.0000
  C   C18       1.0  0.5979282863632989  0.17611764359401857  0.319569943493029  1.0000
  C   C19       1.0  0.5919167378948345  0.13232829454663175  0.3563372008632228  1.0000
  C   C20       1.0  0.7633521656768211  0.11733870974182986  0.38444630570998584  1.0000
  C   C21       1.0  0.9448885994381441  0.14642813258562626  0.37710253582447  1.0000
  C   C22       1.0  0.9510568388370544  0.19133272299362852  0.3425062882479181  1.0000
  C   C23       1.0  0.23970349123156612  0.6064274280147257  0.8758703308958361  1.0000
  C   C24       1.0  0.05958641177016941  0.6128627053698065  0.8477085301967905  1.0000
  C   C25       1.0  0.05407124326278989  0.6489237201407148  0.8049782841355936  1.0000
  C   C26       1.0  0.2239229514553074  0.6807447801022374  0.7905438780606602  1.0000
  C   C27       1.0  0.4071423363458778  0.6735295488592354  0.8187978241573504  1.0000
  C   C28       1.0  0.4120351219845234  0.6354724048417352  0.8608160535233509  1.0000
  C   C29       1.0  0.2171196868325822  0.7211242795275723  0.750020754291633  1.0000
  C   C30       1.0  0.2287538261809985  0.7583482023786839  0.7169094419579168  1.0000
  C   C31       1.0  0.23269736632450844  0.8022397252170634  0.6797165161026373  1.0000
  C   C32       1.0  0.058025285418636906  0.8362093340567822  0.6725060423116889  1.0000
  C   C33       1.0  0.0649784458983262  0.8797678302870506  0.635532477294433  1.0000
  C   C34       1.0  0.23951961345861864  0.8905725896462541  0.6067740254467396  1.0000
  C   C35       1.0  0.412411727211591  0.8576972674410112  0.6144934269071101  1.0000
  C   C36       1.0  0.407225802010089  0.8137666988184902  0.6501651300271547  1.0000
  C   C37       1.0  0.23958044685350194  0.6033983936473175  0.1183164477190601  1.0000
  C   C38       1.0  0.41728759506800384  0.6078573001394074  0.1477705867095906  1.0000
  C   C39       1.0  0.42016930860591384  0.6418507882260156  0.19216204087700112  1.0000
  C   C40       1.0  0.2498741427214455  0.6733846868910545  0.2072872757865127  1.0000
  C   C41       1.0  0.0677963714266383  0.6673921042892486  0.1783149655245424  1.0000
  C   C42       1.0  0.0662212136403184  0.6317429669864862  0.134335703616081  1.0000
  C   C43       1.0  0.2558333692477959  0.7126176403324536  0.24898334052667084  1.0000
  C   C44       1.0  0.2458232020010129  0.7495668719960233  0.28260186530840775  1.0000
  C   C45       1.0  0.24691006889398176  0.794001057912517  0.3195059743931665  1.0000
  C   C46       1.0  0.4244224929765679  0.8268693957574267  0.32553724086541547  1.0000
  C   C47       1.0  0.4225994180647987  0.8716939757023779  0.36145214732593445  1.0000
  C   C48       1.0  0.2492721090946688  0.8848833494807803  0.3899045417879208  1.0000
  C   C49       1.0  0.0737062089423759  0.8528258121002917  0.38377209561112124  1.0000
  C   C50       1.0  0.0744475021638635  0.8075731991928236  0.3493590752911047  1.0000
  C   C51       1.0  0.7530642329579178  0.3861127726893299  0.8883244338185322  1.0000
  C   C52       1.0  0.581859701113494  0.3525581507491608  0.8811640811635828  1.0000
  C   C53       1.0  0.5917314713697905  0.30695547314935107  0.8472208042601254  1.0000
  C   C54       1.0  0.7686883620728651  0.2946622722612772  0.8187736225618066  1.0000
  C   C55       1.0  0.9418587042245153  0.3290243898129787  0.8258803602505084  1.0000
  C   C56       1.0  0.9308093797738052  0.37418261785241913  0.8612838615648927  1.0000
  C   C57       1.0  0.7743415913129965  0.2503151543870885  0.7818528047000299  1.0000
  C   C58       1.0  0.7863222809212685  0.21363863484783951  0.7480164119166943  1.0000
  C   C59       1.0  0.7752293648515618  0.17518815588000788  0.7057709361183769  1.0000
  C   C60       1.0  0.5895593043739922  0.17059107375585106  0.67808835967233  1.0000
  C   C61       1.0  0.5803077963274106  0.13554429745386187  0.6337566664976608  1.0000
  C   C62       1.0  0.7500548765576556  0.10660689893511227  0.6160898097109921  1.0000
  C   C63       1.0  0.9318205024143328  0.11017361616269027  0.643924388847914  1.0000
  C   C64       1.0  0.9422679652741904  0.14342361385168084  0.6887011663699596  1.0000
  N   N1        1.0  0.11466927935813942  0.30825829726420295  0.18219142424846527  1.0000
  N   N2        1.0  0.4304050216016293  0.19123134001355163  0.2911724179538666  1.0000
  N   N3        1.0  0.5756910392911009  0.7029154060454701  0.8038866341765782  1.0000
  N   N4        1.0  0.8854411003098831  0.8245766600274815  0.7002602039447013  1.0000
  N   N5        1.0  0.897943973666358  0.6957113233737002  0.19421738971646366  1.0000
  N   N6        1.0  0.594756101810006  0.8132966872939276  0.29731831243880447  1.0000
  N   N7        1.0  0.11683359587022583  0.31642183950675923  0.7993447014304351  1.0000
  N   N8        1.0  0.42339261014194574  0.19969885265175683  0.6957406495823903  1.0000
  O   O1        1.0  0.9078595243928476  0.060221076238086375  0.5453477041503518  1.0000
  O   O2        1.0  0.5822111675546608  0.058459936573775885  0.4427288513970354  1.0000
  O   O3        1.0  0.4190342456858929  0.9559399527773775  0.4377779041615853  1.0000
  O   O4        1.0  0.06822575167026909  0.9567847988564249  0.554404018318138  1.0000
  O   O5        1.0  0.08399027453221919  0.9460641310169817  0.4490196832241439  1.0000
  O   O6        1.0  0.40644139499523396  0.9487830407056562  0.5452079604779244  1.0000
  O   O7        1.0  0.5678354381206816  0.056297816112987696  0.5510719043567107  1.0000
  O   O8        1.0  0.9203864816265224  0.049650199779058775  0.437783788219356  1.0000
  O   O9        1.0  0.2433363930957384  0.039117665220018694  0.4955282387735736  1.0000
  O   O10       1.0  0.7424666447982846  0.9701461376577492  0.49734844559181823  1.0000
  O   O11       1.0  0.9148317713061402  0.45680547295723517  0.9376065576859531  1.0000
  O   O12       1.0  0.5663926361279509  0.4538865411583755  0.053161848849519806  1.0000
  O   O13       1.0  0.4046562585973846  0.5571607774133367  0.0481469004997805  1.0000
  O   O14       1.0  0.07683310808656069  0.5573882915018087  0.9438095644605086  1.0000
  O   O15       1.0  0.0642248385826036  0.5537290498350058  0.05206555148004101  1.0000
  O   O16       1.0  0.4156029564257864  0.5513607612948517  0.9384506351317228  1.0000
  O   O17       1.0  0.5786710018370655  0.44715186728848966  0.9462987998261243  1.0000
  O   O18       1.0  0.9053366036152823  0.447904550281457  0.0447800266338589  1.0000
  O   O19       1.0  0.23993858937853926  0.46943130300929425  0.9959824613342364  1.0000
  O   O20       1.0  0.7387955453457309  0.5384842696127875  0.9968920733334558  1.0000
