data_image0
_chemical_formula_structural       Li4H20C20N4Cl4
_chemical_formula_sum              "Li4 H20 C20 N4 Cl4"
_cell_length_a       3.888276350005848
_cell_length_b       8.558870273003627
_cell_length_c       17.55828122101272
_cell_angle_alpha    89.99999839759585
_cell_angle_beta     89.99985227791798
_cell_angle_gamma    89.99988666971508

_space_group_name_H-M_alt    "P 1"
_space_group_IT_number       1

loop_
  _space_group_symop_operation_xyz
  'x, y, z'

loop_
  _atom_site_type_symbol
  _atom_site_label
  _atom_site_symmetry_multiplicity
  _atom_site_fract_x
  _atom_site_fract_y
  _atom_site_fract_z
  _atom_site_occupancy
  Li  Li1       1.0  0.5359971774208817  0.698184172105549  0.44248676172568224  1.0000
  Li  Li2       1.0  0.9640023926566741  0.301816228995186  0.9424871705984973  1.0000
  Li  Li3       1.0  0.4640017994866596  0.19818364254707183  0.057512319603176806  1.0000
  Li  Li4       1.0  0.035998444754973505  0.8018137420413539  0.557513547483616  1.0000
  H   H1        1.0  0.8215128956172038  0.582268037260576  0.2957291451318724  1.0000
  H   H2        1.0  0.6784908415650152  0.4177276934448599  0.7957314338546555  1.0000
  H   H3        1.0  0.1784865509934761  0.0822724524399092  0.20426993877148905  1.0000
  H   H4        1.0  0.3215198134624799  0.9177342760528475  0.704270420713435  1.0000
  H   H5        1.0  0.8920386001014579  0.32604610446100696  0.22899480409652997  1.0000
  H   H6        1.0  0.6079607188339297  0.6739472909086429  0.7289959910040269  1.0000
  H   H7        1.0  0.107957286828622  0.8260528908495673  0.2710059829886333  1.0000
  H   H8        1.0  0.39204063670658945  0.17395734136366062  0.7710035908543277  1.0000
  H   H9        1.0  0.6936551947472509  0.08065633648445211  0.2969667822866811  1.0000
  H   H10       1.0  0.8063382416653937  0.9193382258211573  0.7969661343682547  1.0000
  H   H11       1.0  0.30634168654787436  0.5806594285608712  0.2030351493124131  1.0000
  H   H12       1.0  0.1936569758669719  0.41934379482641054  0.7030300248504844  1.0000
  H   H13       1.0  0.4060720175268315  0.106706640317789  0.4229034559405705  1.0000
  H   H14       1.0  0.09391911121034721  0.8932942416406818  0.9229023683952065  1.0000
  H   H15       1.0  0.593927330045972  0.6067059536041626  0.07709904461102472  1.0000
  H   H16       1.0  0.9060736400357854  0.39329211850873247  0.5770943609346804  1.0000
  H   H17       1.0  0.3509541913824563  0.3749803900212925  0.48093591535195673  1.0000
  H   H18       1.0  0.14903630651913602  0.6250239958389301  0.9809365088036944  1.0000
  H   H19       1.0  0.6490466409474323  0.8749773148227009  0.019064301113068907  1.0000
  H   H20       1.0  0.8509549599691725  0.12501608500994618  0.5190630741445973  1.0000
  C   C1        1.0  0.7322189082838477  0.4738799433165682  0.32189802195009076  1.0000
  C   C2        1.0  0.7677819726071178  0.526116955212281  0.8218996843695977  1.0000
  C   C3        1.0  0.2677789514432832  0.973881904599075  0.1781021923190522  1.0000
  C   C4        1.0  0.23221741012633149  0.026123656076436  0.678102748432103  1.0000
  C   C5        1.0  0.7740605593460331  0.33056661695471945  0.28530843851585536  1.0000
  C   C6        1.0  0.725943291108976  0.6694314507292631  0.7853101232256423  1.0000
  C   C7        1.0  0.22594045294148662  0.8305709544192227  0.21469177893553856  1.0000
  C   C8        1.0  0.27406065457817874  0.16943460547597772  0.714689458732302  1.0000
  C   C9        1.0  0.6611339863603618  0.19587482910753803  0.3224129034493758  1.0000
  C   C10       1.0  0.8388591734345284  0.8041244061710843  0.822413377353975  1.0000
  C   C11       1.0  0.33886499988776114  0.6958767220967487  0.17758845605806076  1.0000
  C   C12       1.0  0.161133939122081  0.304130006966993  0.6775844930199924  1.0000
  C   C13       1.0  0.5040253973022433  0.2096956530934477  0.3935024834224664  1.0000
  C   C14       1.0  0.9959695615774891  0.7903024122941247  0.8935028619811691  1.0000
  C   C15       1.0  0.4959786766113936  0.7096962282517653  0.1064988757764453  1.0000
  C   C16       1.0  0.004036466153237899  0.29030816555886935  0.6064955782277011  1.0000
  C   C17       1.0  0.4703339030814746  0.3579664055604681  0.42530571883826707  1.0000
  C   C18       1.0  0.029664915029549408  0.642036813100205  0.9253063845914727  1.0000
  C   C19       1.0  0.5296644263559003  0.8579646122675443  0.07469449800541383  1.0000
  C   C20       1.0  0.9703442853375819  0.14203462827121882  0.5746943370370731  1.0000
  N   N1        1.0  0.5832939044958608  0.48866818079218893  0.39068384317705823  1.0000
  N   N2        1.0  0.9167010850163211  0.5113298846552966  0.8906854152568757  1.0000
  N   N3        1.0  0.4167064671460707  0.9886688320594532  0.10931580123104112  1.0000
  N   N4        1.0  0.0832983576594799  0.011328551425215497  0.6093158788096888  1.0000
  Cl  Cl1       1.0  0.5339853530412384  0.657140203356704  0.5774652364936017  1.0000
  Cl  Cl2       1.0  0.966015613031928  0.3428578687483538  0.07746571276933881  1.0000
  Cl  Cl3       1.0  0.466018642458124  0.1571420008577036  0.9225337762055262  1.0000
  Cl  Cl4       1.0  0.0339827776270241  0.8428565443466668  0.42253450440991003  1.0000
