data_image0
_chemical_formula_structural       Cd2H12C16N8Cl8
_chemical_formula_sum              "Cd2 H12 C16 N8 Cl8"
_cell_length_a       3.772591772616868
_cell_length_b       10.219320548209716
_cell_length_c       16.19401649208887
_cell_angle_alpha    89.9996689090165
_cell_angle_beta     89.99979717415674
_cell_angle_gamma    92.91686655307602

_space_group_name_H-M_alt    "P 1"
_space_group_IT_number       1

loop_
  _space_group_symop_operation_xyz
  'x, y, z'

loop_
  _atom_site_type_symbol
  _atom_site_label
  _atom_site_symmetry_multiplicity
  _atom_site_fract_x
  _atom_site_fract_y
  _atom_site_fract_z
  _atom_site_occupancy
  Cd  Cd1       1.0  0.5000083342717403  0.5000023034597093  0.5000008055362812  1.0000
  Cd  Cd2       1.0  0.5000016687235913  0.9999998744290579  9.995661684999995e-07  1.0000
  H   H1        1.0  0.2528177973105699  0.1899788439269017  0.4830378193097502  1.0000
  H   H2        1.0  0.7471834866216868  0.31002373198129624  0.9830331513874881  1.0000
  H   H3        1.0  0.7471887858857827  0.8100287535667263  0.516964409274095  1.0000
  H   H4        1.0  0.2528108036388161  0.6899741196948171  0.016965989659922798  1.0000
  H   H5        1.0  0.7013022436916998  0.4417929551566574  0.305277661808951  1.0000
  H   H6        1.0  0.2987051858453142  0.05820145877219571  0.8052774303755115  1.0000
  H   H7        1.0  0.29869255602289974  0.5582078356936577  0.6947208617207749  1.0000
  H   H8        1.0  0.7013096147248703  0.9417923711915179  0.19472294569369808  1.0000
  H   H9        1.0  0.7440521931234869  0.24930549331511295  0.2064606331727745  1.0000
  H   H10       1.0  0.2559480266203735  0.25068596362611123  0.7064578812400129  1.0000
  H   H11       1.0  0.2559215868184879  0.7506963800676374  0.7935385078768888  1.0000
  H   H12       1.0  0.7440664343343855  0.7493059069015972  0.29354002478483915  1.0000
  C   C1        1.0  0.3854408575616263  0.09966286409719773  0.3650758349167161  1.0000
  C   C2        1.0  0.6145526417110079  0.4003320350716777  0.8650734296615139  1.0000
  C   C3        1.0  0.6145491541887651  0.9003408916157766  0.6349251586579356  1.0000
  C   C4        1.0  0.3854513942546519  0.5996608665769257  0.1349263289024378  1.0000
  C   C5        1.0  0.3630602320724704  0.20308954231379767  0.4212149088664177  1.0000
  C   C6        1.0  0.6369389491466252  0.29691166467353014  0.9212091579924573  1.0000
  C   C7        1.0  0.6369382352041912  0.7969171140046217  0.5787885547470353  1.0000
  C   C8        1.0  0.363062947579465  0.7030841890035974  0.0787893655430167  1.0000
  C   C9        1.0  0.6134800287153793  0.3423384332723458  0.322757181656371  1.0000
  C   C10       1.0  0.3865279995364546  0.15766071596412704  0.8227534140089003  1.0000
  C   C11       1.0  0.38651032265928364  0.6576672818823966  0.6772450469385729  1.0000
  C   C12       1.0  0.6134869708547158  0.8423340937262437  0.17724634454639698  1.0000
  C   C13       1.0  0.6334839211271016  0.23694551367685798  0.2684249526433575  1.0000
  C   C14       1.0  0.3665180596711011  0.2630453514163662  0.7684232861213613  1.0000
  C   C15       1.0  0.36650079323594303  0.7630582677447748  0.7315748059096805  1.0000
  C   C16       1.0  0.633493582755733  0.7369455522303667  0.23157647244268986  1.0000
  N   N1        1.0  0.521469109420991  0.11503810736074634  0.2899770170285477  1.0000
  N   N2        1.0  0.47852529584292824  0.38495651381749957  0.789971708900097  1.0000
  N   N3        1.0  0.47850450068673206  0.8849627862866924  0.7100245940711217  1.0000
  N   N4        1.0  0.5214870258678276  0.6150383087358551  0.210025579608299  1.0000
  N   N5        1.0  0.48044134543322775  0.3238393619517198  0.3991095533047613  1.0000
  N   N6        1.0  0.5195629403688998  0.17615908669861108  0.8991068273194853  1.0000
  N   N7        1.0  0.5195645585190007  0.6761643166612502  0.6008895877264562  1.0000
  N   N8        1.0  0.48044194468398177  0.8238387135717317  0.10089231372302979  1.0000
  Cl  Cl1       1.0  0.016048386978930327  0.6240240814369643  0.4178161291877203  1.0000
  Cl  Cl2       1.0  0.9839590434910052  0.8759769414790952  0.9178171707164678  1.0000
  Cl  Cl3       1.0  0.9839658026785898  0.3759815180547932  0.5821860993962102  1.0000
  Cl  Cl4       1.0  0.0160382350830162  0.12402285678157911  0.0821844403740712  1.0000
  Cl  Cl5       1.0  0.2345005319101433  0.9433464699615829  0.3934539717597899  1.0000
  Cl  Cl6       1.0  0.7654805907922368  0.5566539294120858  0.8934489838119359  1.0000
  Cl  Cl7       1.0  0.7654845220639077  0.056659270893163714  0.6065488743496346  1.0000
  Cl  Cl8       1.0  0.2345161783542267  0.44334292969170247  0.1065495397240994  1.0000
