data_image0
_chemical_formula_structural       Co4H40C68N4O16
_chemical_formula_sum              "Co4 H40 C68 N4 O16"
_cell_length_a       13.136634627974411
_cell_length_b       13.196131351027438
_cell_length_c       13.616798606900494
_cell_angle_alpha    84.91130966615552
_cell_angle_beta     70.14869487261865
_cell_angle_gamma    83.15340950684771

_space_group_name_H-M_alt    "P 1"
_space_group_IT_number       1

loop_
  _space_group_symop_operation_xyz
  'x, y, z'

loop_
  _atom_site_type_symbol
  _atom_site_label
  _atom_site_symmetry_multiplicity
  _atom_site_fract_x
  _atom_site_fract_y
  _atom_site_fract_z
  _atom_site_occupancy
  Co  Co1       1.0  0.18576506834708786  0.817231430854534  0.18704002465507583  1.0000
  Co  Co2       1.0  0.13571718581434306  0.8227728134358118  0.36573134207876723  1.0000
  Co  Co3       1.0  0.8142265642169659  0.18276968561734452  0.8129684883429532  1.0000
  Co  Co4       1.0  0.8642685476935338  0.1772289500283009  0.6343054585334187  1.0000
  H   H1        1.0  0.877383491183586  0.8032834460761862  0.15396872120524555  1.0000
  H   H2        1.0  0.7437577743031977  0.7848547936032091  0.06674817446972985  1.0000
  H   H3        1.0  0.5507140107422472  0.7837703230132647  0.07449850103334646  1.0000
  H   H4        1.0  0.43993827228237575  0.8354071909447143  0.40292807524828317  1.0000
  H   H5        1.0  0.5752304532963278  0.8558717868223624  0.4917305375874006  1.0000
  H   H6        1.0  0.7675730391120935  0.8580576822269067  0.4819206823162998  1.0000
  H   H7        1.0  0.1163643878477174  0.149809376034419  0.4146073753279537  1.0000
  H   H8        1.0  0.09341415538037268  0.31585010261234453  0.49367513122766826  1.0000
  H   H9        1.0  0.10397283123442239  0.5046003774467492  0.47204307096388476  1.0000
  H   H10       1.0  0.20094227721352093  0.4916806145384029  0.13820612967799656  1.0000
  H   H11       1.0  0.22429993229630432  0.32410652732363593  0.058580741750922996  1.0000
  H   H12       1.0  0.21683291781172895  0.1342707977071314  0.08079267865760188  1.0000
  H   H13       1.0  0.11213942305675316  0.9663661518841451  0.03676317795972747  1.0000
  H   H14       1.0  0.08482041491112817  0.9707383190869194  0.8648666484064689  1.0000
  H   H15       1.0  0.2486989648883196  0.6642110777481562  0.8282093071476948  1.0000
  H   H16       1.0  0.2636149223363873  0.6728282837635999  0.00418137241361192  1.0000
  H   H17       1.0  0.10084037657947675  0.9782727527945028  0.7143387215159007  1.0000
  H   H18       1.0  0.08448584667782197  0.97362087086573  0.5397455099092383  1.0000
  H   H19       1.0  0.17876939195858912  0.6633825344555715  0.5261336586088772  1.0000
  H   H20       1.0  0.19760661420072972  0.6530696644891449  0.7021545085630333  1.0000
  H   H21       1.0  0.12261754687079925  0.19671310191533556  0.8460283164108089  1.0000
  H   H22       1.0  0.2562381912226143  0.2151440699234328  0.9332488422155404  1.0000
  H   H23       1.0  0.44928009425364474  0.21623082333922378  0.9255018686646465  1.0000
  H   H24       1.0  0.5600612582387611  0.16459621529774893  0.5970733011988754  1.0000
  H   H25       1.0  0.42477094212940597  0.1441293403468435  0.5082667497258198  1.0000
  H   H26       1.0  0.23242990080105835  0.14194420409188518  0.5180760459836689  1.0000
  H   H27       1.0  0.8836322951051157  0.8501902341798837  0.5853922875248898  1.0000
  H   H28       1.0  0.9065864261089942  0.6841510233526973  0.5063231529027232  1.0000
  H   H29       1.0  0.8960284017953766  0.4954022669575834  0.527956349470287  1.0000
  H   H30       1.0  0.7990616127838448  0.5083197332338756  0.8617918854111578  1.0000
  H   H31       1.0  0.7757057217216357  0.6758922831062861  0.9414175633102456  1.0000
  H   H32       1.0  0.7831653798897873  0.8657288036577171  0.9192071989245606  1.0000
  H   H33       1.0  0.8878613648417325  0.03363266633118659  0.963238163519584  1.0000
  H   H34       1.0  0.9151818647122311  0.029262041287403  0.13513041583215113  1.0000
  H   H35       1.0  0.7513053157874834  0.3357854638022245  0.17178595156333648  1.0000
  H   H36       1.0  0.7363868375197027  0.3271690146681648  0.9958175752487931  1.0000
  H   H37       1.0  0.8991597816519596  0.021724565744492  0.2856578030535388  1.0000
  H   H38       1.0  0.9155116720847685  0.026378759315676296  0.4602494755203494  1.0000
  H   H39       1.0  0.8212370407318799  0.33661707519826933  0.4738569869228113  1.0000
  H   H40       1.0  0.8024054020362352  0.34693068406695465  0.29783574671808577  1.0000
  C   C1        1.0  0.949610930173982  0.8321329889340345  0.3075503251519009  1.0000
  C   C2        1.0  0.8335344150726767  0.8306952900174595  0.31617961937982375  1.0000
  C   C3        1.0  0.8102830514321083  0.8146950460746324  0.2271189260940998  1.0000
  C   C4        1.0  0.702097490516877  0.8124114168534503  0.23025060293570473  1.0000
  C   C5        1.0  0.6766403343720313  0.7961821766632227  0.13980636838597588  1.0000
  C   C6        1.0  0.5706524160631544  0.7950243730808141  0.14398231097023734  1.0000
  C   C7        1.0  0.4849040609897911  0.8088870040292805  0.2404828875660527  1.0000
  C   C8        1.0  0.5074951111809864  0.8247383863914803  0.3300012040938185  1.0000
  C   C9        1.0  0.6154886863291151  0.8274802751241807  0.3276369049952164  1.0000
  C   C10       1.0  0.6414469421157776  0.8440967519560016  0.4179016169560369  1.0000
  C   C11       1.0  0.747821573476649  0.8453876493949863  0.4127266412616066  1.0000
  C   C12       1.0  0.3691454960700326  0.8075906784960837  0.24775421746977594  1.0000
  C   C13       1.0  0.16108176497271387  0.019169059364230596  0.2600285664101349  1.0000
  C   C14       1.0  0.1657541146442654  0.13163111321895118  0.24919740172632027  1.0000
  C   C15       1.0  0.14046703200980198  0.1879396882993518  0.33697032445002145  1.0000
  C   C16       1.0  0.14416898681383825  0.2950757132691564  0.32734878807583095  1.0000
  C   C17       1.0  0.11851657837217995  0.35449625144531877  0.41622725811628664  1.0000
  C   C18       1.0  0.12383843463086917  0.4585430921583935  0.4043515305972604  1.0000
  C   C19       1.0  0.15394405747995418  0.5085193789411377  0.30316058067318613  1.0000
  C   C20       1.0  0.17843173264466825  0.4523170198615388  0.21537893808501704  1.0000
  C   C21       1.0  0.17464413318197092  0.3452553478049224  0.22487813125398753  1.0000
  C   C22       1.0  0.20040060582051206  0.2854421518810568  0.13622327479510687  1.0000
  C   C23       1.0  0.19619384654181718  0.18130227920936187  0.14792193117983735  1.0000
  C   C24       1.0  0.158458329337094  0.6211015020541453  0.2918485064875966  1.0000
  C   C25       1.0  0.14010427102286369  0.9009295283472696  0.9875966534123959  1.0000
  C   C26       1.0  0.12571669597981125  0.9024174829999508  0.8910667975869087  1.0000
  C   C27       1.0  0.16386961535637565  0.8167695036933793  0.8294888453607284  1.0000
  C   C28       1.0  0.21534247480312269  0.732994810689476  0.8713567878733315  1.0000
  C   C29       1.0  0.22557623869094093  0.7373569667854837  0.9692026680918173  1.0000
  C   C30       1.0  0.15151712300896486  0.8159914105156074  0.7255737498196024  1.0000
  C   C31       1.0  0.11862781396352767  0.9059040059074662  0.6768711495373194  1.0000
  C   C32       1.0  0.1093880922265527  0.9041273498111051  0.5784654193270455  1.0000
  C   C33       1.0  0.16207664121625232  0.7310292889205458  0.5716764192123519  1.0000
  C   C34       1.0  0.17290013421607137  0.7266381042432853  0.6699864956685885  1.0000
  C   C35       1.0  0.05039957683939629  0.1678658024527095  0.6924471518547788  1.0000
  C   C36       1.0  0.16647373351690928  0.16930274101553527  0.6838194134572787  1.0000
  C   C37       1.0  0.18971950923631192  0.1853022423035213  0.7728812331147947  1.0000
  C   C38       1.0  0.2979041200673223  0.18758741007121668  0.7697482694840045  1.0000
  C   C39       1.0  0.3233564275914205  0.20381667305721152  0.8601925959669996  1.0000
  C   C40       1.0  0.4293399776747079  0.20497752760463328  0.8560214869831809  1.0000
  C   C41       1.0  0.515085098876007  0.19111491060247943  0.7595212170499507  1.0000
  C   C42       1.0  0.4925038336862925  0.1752627296600622  0.6700005459133462  1.0000
  C   C43       1.0  0.38451277935787687  0.1725200840459777  0.6723611560605746  1.0000
  C   C44       1.0  0.35855526287163286  0.15590437266477153  0.5820954096612352  1.0000
  C   C45       1.0  0.2521807764079753  0.15461194298029568  0.5872711967195767  1.0000
  C   C46       1.0  0.6308399733586897  0.1924158280555162  0.7522514403231497  1.0000
  C   C47       1.0  0.8389124963540907  0.980822150580245  0.739973289182593  1.0000
  C   C48       1.0  0.834243226908029  0.8683616075195175  0.7508048080823285  1.0000
  C   C49       1.0  0.8595305307659796  0.8120591513674709  0.6630298514494439  1.0000
  C   C50       1.0  0.8558325535091027  0.7049238816545509  0.672649310601308  1.0000
  C   C51       1.0  0.8814840074918634  0.6455048782723195  0.5837702898928824  1.0000
  C   C52       1.0  0.876162212745079  0.5414572620550188  0.5956482633969171  1.0000
  C   C53       1.0  0.8460557645259283  0.4914893782306465  0.6968395356073456  1.0000
  C   C54       1.0  0.8215708078406934  0.5476886651739646  0.784622018835506  1.0000
  C   C55       1.0  0.8253579181588718  0.6547473015561565  0.7751195562417974  1.0000
  C   C56       1.0  0.7996037363672029  0.7145536141651048  0.8637742299009258  1.0000
  C   C57       1.0  0.8038048814766511  0.8186927216664159  0.8520811166152954  1.0000
  C   C58       1.0  0.8415413477715815  0.3789087873631232  0.7081507984290168  1.0000
  C   C59       1.0  0.8598991650938217  0.0990669857308291  0.012404754964336453  1.0000
  C   C60       1.0  0.8742864372184227  0.09758208431135527  0.10893519642563378  1.0000
  C   C61       1.0  0.8361351588386228  0.18323007728401558  0.17050894665382535  1.0000
  C   C62       1.0  0.7846615600914574  0.267004004837311  0.1286420385797412  1.0000
  C   C63       1.0  0.774423511363345  0.2626441429650441  0.030799557340607377  1.0000
  C   C64       1.0  0.8484854639075292  0.18400590037808934  0.2744219926619849  1.0000
  C   C65       1.0  0.8813739106287312  0.09409409054406129  0.3231211354127694  1.0000
  C   C66       1.0  0.8906111993059722  0.09587075053313043  0.4215283838321183  1.0000
  C   C67       1.0  0.8379274330504386  0.2689695603795528  0.42831578214975957  1.0000
  C   C68       1.0  0.8271072616826557  0.27335997812181734  0.3300032282886319  1.0000
  N   N1        1.0  0.18885103053511898  0.8199030601588999  0.02693840581633817  1.0000
  N   N2        1.0  0.13064167537107346  0.8181463780989802  0.5261559989151363  1.0000
  N   N3        1.0  0.8111499331497284  0.18009342403858844  0.973071145860423  1.0000
  N   N4        1.0  0.8693576820480401  0.1818509504936259  0.47383931410781327  1.0000
  O   O1        1.0  0.01990995998531991  0.8305097634696136  0.21597198154897504  1.0000
  O   O2        1.0  0.9731751884035587  0.8354806934559348  0.39103245863824315  1.0000
  O   O3        1.0  0.29835734096105426  0.80962865228809  0.33911060640911467  1.0000
  O   O4        1.0  0.3461534350355819  0.8055471169847833  0.16393396379307748  1.0000
  O   O5        1.0  0.18227133662904282  0.9707722748311909  0.1769267796651022  1.0000
  O   O6        1.0  0.13595501397976756  0.9752403747924062  0.35158578566573334  1.0000
  O   O7        1.0  0.1345055004283607  0.6699435271695223  0.3750754078756272  1.0000
  O   O8        1.0  0.18527280709127328  0.6646917058822266  0.2001563667502637  1.0000
  O   O9        1.0  0.980105751329809  0.1694851688787509  0.7840285361160608  1.0000
  O   O10       1.0  0.02683661731601458  0.16452113105680163  0.6089680270972264  1.0000
  O   O11       1.0  0.7016276762773258  0.1903824359896191  0.6608955617769183  1.0000
  O   O12       1.0  0.6538237834393994  0.19445252437114394  0.8360778447323297  1.0000
  O   O13       1.0  0.8177251277846478  0.029212804787043502  0.8230770638701798  1.0000
  O   O14       1.0  0.8640365403012708  0.024745503125821196  0.6484159038178062  1.0000
  O   O15       1.0  0.8654938693871796  0.3300698117283717  0.6249252187980189  1.0000
  O   O16       1.0  0.8147269903568741  0.3353254441943109  0.7998452833631118  1.0000
