data_image0
_chemical_formula_structural       Cu4H20C28N4O20
_chemical_formula_sum              "Cu4 H20 C28 N4 O20"
_cell_length_a       8.747860948393914
_cell_length_b       9.421711096584193
_cell_length_c       11.48750181948018
_cell_angle_alpha    90.00146977215132
_cell_angle_beta     108.65273642171752
_cell_angle_gamma    89.99987485063353

_space_group_name_H-M_alt    "P 1"
_space_group_IT_number       1

loop_
  _space_group_symop_operation_xyz
  'x, y, z'

loop_
  _atom_site_type_symbol
  _atom_site_label
  _atom_site_symmetry_multiplicity
  _atom_site_fract_x
  _atom_site_fract_y
  _atom_site_fract_z
  _atom_site_occupancy
  Cu  Cu1       1.0  0.9160724824924172  0.7593701485526836  0.5786268690559171  1.0000
  Cu  Cu2       1.0  0.5839418307982172  0.25937395695006416  0.421373282984412  1.0000
  Cu  Cu3       1.0  0.0839458860161173  0.24062170649632011  0.42137153817332523  1.0000
  Cu  Cu4       1.0  0.41606228790678296  0.7406380644636315  0.5786236949387701  1.0000
  H   H1        1.0  0.8838874599225406  0.48064383076167166  0.6846561115707815  1.0000
  H   H2        1.0  0.6161133534636817  0.9806324178649959  0.3153471884526625  1.0000
  H   H3        1.0  0.11611016805841956  0.5193490860077787  0.31535208087855443  1.0000
  H   H4        1.0  0.3839068933643616  0.019375357868071298  0.6846559033954946  1.0000
  H   H5        1.0  0.7248983994009919  0.33879327076811444  0.7640468276056467  1.0000
  H   H6        1.0  0.7750846475115267  0.8387861024978633  0.23595900723240257  1.0000
  H   H7        1.0  0.275063375490852  0.6611932781088755  0.23594855472410367  1.0000
  H   H8        1.0  0.22492845384844878  0.16123865548726  0.7640586981699542  1.0000
  H   H9        1.0  0.7803003980004563  0.5678474895561793  0.019225218707489947  1.0000
  H   H10       1.0  0.7196929110151302  0.0678335012205906  0.9807760328399767  1.0000
  H   H11       1.0  0.21966804989430946  0.4321241999760306  0.9807756235114128  1.0000
  H   H12       1.0  0.2803406591964688  0.9321891336563937  0.0192300912022745  1.0000
  H   H13       1.0  0.8587705248165917  0.8191456978121465  0.001549708906885926  1.0000
  H   H14       1.0  0.6412508633266755  0.3191318968475941  0.9984747641119398  1.0000
  H   H15       1.0  0.1412294117013744  0.18082386871359546  0.9984737500355864  1.0000
  H   H16       1.0  0.3587672811663936  0.6808801244932354  0.0015376245223067174  1.0000
  H   H17       1.0  0.9286956595717513  0.8950349272762921  0.8133203223426123  1.0000
  H   H18       1.0  0.5713171743372953  0.3950218916195212  0.18669848820743346  1.0000
  H   H19       1.0  0.07129588546622048  0.10495268278125283  0.18670177910568952  1.0000
  H   H20       1.0  0.42868549728781596  0.6049816388289101  0.8133043879765297  1.0000
  C   C1        1.0  0.03284928914208509  0.0247114729368292  0.5666924572811567  1.0000
  C   C2        1.0  0.467145860242546  0.5247031736751353  0.43330078467938193  1.0000
  C   C3        1.0  0.9671485164018134  0.9752952415345036  0.43328597740644165  1.0000
  C   C4        1.0  0.5328538938339307  0.4752929271913261  0.5667059996878124  1.0000
  C   C5        1.0  0.9069343707503137  0.48687550229833937  0.475959528657832  1.0000
  C   C6        1.0  0.5930754683731791  0.9869005987380393  0.5240323154613266  1.0000
  C   C7        1.0  0.09308933614197198  0.5131036161721738  0.5240432464644584  1.0000
  C   C8        1.0  0.40691037288700466  0.013129466256131601  0.4759520684406553  1.0000
  C   C9        1.0  0.8770117680327089  0.5542786144803815  0.7556147824573076  1.0000
  C   C10       1.0  0.62297909266627  0.054265055166872876  0.2443890890839314  1.0000
  C   C11       1.0  0.12296627087822289  0.4457068728556521  0.24438761192455163  1.0000
  C   C12       1.0  0.37702570519374484  0.9457480276485628  0.7556123791550109  1.0000
  C   C13       1.0  0.8231499747841938  0.5058928278022279  0.8507509273118219  1.0000
  C   C14       1.0  0.6768418211824496  0.005881795175994899  0.1492478504802648  1.0000
  C   C15       1.0  0.1768247155940017  0.49408947539465936  0.1492447926249554  1.0000
  C   C16       1.0  0.3231750774380799  0.9941376557145745  0.8507485672427252  1.0000
  C   C17       1.0  0.8201129599565177  0.6015778479436236  0.9428191496621849  1.0000
  C   C18       1.0  0.6798770302676403  0.1015675337682183  0.05718277847947929  1.0000
  C   C19       1.0  0.17985641531064536  0.39840233259155877  0.057180090605612625  1.0000
  C   C20       1.0  0.3201346893005094  0.8984604082486386  0.9428180578616363  1.0000
  C   C21       1.0  0.8630569455034802  0.7422204495534928  0.9319062520095188  1.0000
  C   C22       1.0  0.6369502623296057  0.2422114174226309  0.06810527427482076  1.0000
  C   C23       1.0  0.13692512070028331  0.25775123989179594  0.06810730674471442  1.0000
  C   C24       1.0  0.3630618645317725  0.7578080335816112  0.9318982560592206  1.0000
  C   C25       1.0  0.9031878723213183  0.7850500473235372  0.8293723422198412  1.0000
  C   C26       1.0  0.5968161432290555  0.2850382351782415  0.1706384562208783  1.0000
  C   C27       1.0  0.09679738313025868  0.21493119446976286  0.17063910451401654  1.0000
  C   C28       1.0  0.4031862569756442  0.7149759090441421  0.829362624074442  1.0000
  N   N1        1.0  0.9097487255099778  0.6911629943026013  0.7426402203161262  1.0000
  N   N2        1.0  0.5902519717891934  0.19115684756547321  0.25736403522524404  1.0000
  N   N3        1.0  0.090237976789183  0.3088161246726457  0.2573653279284329  1.0000
  N   N4        1.0  0.40975468056009123  0.8088615420942773  0.7426342288600979  1.0000
  O   O1        1.0  0.01937719102866712  0.9409895391649032  0.6486870875179492  1.0000
  O   O2        1.0  0.48061401053382713  0.44097982311654954  0.351301218557019  1.0000
  O   O3        1.0  0.9806103444834376  0.05900868437085189  0.35128530482804626  1.0000
  O   O4        1.0  0.5193844090628588  0.5590247687861805  0.6487044739511775  1.0000
  O   O5        1.0  0.1001524890957057  0.14599019384895942  0.5870115440956526  1.0000
  O   O6        1.0  0.3998371322580707  0.6459801814720336  0.4129693972201949  1.0000
  O   O7        1.0  0.8998396825582587  0.8540175819734092  0.4129528377863779  1.0000
  O   O8        1.0  0.6001606080442202  0.3540169807589777  0.5870318048351353  1.0000
  O   O9        1.0  0.815773902681343  0.5874445191985201  0.49027383310432543  1.0000
  O   O10       1.0  0.684240078231191  0.08746289163114078  0.5097200799355903  1.0000
  O   O11       1.0  0.1842615211600176  0.4125441515245143  0.5097290859388154  1.0000
  O   O12       1.0  0.31575453843657186  0.9125512525454839  0.4902604671380075  1.0000
  O   O13       1.0  0.8568956601695064  0.3692920738552203  0.4277432052418818  1.0000
  O   O14       1.0  0.6431118606251045  0.8693133689596737  0.5722545462736903  1.0000
  O   O15       1.0  0.14313376926642724  0.6306870445343762  0.5722587436794201  1.0000
  O   O16       1.0  0.3568797266837436  0.1307124504967021  0.4277368998798892  1.0000
  O   O17       1.0  0.7706113530586193  0.3698141995969308  0.85066725742292  1.0000
  O   O18       1.0  0.7293766243555879  0.8697931846341477  0.14933260630120776  1.0000
  O   O19       1.0  0.22935186891310616  0.6301808402453092  0.1493222266460492  1.0000
  O   O20       1.0  0.2706478981452776  0.13021565245773561  0.8506755578124158  1.0000
