data_image0
_chemical_formula_structural       Ca4H32C20N8O28
_chemical_formula_sum              "Ca4 H32 C20 N8 O28"
_cell_length_a       6.317826567474005
_cell_length_b       8.58547978409999
_cell_length_c       16.90860209154426
_cell_angle_alpha    90.00056054107628
_cell_angle_beta     96.83631552529525
_cell_angle_gamma    89.9999610280576

_space_group_name_H-M_alt    "P 1"
_space_group_IT_number       1

loop_
  _space_group_symop_operation_xyz
  'x, y, z'

loop_
  _atom_site_type_symbol
  _atom_site_label
  _atom_site_symmetry_multiplicity
  _atom_site_fract_x
  _atom_site_fract_y
  _atom_site_fract_z
  _atom_site_occupancy
  Ca  Ca1       1.0  0.2865832576819188  0.9983698272019698  0.2879817790419564  1.0000
  Ca  Ca2       1.0  0.2133950123473625  0.4983783961194918  0.21201883495972845  1.0000
  Ca  Ca3       1.0  0.713408111864659  0.0016317384066582002  0.7120122090485808  1.0000
  Ca  Ca4       1.0  0.7865953754510431  0.5016313228706296  0.7879834023963923  1.0000
  H   H1        1.0  0.3406972215078738  0.6625803808172323  0.007947473916956898  1.0000
  H   H2        1.0  0.15929070852911312  0.1625559879445717  0.4920530090148532  1.0000
  H   H3        1.0  0.6592982091678509  0.3374351619952379  0.9920584862605534  1.0000
  H   H4        1.0  0.8407031285895599  0.837417623605738  0.507952896396894  1.0000
  H   H5        1.0  0.19206349744974463  0.13786080088097927  0.9691647189144703  1.0000
  H   H6        1.0  0.30794336586189536  0.6378367254179621  0.5308417530852054  1.0000
  H   H7        1.0  0.8079454012316916  0.8621652246349927  0.030829870529480302  1.0000
  H   H8        1.0  0.6920649443785865  0.36213921566805857  0.4691664237086499  1.0000
  H   H9        1.0  0.7073680197665766  0.13756599002007872  0.36322390246822067  1.0000
  H   H10       1.0  0.7926089997635158  0.6375672802330075  0.13677192287136108  1.0000
  H   H11       1.0  0.2926140069371215  0.862426257556777  0.6367727233028757  1.0000
  H   H12       1.0  0.2073761703548342  0.3624342853970718  0.8632242191123253  1.0000
  H   H13       1.0  0.5524497223357656  0.2726332842857815  0.3325957609284202  1.0000
  H   H14       1.0  0.9475272489646757  0.7726374807090651  0.16740013306011284  1.0000
  H   H15       1.0  0.4475386785987966  0.727367116593662  0.6674010835148322  1.0000
  H   H16       1.0  0.05245628389516811  0.2273675791866198  0.8325953611327535  1.0000
  H   H17       1.0  0.8204214355135947  0.9235884452092836  0.2435060827938145  1.0000
  H   H18       1.0  0.679555924031469  0.4235920634133735  0.2564958890429381  1.0000
  H   H19       1.0  0.17956882118301817  0.07640380240442111  0.756494375110506  1.0000
  H   H20       1.0  0.32043765088263143  0.5764060080048877  0.7435064576107351  1.0000
  H   H21       1.0  0.8775743073666789  0.021198991709695695  0.16742917561979448  1.0000
  H   H22       1.0  0.6223968225420364  0.5211924807885708  0.3325723853943003  1.0000
  H   H23       1.0  0.12240776303760732  0.9787990796592966  0.8325680433019045  1.0000
  H   H24       1.0  0.37759192799825314  0.4787974373217382  0.6674292041139366  1.0000
  H   H25       1.0  0.5654810618069988  0.7766648192045623  0.24384580796291289  1.0000
  H   H26       1.0  0.9345073264666653  0.27667072516980085  0.25615404724209867  1.0000
  H   H27       1.0  0.434507513930363  0.2233344169407658  0.7561534090228221  1.0000
  H   H28       1.0  0.06549722854882133  0.7233331700146339  0.7438463095218282  1.0000
  H   H29       1.0  0.6675622203131653  0.7873954439148748  0.3347802252741089  1.0000
  H   H30       1.0  0.8324118255808984  0.28740308268152154  0.1652191905437022  1.0000
  H   H31       1.0  0.3324170125812742  0.2125968037132182  0.6652216293978908  1.0000
  H   H32       1.0  0.16758002467331323  0.7125984829907638  0.8347813220464885  1.0000
  C   C1        1.0  0.2832277508201956  0.21724475596197126  0.1267986104908303  1.0000
  C   C2        1.0  0.21677633146445172  0.7172436844285955  0.373205652644792  1.0000
  C   C3        1.0  0.7167952713777339  0.7827696219561704  0.8731935052103309  1.0000
  C   C4        1.0  0.7832333101293827  0.28274623371037677  0.6267990200283577  1.0000
  C   C5        1.0  0.29529843537453365  0.058407593641874235  0.08815593219961929  1.0000
  C   C6        1.0  0.20472455642592283  0.5583863126175787  0.4118452429199308  1.0000
  C   C7        1.0  0.7047101574020475  0.9416184318335827  0.9118345052900095  1.0000
  C   C8        1.0  0.7953009770450026  0.4415872989180586  0.5881593832073904  1.0000
  C   C9        1.0  0.24285315202403268  0.03954938779968841  0.007312955637772201  1.0000
  C   C10       1.0  0.25717798300022576  0.5395320075766605  0.4926907729538783  1.0000
  C   C11       1.0  0.7571667267590672  0.9604661548806633  0.9926796438764852  1.0000
  C   C12       1.0  0.7428462628178137  0.4604416039990654  0.5073179504647172  1.0000
  C   C13       1.0  0.2550678414710177  0.8876791670241531  0.9746699230086833  1.0000
  C   C14       1.0  0.2449480504020443  0.3876654503462192  0.5253309833732445  1.0000
  C   C15       1.0  0.7449587611486165  0.11233754046146772  0.02532764025126969  1.0000
  C   C16       1.0  0.7550550858587641  0.6123209735018804  0.47467169123016356  1.0000
  C   C17       1.0  0.3810801512941921  0.7981288300593691  0.10929430363857047  1.0000
  C   C18       1.0  0.11892707169354823  0.2981047934692143  0.3907098719316267  1.0000
  C   C19       1.0  0.6189483070870879  0.20190418406318866  0.8907068731423704  1.0000
  C   C20       1.0  0.8810855822133092  0.7018676532883957  0.609292537479483  1.0000
  N   N1        1.0  0.32458794059218127  0.7728504855816  0.028775151902159693  1.0000
  N   N2        1.0  0.1754256574741433  0.2728280133743582  0.4712291184698073  1.0000
  N   N3        1.0  0.6754325937011886  0.22717321048645542  0.9712263446770563  1.0000
  N   N4        1.0  0.8245871275347554  0.7271467629151548  0.5287750703560049  1.0000
  N   N5        1.0  0.3588135232998654  0.9411566587275219  0.1393409561195824  1.0000
  N   N6        1.0  0.14118077162713402  0.44114018568335217  0.360661110401189  1.0000
  N   N7        1.0  0.6411908132117219  0.058872861087927206  0.8606564350254614  1.0000
  N   N8        1.0  0.858827057905657  0.5588392496108199  0.6393405419015679  1.0000
  O   O1        1.0  0.2659694785079338  0.33946116725541503  0.0852585077397734  1.0000
  O   O2        1.0  0.23404451063088771  0.8394527511824492  0.4147514272605264  1.0000
  O   O3        1.0  0.7340935137357434  0.6605601992343184  0.9147367539636305  1.0000
  O   O4        1.0  0.7659554822150055  0.16053949645694843  0.5852517311673892  1.0000
  O   O5        1.0  0.29032274371805766  0.21749825225921177  0.20305436279736708  1.0000
  O   O6        1.0  0.20961117831617324  0.7175061755778033  0.2969469032920031  1.0000
  O   O7        1.0  0.7096429541016605  0.7825068075912897  0.7969363781476773  1.0000
  O   O8        1.0  0.790356768571783  0.2824942253308579  0.7030527893496554  1.0000
  O   O9        1.0  0.4539205816367868  0.6834542367304907  0.15272565033268384  1.0000
  O   O10       1.0  0.04608496423688991  0.18343285641319085  0.347276722446594  1.0000
  O   O11       1.0  0.5460841044804141  0.31657178885944876  0.8472764858944615  1.0000
  O   O12       1.0  0.9539324703432966  0.8165349313166106  0.6527258509422322  1.0000
  O   O13       1.0  0.21097878049046415  0.8523630187320635  0.9018533446038575  1.0000
  O   O14       1.0  0.28902281424779375  0.3523437292058134  0.5981474898977125  1.0000
  O   O15       1.0  0.7890110391989394  0.1476455354255535  0.09814118197709117  1.0000
  O   O16       1.0  0.7109727475305972  0.6476368709059062  0.401860249603196  1.0000
  O   O17       1.0  0.557182833327424  0.16762251939167783  0.358887522089688  1.0000
  O   O18       1.0  0.942794447399031  0.6676227088759463  0.1411120093307048  1.0000
  O   O19       1.0  0.44280238049163506  0.8323778814869203  0.6411092130274765  1.0000
  O   O20       1.0  0.05719094122276402  0.33238002154033824  0.8588870983374903  1.0000
  O   O21       1.0  0.9391770665828149  0.9499512376176257  0.2111911132530864  1.0000
  O   O22       1.0  0.5607969738607537  0.44995200884177683  0.28880909900922086  1.0000
  O   O23       1.0  0.06080668478061571  0.05004683376336771  0.7888073466043295  1.0000
  O   O24       1.0  0.43919642625058947  0.5500448977960702  0.7111908750962712  1.0000
  O   O25       1.0  0.6227109993634984  0.8512830763353351  0.28646170319697717  1.0000
  O   O26       1.0  0.8772427214438706  0.35128932289546816  0.21354265324983146  1.0000
  O   O27       1.0  0.3772572097286613  0.14871499509350636  0.7135415482569769  1.0000
  O   O28       1.0  0.12274779745673213  0.648713407568387  0.7864613634981623  1.0000
