data_image0
_chemical_formula_structural       Cd8H16C24N24O16
_chemical_formula_sum              "Cd8 H16 C24 N24 O16"
_cell_length_a       8.521489636005526
_cell_length_b       10.2856749350073
_cell_length_c       13.66081945001732
_cell_angle_alpha    89.99986784273781
_cell_angle_beta     90.00012577483847
_cell_angle_gamma    90.00003463456515

_space_group_name_H-M_alt    "P 1"
_space_group_IT_number       1

loop_
  _space_group_symop_operation_xyz
  'x, y, z'

loop_
  _atom_site_type_symbol
  _atom_site_label
  _atom_site_symmetry_multiplicity
  _atom_site_fract_x
  _atom_site_fract_y
  _atom_site_fract_z
  _atom_site_occupancy
  Cd  Cd1       1.0  0.2500003494475961  0.5285629518109047  0.2499993564867964  1.0000
  Cd  Cd2       1.0  0.250001390212809  0.9714373521562577  0.7500004562632796  1.0000
  Cd  Cd3       1.0  0.7499994693657186  0.4714440370354467  0.7500005006166077  1.0000
  Cd  Cd4       1.0  0.7499996021009349  0.0285569977520268  0.2500001328724082  1.0000
  Cd  Cd5       1.0  0.31575932567921666  0.7500006546043065  0.49999958539608264  1.0000
  Cd  Cd6       1.0  0.18424036087830592  0.7500013877995781  2.0722052340000031e-07  1.0000
  Cd  Cd7       1.0  0.6842381461215509  0.24999952866210853  0.4999988076706074  1.0000
  Cd  Cd8       1.0  0.8157623927494625  0.24999935566145123  3.416496952000001e-07  1.0000
  H   H1        1.0  0.6037179820258345  0.7062100488988959  0.2893030896656157  1.0000
  H   H2        1.0  0.6037152347028751  0.7937865437471456  0.7106986715814472  1.0000
  H   H3        1.0  0.896283938630475  0.7937894134160857  0.7893010380702421  1.0000
  H   H4        1.0  0.8962840623847512  0.706210242798427  0.2106974637749559  1.0000
  H   H5        1.0  0.39628418379249547  0.29379013436645346  0.710696767445306  1.0000
  H   H6        1.0  0.39628458410761164  0.2062126672916804  0.2893011855287142  1.0000
  H   H7        1.0  0.1037170536815353  0.20621076985121786  0.2106973549988567  1.0000
  H   H8        1.0  0.1037145829194088  0.29378896824234596  0.7893009292933826  1.0000
  H   H9        1.0  0.4476088659619464  0.9808145681592818  0.0847688941429183  1.0000
  H   H10       1.0  0.44760546490770287  0.5191829183382379  0.9152319212737441  1.0000
  H   H11       1.0  0.0523887718379967  0.5191833255362469  0.5847690443006499  1.0000
  H   H12       1.0  0.052389815079337196  0.9808159069930228  0.41523049779949167  1.0000
  H   H13       1.0  0.552389779343855  0.019185615106309194  0.9152302309450775  1.0000
  H   H14       1.0  0.5523931804006779  0.4808172649251075  0.08476866785527191  1.0000
  H   H15       1.0  0.9476098734687427  0.48081588550228105  0.4152308128087015  1.0000
  H   H16       1.0  0.9476100037314977  0.019184276271744197  0.5847693593098171  1.0000
  C   C1        1.0  0.538954571794612  0.7532814132858263  0.2309316891134472  1.0000
  C   C2        1.0  0.5389566895988905  0.7467151468488638  0.7690685193953258  1.0000
  C   C3        1.0  0.9610436229798796  0.7467192001509558  0.7309312719679895  1.0000
  C   C4        1.0  0.9610451598658682  0.7532814608016736  0.2690680505933472  1.0000
  C   C5        1.0  0.461045247013999  0.24671974220711942  0.7690667039540104  1.0000
  C   C6        1.0  0.4610443027149813  0.25328309196431326  0.23093133771648414  1.0000
  C   C7        1.0  0.0389550223272153  0.2532809831135125  0.2690685851405235  1.0000
  C   C8        1.0  0.03895583244906929  0.24671969468932534  0.730931806515926  1.0000
  C   C9        1.0  0.45921486201955014  0.8927395845205267  0.1280108940127889  1.0000
  C   C10       1.0  0.45921489343146493  0.6072608244870208  0.8719870092173493  1.0000
  C   C11       1.0  0.040784101427462395  0.6072610933233946  0.6280108753827705  1.0000
  C   C12       1.0  0.040784928423498505  0.8927391056055709  0.3719886508225089  1.0000
  C   C13       1.0  0.5407849567916401  0.1072615709701807  0.8719889630956814  1.0000
  C   C14       1.0  0.5407837518743364  0.3927393587785701  0.1280121158706464  1.0000
  C   C15       1.0  0.9592145438809182  0.39273908993995116  0.3719897137462453  1.0000
  C   C16       1.0  0.9592148903860503  0.1072610776603113  0.62801047426629  1.0000
  C   C17       1.0  0.044150986446773295  0.47501884013060897  0.0467208268925674  1.0000
  C   C18       1.0  0.04415007048818609  0.024981840279337995  0.9532803038996462  1.0000
  C   C19       1.0  0.45585084759788685  0.02498062219601849  0.5467215195710295  1.0000
  C   C20       1.0  0.45584967348118965  0.47501832045922737  0.4532794430704143  1.0000
  C   C21       1.0  0.9558464853577389  0.5249774542275532  0.9532804942595305  1.0000
  C   C22       1.0  0.9558474013195095  0.9750232041123039  0.046721017244856  1.0000
  C   C23       1.0  0.5441513182262979  0.9750215055167287  0.4532812656202411  1.0000
  C   C24       1.0  0.5441524923366572  0.524977001675296  0.5467211460652379  1.0000
  N   N1        1.0  0.085765152475993  0.7003901387044992  0.312590508456438  1.0000
  N   N2        1.0  0.08576702147071558  0.7996100828043422  0.6874112754175741  1.0000
  N   N3        1.0  0.4142332868882335  0.7996099734344639  0.8125884713436378  1.0000
  N   N4        1.0  0.4142321509697239  0.7003904129873105  0.1874108343195076  1.0000
  N   N5        1.0  0.9142299723243068  0.2996081001027164  0.687412276733383  1.0000
  N   N6        1.0  0.9142316238367271  0.20039107268606673  0.31258858169009335  1.0000
  N   N7        1.0  0.5857688789288034  0.2003902098320154  0.18741065374677393  1.0000
  N   N8        1.0  0.5857688413422864  0.2996097702799929  0.8125875587495913  1.0000
  N   N9        1.0  0.3623960595267803  0.7913480722040448  0.1208334546285954  1.0000
  N   N10       1.0  0.3623938429807864  0.7086542326441786  0.8791657800353363  1.0000
  N   N11       1.0  0.13760287866906404  0.7086545720884345  0.620834124614511  1.0000
  N   N12       1.0  0.1376036571237123  0.7913456754466635  0.37916699823571076  1.0000
  N   N13       1.0  0.6376014122776327  0.20865502773795433  0.879166402476578  1.0000
  N   N14       1.0  0.6376048023243114  0.29134400616953116  0.12083334505435063  1.0000
  N   N15       1.0  0.8623957666400274  0.29134755562679965  0.3791664645128208  1.0000
  N   N16       1.0  0.8623949881855991  0.20865353558961888  0.6208343229146607  1.0000
  N   N17       1.0  0.5716812269493801  0.8736673519524132  0.19620455411290294  1.0000
  N   N18       1.0  0.5716751647931347  0.6263311690638246  0.8037949671908251  1.0000
  N   N19       1.0  0.9283191926502993  0.6263333679168426  0.6962050331461854  1.0000
  N   N20       1.0  0.9283221128374279  0.8736682488337238  0.30379351257504084  1.0000
  N   N21       1.0  0.42831976536426447  0.12633380353970838  0.8037945709758674  1.0000
  N   N22       1.0  0.42832348051196334  0.3736670697498852  0.19620415789886886  1.0000
  N   N23       1.0  0.07168179966685528  0.37366681534597035  0.30379628800494635  1.0000
  N   N24       1.0  0.07168122648184291  0.12633485111311415  0.6962041484726242  1.0000
  O   O1        1.0  0.1396801583752421  0.5547306353771475  0.0868340829485703  1.0000
  O   O2        1.0  0.13968175417344497  0.9452705854314942  0.9131641146644045  1.0000
  O   O3        1.0  0.36031983370013876  0.9452701686666812  0.5868346472234265  1.0000
  O   O4        1.0  0.3603193860619243  0.5547292184606577  0.41316531662113937  1.0000
  O   O5        1.0  0.8603173134257603  0.4452666312103233  0.9131650421411592  1.0000
  O   O6        1.0  0.8603192381396241  0.05473251451363129  0.086834278402165  1.0000
  O   O7        1.0  0.63968233211925  0.054732931276497296  0.4131652098849657  1.0000
  O   O8        1.0  0.6396804327469212  0.44526902035334354  0.5868338084693505  1.0000
  O   O9        1.0  0.9829344606102379  0.6378023830619242  0.9232961228346355  1.0000
  O   O10       1.0  0.9829365734559021  0.8621924555222475  0.0767054257755859  1.0000
  O   O11       1.0  0.5170655844849747  0.8621976408060731  0.4232970529502964  1.0000
  O   O12       1.0  0.5170634256985664  0.6378086305929855  0.5767060536497652  1.0000
  O   O13       1.0  0.0170641846973112  0.36219196684465527  0.0767051983199494  1.0000
  O   O14       1.0  0.017065592363586294  0.1378038388370939  0.9232958953797237  1.0000
  O   O15       1.0  0.482936581339338  0.1378083758115594  0.576705000217082  1.0000
  O   O16       1.0  0.4829363931119132  0.36219058044583347  0.4232938034603961  1.0000
