data_image0
_chemical_formula_structural       K4Co4H48C48N8O32
_chemical_formula_sum              "K4 Co4 H48 C48 N8 O32"
_cell_length_a       7.392111259183643
_cell_length_b       13.891852320185865
_cell_length_c       14.026789805834198
_cell_angle_alpha    90.00043467695832
_cell_angle_beta     95.51813787013052
_cell_angle_gamma    90.00035942971668

_space_group_name_H-M_alt    "P 1"
_space_group_IT_number       1

loop_
  _space_group_symop_operation_xyz
  'x, y, z'

loop_
  _atom_site_type_symbol
  _atom_site_label
  _atom_site_symmetry_multiplicity
  _atom_site_fract_x
  _atom_site_fract_y
  _atom_site_fract_z
  _atom_site_occupancy
  K   K1        1.0  0.749258896173103  0.06522297177318848  0.9472331450138185  1.0000
  K   K2        1.0  0.7507372184753008  0.5652246124018916  0.5527659289969975  1.0000
  K   K3        1.0  0.2507432575783994  0.934777328402248  0.0527657917258182  1.0000
  K   K4        1.0  0.2492554296685796  0.4347756877587798  0.4472332678559496  1.0000
  Co  Co1       1.0  0.7745054533405381  0.18403961954967227  0.6243331475247373  1.0000
  Co  Co2       1.0  0.7254922159344589  0.6840343029922878  0.8756640423387055  1.0000
  Co  Co3       1.0  0.2255007539875749  0.8159599607785922  0.3756638435126831  1.0000
  Co  Co4       1.0  0.27450179124956264  0.31596167809242814  0.1243352192388087  1.0000
  H   H1        1.0  0.351170460060274  0.9496850465559848  0.8667607682755829  1.0000
  H   H2        1.0  0.14882393463824434  0.4496828161890889  0.6332343258495358  1.0000
  H   H3        1.0  0.6488248511338311  0.050321012361649806  0.1332335649249003  1.0000
  H   H4        1.0  0.8511673544510857  0.5503196435083025  0.3667648062700266  1.0000
  H   H5        1.0  0.2645322270057946  0.0539029508575837  0.8557617994390654  1.0000
  H   H6        1.0  0.2354610085609536  0.5539016454015098  0.6442345406131337  1.0000
  H   H7        1.0  0.7354658102014184  0.9461031080678242  0.1442333765544035  1.0000
  H   H8        1.0  0.7645221576152109  0.4461008142918885  0.35576705628776756  1.0000
  H   H9        1.0  0.8142753294174769  0.20931727159024396  0.10965827761703652  1.0000
  H   H10       1.0  0.6857257704557965  0.709316974941288  0.3903395742035727  1.0000
  H   H11       1.0  0.18572407472426283  0.7906873476476051  0.8903376764213675  1.0000
  H   H12       1.0  0.31428044477150513  0.290686204621771  0.6096581301571363  1.0000
  H   H13       1.0  0.6151567406320809  0.23091745803938576  0.131899879650085  1.0000
  H   H14       1.0  0.8848432964175502  0.7309190905462516  0.36809879692447117  1.0000
  H   H15       1.0  0.3848427186213854  0.7690850016785404  0.8681010675398326  1.0000
  H   H16       1.0  0.11516018493109209  0.26908552869910807  0.6318973513405055  1.0000
  H   H17       1.0  0.8767872011301493  0.3126908493502044  0.4658216549869465  1.0000
  H   H18       1.0  0.6232030392351645  0.81268688491555  0.034175743986097  1.0000
  H   H19       1.0  0.12320542337382528  0.6873072912629609  0.5341754019313356  1.0000
  H   H20       1.0  0.37680045783017135  0.18731269541046203  0.9658218308755622  1.0000
  H   H21       1.0  0.9641951518841482  0.2790540943574129  0.3002879808955825  1.0000
  H   H22       1.0  0.535794639459553  0.7790532731855678  0.1997091437356389  1.0000
  H   H23       1.0  0.035800190743344694  0.7209418867215405  0.6997092054982731  1.0000
  H   H24       1.0  0.4642156765905341  0.22094846670045604  0.8002908947716137  1.0000
  H   H25       1.0  0.9541661367154078  0.10761810765087182  0.24081576395138168  1.0000
  H   H26       1.0  0.5458268180285658  0.607617777371793  0.259181647968262  1.0000
  H   H27       1.0  0.04582650352448069  0.8923778734285859  0.7591827195753282  1.0000
  H   H28       1.0  0.45417806174565106  0.3923839625042262  0.7408181315702437  1.0000
  H   H29       1.0  0.8524944686935356  0.979003941867731  0.3468218733680927  1.0000
  H   H30       1.0  0.6475047872882201  0.4790047399387589  0.1531772058505254  1.0000
  H   H31       1.0  0.147503607817427  0.020991319375333696  0.6531768691244366  1.0000
  H   H32       1.0  0.35249603889496933  0.520995560245197  0.8468245193813927  1.0000
  H   H33       1.0  0.7358309187718107  0.8809711176592571  0.4435920377984033  1.0000
  H   H34       1.0  0.7641902508216702  0.3809758773276997  0.05641804208841711  1.0000
  H   H35       1.0  0.2641740475715438  0.11902198409018888  0.5564155880996609  1.0000
  H   H36       1.0  0.23582011246978854  0.6190244228820561  0.9435862762646678  1.0000
  H   H37       1.0  0.6025365873998538  0.7824150462398548  0.5686198570070644  1.0000
  H   H38       1.0  0.8974965373027075  0.2824152151102837  0.9313947333031933  1.0000
  H   H39       1.0  0.39746434116045753  0.217585253979955  0.4313911412368725  1.0000
  H   H40       1.0  0.10251518505290849  0.7175843652555682  0.0686096497891455  1.0000
  H   H41       1.0  0.5332052612359633  0.863314738820499  0.721666574602864  1.0000
  H   H42       1.0  0.9668085022526042  0.3633082012521455  0.7783427112367249  1.0000
  H   H43       1.0  0.46678744995727334  0.1366927598263104  0.2783383287483687  1.0000
  H   H44       1.0  0.03319369874026991  0.636690659247016  0.22166050534874424  1.0000
  H   H45       1.0  0.5962071617612709  0.03803981034653251  0.7425928409613362  1.0000
  H   H46       1.0  0.9037885820362916  0.5380284165868261  0.7574052979711183  1.0000
  H   H47       1.0  0.4037895557672044  0.9619684081293798  0.2574058368418477  1.0000
  H   H48       1.0  0.09620541727736762  0.46196828434154463  0.24259325030072182  1.0000
  C   C1        1.0  0.8732846841000566  0.24035552334088092  0.4361519203067772  1.0000
  C   C2        1.0  0.626708667824161  0.7403532385189422  0.0638450829042156  1.0000
  C   C3        1.0  0.12671474361912521  0.7596418974411562  0.5638461736281286  1.0000
  C   C4        1.0  0.3732948449963018  0.2596470616589954  0.9361539185776095  1.0000
  C   C5        1.0  0.921169932996726  0.22063865723217901  0.3445517458079408  1.0000
  C   C6        1.0  0.5788231635956862  0.7206376382179797  0.1554458098982892  1.0000
  C   C7        1.0  0.0788294947080388  0.7793566040106298  0.6554463481181542  1.0000
  C   C8        1.0  0.42118443431166247  0.279363381816637  0.8445540991216518  1.0000
  C   C9        1.0  0.9153266896219705  0.1258858576593767  0.3115479620057329  1.0000
  C   C10       1.0  0.5846678680534653  0.6258843921374933  0.18844966365044513  1.0000
  C   C11       1.0  0.08467138688898503  0.8741094035836883  0.6884507804867966  1.0000
  C   C12       1.0  0.41533837078490893  0.37411662789461536  0.8115501806273073  1.0000
  C   C13       1.0  0.8576207989195198  0.053760257519208196  0.3703762353542714  1.0000
  C   C14       1.0  0.6423782400457869  0.5537585307939352  0.1296217742933479  1.0000
  C   C15       1.0  0.14237863667001702  0.9462364434191812  0.6296225718863084  1.0000
  C   C16       1.0  0.3576252885250071  0.4462417693895163  0.8703786538057089  1.0000
  C   C17       1.0  0.810085872289548  0.0777760435908021  0.4611005216761441  1.0000
  C   C18       1.0  0.6899135187969991  0.5777766558812087  0.038900537097710214  1.0000
  C   C19       1.0  0.18991628930828597  0.9222199375089346  0.5388991283544939  1.0000
  C   C20       1.0  0.3100886664599614  0.42222436415166  0.961101252879331  1.0000
  C   C21       1.0  0.7411649872210049  0.0104863859958542  0.5285001489493837  1.0000
  C   C22       1.0  0.7588399416642061  0.5104840770141479  0.971501785021907  1.0000
  C   C23       1.0  0.25883856496567154  0.9895124745030516  0.4715024190696511  1.0000
  C   C24       1.0  0.24116223569836856  0.4895140636303381  0.028499291634773303  1.0000
  C   C25       1.0  0.7060635880120857  0.9130764777727334  0.5110869892012531  1.0000
  C   C26       1.0  0.7939562367292156  0.41307674581682363  0.9889193949681357  1.0000
  C   C27       1.0  0.29394134684982737  0.08691950335131793  0.4889177834740863  1.0000
  C   C28       1.0  0.20605275173814158  0.5869228345385052  0.011083432022587702  1.0000
  C   C29       1.0  0.6325084311887182  0.8582826354112427  0.5808559871949158  1.0000
  C   C30       1.0  0.867514786519088  0.35828189081541245  0.919154424128415  1.0000
  C   C31       1.0  0.36749248162606574  0.1417183846494581  0.4191535844347314  1.0000
  C   C32       1.0  0.1324928350089394  0.6417184093810634  0.08084762481444589  1.0000
  C   C33       1.0  0.5918138839104474  0.9028089922569009  0.6652666575208457  1.0000
  C   C34       1.0  0.9082017422619871  0.4028026942170797  0.8347408752667745  1.0000
  C   C35       1.0  0.4081842792945806  0.09719634686621248  0.3347399314075687  1.0000
  C   C36       1.0  0.09180315323371963  0.5971947265860037  0.16526033087134806  1.0000
  C   C37       1.0  0.6291388113777074  0.00022464728502310003  0.6786108014843676  1.0000
  C   C38       1.0  0.8708632623293511  0.5002150763025172  0.821390919274144  1.0000
  C   C39       1.0  0.3708592966915631  0.9997792521259684  0.3213907942778533  1.0000
  C   C40       1.0  0.12913482993673853  0.4997809047924732  0.1786092498385514  1.0000
  C   C41       1.0  0.9609968431294789  0.1540991875740616  0.7673389896161709  1.0000
  C   C42       1.0  0.5389963728742728  0.6540950313221785  0.7326599017453077  1.0000
  C   C43       1.0  0.0390066539454637  0.8459018324447671  0.23265858525135744  1.0000
  C   C44       1.0  0.460988175953112  0.34590094976431374  0.2673438997972113  1.0000
  C   C45       1.0  0.6296799978866333  0.3340128222456968  0.6041476968684094  1.0000
  C   C46       1.0  0.8703237821679225  0.8340023827392288  0.8958537636757883  1.0000
  C   C47       1.0  0.37032895909447916  0.6659889176378256  0.3958522768966546  1.0000
  C   C48       1.0  0.12967430219897844  0.16598999912095988  0.1041456921136117  1.0000
  N   N1        1.0  0.8204667872835714  0.1703390762955834  0.4936830965197601  1.0000
  N   N2        1.0  0.6795297465092389  0.6703350843501495  0.006317096372143303  1.0000
  N   N3        1.0  0.17953537432867964  0.829659064343389  0.5063165535196887  1.0000
  N   N4        1.0  0.3204697048402352  0.32966305628657006  0.9936831374915442  1.0000
  N   N5        1.0  0.7052928137769001  0.05261638033457669  0.612439720866668  1.0000
  N   N6        1.0  0.7947072254798614  0.5526099452381459  0.8875608711306741  1.0000
  N   N7        1.0  0.2947093557345326  0.9473853595391899  0.38756064249607647  1.0000
  N   N8        1.0  0.2052908668006381  0.4473881953960657  0.1124392979908322  1.0000
  O   O1        1.0  0.017838246946198  0.15517993538475142  0.6798324960049698  1.0000
  O   O2        1.0  0.4821603863502801  0.6551786425327323  0.820162011094432  1.0000
  O   O3        1.0  0.9821693351867895  0.8448174854122996  0.3201659863830599  1.0000
  O   O4        1.0  0.5178336129681825  0.34481877824204327  0.1798365371803357  1.0000
  O   O5        1.0  0.78719851479363  0.17803449571172794  0.7630522480419231  1.0000
  O   O6        1.0  0.7127922946932658  0.6780251902650036  0.7369459957313892  1.0000
  O   O7        1.0  0.21280770043847497  0.821969403697743  0.2369454563217204  1.0000
  O   O8        1.0  0.28718948086523  0.3219700709507762  0.263052683163508  1.0000
  O   O9        1.0  0.05654216293803669  0.13195909881789453  0.8421603284400376  1.0000
  O   O10       1.0  0.4434521461895073  0.6319621873003953  0.6578395015213018  1.0000
  O   O11       1.0  0.9434586317300744  0.8680390418158054  0.1578385435486069  1.0000
  O   O12       1.0  0.5565324026522943  0.36803595332532524  0.3421643000300278  1.0000
  O   O13       1.0  0.5433286169988419  0.24981151236274002  0.6009264382984938  1.0000
  O   O14       1.0  0.9566672437081679  0.7498107421105688  0.8990740117950864  1.0000
  O   O15       1.0  0.45667491155753476  0.7501866282814831  0.39907398979175923  1.0000
  O   O16       1.0  0.0433253808102236  0.250189558041825  0.10092304513199932  1.0000
  O   O17       1.0  0.805938530339624  0.3214266720999889  0.6228431425295895  1.0000
  O   O18       1.0  0.6940745794540817  0.8214205429158027  0.8771572419526664  1.0000
  O   O19       1.0  0.19407174632502946  0.6785736280794409  0.3771533294287083  1.0000
  O   O20       1.0  0.3059303002864979  0.1785761580353551  0.12284253756529041  1.0000
  O   O21       1.0  0.552029757959197  0.4133058845424883  0.5910653277414966  1.0000
  O   O22       1.0  0.94796965224036  0.9132958033109945  0.9089372338895387  1.0000
  O   O23       1.0  0.4479724273121732  0.5866972950296085  0.4089364622443554  1.0000
  O   O24       1.0  0.05202434703485889  0.0866951388461104  0.0910613143588108  1.0000
  O   O25       1.0  0.37898931266516206  0.018956110064316103  0.8746799659921578  1.0000
  O   O26       1.0  0.12100345635654722  0.5189528396201197  0.6253160890118111  1.0000
  O   O27       1.0  0.6210060064041089  0.9810499488560822  0.1253150805169412  1.0000
  O   O28       1.0  0.8789851145900371  0.4810489002258578  0.3746829136204397  1.0000
  O   O29       1.0  0.690140697184397  0.1822061866054412  0.10351590253993952  1.0000
  O   O30       1.0  0.8098613998392422  0.6822070688995083  0.39648179289896046  1.0000
  O   O31       1.0  0.30986006602149985  0.8177977127885043  0.8964801162377185  1.0000
  O   O32       1.0  0.1901447996425318  0.3177968305044486  0.6035144848474516  1.0000
