data_image0
_chemical_formula_structural       Mg6H24C72N6O30
_chemical_formula_sum              "Mg6 H24 C72 N6 O30"
_cell_length_a       6.853698611796803
_cell_length_b       34.36558690475086
_cell_length_c       34.3650095259247
_cell_angle_alpha    119.56463007745913
_cell_angle_beta     93.81183057016914
_cell_angle_gamma    93.81103733700624

_space_group_name_H-M_alt    "P 1"
_space_group_IT_number       1

loop_
  _space_group_symop_operation_xyz
  'x, y, z'

loop_
  _atom_site_type_symbol
  _atom_site_label
  _atom_site_symmetry_multiplicity
  _atom_site_fract_x
  _atom_site_fract_y
  _atom_site_fract_z
  _atom_site_occupancy
  Mg  Mg1       1.0  0.44116835348190625  0.6721680519014088  0.3057286813997138  1.0000
  Mg  Mg2       1.0  0.13547304199286  0.6942560349233844  0.36646035595747867  1.0000
  Mg  Mg3       1.0  0.7689872825973793  0.6335367484216122  0.3278282171035869  1.0000
  Mg  Mg4       1.0  0.6619524490413795  0.33324256212199543  0.6973274123941451  1.0000
  Mg  Mg5       1.0  0.9645969422501396  0.30266535864198135  0.6359023200471655  1.0000
  Mg  Mg6       1.0  0.328740614431041  0.3641010651785167  0.6667492299131511  1.0000
  H   H1        1.0  0.9187246586343605  0.8205753909334776  0.429220100390758  1.0000
  H   H2        1.0  0.48953935085349093  0.5707612983662715  0.39136292143458484  1.0000
  H   H3        1.0  0.09810339426663024  0.6086531722607876  0.17943034753516685  1.0000
  H   H4        1.0  0.38719731514820666  0.881438026254699  0.42996964314560426  1.0000
  H   H5        1.0  0.9572430222845939  0.5700150927752221  0.45147844057832043  1.0000
  H   H6        1.0  0.5057062488309184  0.5485425608119741  0.1185572964641608  1.0000
  H   H7        1.0  0.20156472906219858  0.8060351952381952  0.38594310833165946  1.0000
  H   H8        1.0  0.8156601631659441  0.6140433288128976  0.4201056986200485  1.0000
  H   H9        1.0  0.395498953961159  0.5798862387896551  0.19395731823670573  1.0000
  H   H10       1.0  0.31165322231860426  0.9683378936330769  0.4543429464607486  1.0000
  H   H11       1.0  0.8573126065421589  0.5457066200649835  0.514064154491443  1.0000
  H   H12       1.0  0.3432958589205484  0.48601504744057433  0.031671642007069165  1.0000
  H   H13       1.0  0.813554826955233  0.031249331181989203  0.5669584928252219  1.0000
  H   H14       1.0  0.246945223726236  0.43297326085603777  0.4642080868222322  1.0000
  H   H15       1.0  0.78239661680729  0.5357316913152061  0.9687561868777194  1.0000
  H   H16       1.0  0.7323021100208393  0.1221037541504018  0.593517496198956  1.0000
  H   H17       1.0  0.13911229952596935  0.4064584398718126  0.5285773179791207  1.0000
  H   H18       1.0  0.6102975756375598  0.47143647786710124  0.8778860888832369  1.0000
  H   H19       1.0  0.9096334254526611  0.19859318446806645  0.6328649346775777  1.0000
  H   H20       1.0  0.2769404887487639  0.36708663907909067  0.5657205336380571  1.0000
  H   H21       1.0  0.7111186189937015  0.4343107381454772  0.801394446491031  1.0000
  H   H22       1.0  0.19293380649757094  0.17718817623963196  0.5855720191079286  1.0000
  H   H23       1.0  0.6076274990935743  0.4144456597145736  0.5915969533177048  1.0000
  H   H24       1.0  0.015884287605878546  0.4083750503273293  0.8228120262553915  1.0000
  C   C1        1.0  0.7747515796608155  0.7362231543564665  0.3802968096472555  1.0000
  C   C2        1.0  0.39446977892956886  0.6196907957627362  0.35593838175804404  1.0000
  C   C3        1.0  0.03845902381514331  0.6440568836017919  0.26378078077365785  1.0000
  C   C4        1.0  0.6593800523159102  0.7746717837440614  0.39334405867464994  1.0000
  C   C5        1.0  0.26606809654471425  0.6066481900535835  0.3813447400402907  1.0000
  C   C6        1.0  0.8846421954301604  0.6186474865831502  0.22532608073939295  1.0000
  C   C7        1.0  0.761993645398455  0.8179325754665573  0.41954457987844773  1.0000
  C   C8        1.0  0.342497494722366  0.580446740677168  0.39840312765348784  1.0000
  C   C9        1.0  0.9439978747065961  0.6016116516199617  0.18206734574622627  1.0000
  C   C10       1.0  0.6674159163617261  0.8561558722722183  0.4322033712795204  1.0000
  C   C11       1.0  0.2352396789505137  0.5677765518241035  0.4239542638095984  1.0000
  C   C12       1.0  0.8111962894492564  0.5760580974673248  0.14384344225380372  1.0000
  C   C13       1.0  0.4638602149463793  0.8518161832103673  0.4203730571960307  1.0000
  C   C14       1.0  0.04354517170444445  0.5796149435663339  0.431463139624107  1.0000
  C   C15       1.0  0.6119930256325501  0.5685513054443521  0.14817964173042247  1.0000
  C   C16       1.0  0.3591527950591029  0.8093861966950939  0.3954471778228523  1.0000
  C   C17       1.0  0.9637250341923362  0.6045320082406606  0.4139512278041196  1.0000
  C   C18       1.0  0.5497082084398529  0.5860403942078422  0.19060645495556372  1.0000
  C   C19       1.0  0.4523515031938955  0.7697417403283424  0.3802298328520806  1.0000
  C   C20       1.0  0.07212976424727212  0.6197575085558642  0.38952893285126333  1.0000
  C   C21       1.0  0.6825231529277714  0.6104591259828781  0.23025199365038435  1.0000
  C   C22       1.0  0.7302133056203672  0.9373656541527708  0.49413184989500536  1.0000
  C   C23       1.0  0.23622777816718354  0.5058339969329709  0.4432115780967009  1.0000
  C   C24       1.0  0.7928892621763171  0.5568015694976653  0.06264269915335073  1.0000
  C   C25       1.0  0.8951099869874496  0.9735875323406803  0.5070226180743376  1.0000
  C   C26       1.0  0.38825035918015516  0.49294813041044705  0.4665549976132369  1.0000
  C   C27       1.0  0.9215552015979754  0.53347288864763  0.026419638244469426  1.0000
  C   C28       1.0  0.032924453260563  0.9564050491449057  0.47599765970186075  1.0000
  C   C29       1.0  0.5569915547864992  0.5240102963150194  0.48043965995963595  1.0000
  C   C30       1.0  0.0765116394224208  0.5196163437444667  0.043600433108792934  1.0000
  C   C31       1.0  0.9603173552488611  0.9087955248584906  0.44232555075636537  1.0000
  C   C32       1.0  0.5180499348572667  0.5576880153768969  0.4664992609582584  1.0000
  C   C33       1.0  0.05148811592021479  0.5335483764048733  0.09121100891320572  1.0000
  C   C34       1.0  0.2052757723210519  0.9818647027852947  0.47859207310730056  1.0000
  C   C35       1.0  0.7267566891192203  0.5214303792587387  0.5033132673164786  1.0000
  C   C36       1.0  0.22339960881183174  0.4967452118129999  0.01814582257715367  1.0000
  C   C37       1.0  0.2305656015404907  0.025966693433929305  0.5144209262152941  1.0000
  C   C38       1.0  0.7163236334507983  0.48559199362361494  0.511564016560584  1.0000
  C   C39       1.0  0.20461613920891616  0.4884624318482624  0.9740412367654444  1.0000
  C   C40       1.0  0.09216096123525118  0.04318655638536481  0.5452980136056809  1.0000
  C   C41       1.0  0.5471338745839347  0.45467968836720746  0.49787043987274876  1.0000
  C   C42       1.0  0.04904554608094001  0.5021357860444269  0.9568231245198646  1.0000
  C   C43       1.0  0.9203183328936217  0.017675715479299508  0.5428205900918144  1.0000
  C   C44       1.0  0.3777897763545113  0.4571336546919726  0.4748218349769291  1.0000
  C   C45       1.0  0.9027211934890926  0.5251709142291645  0.982330519537186  1.0000
  C   C46       1.0  0.1613067365928273  0.09119579101879792  0.5782283012502205  1.0000
  C   C47       1.0  0.5834214644293354  0.42174184806619064  0.5129229061479067  1.0000
  C   C48       1.0  0.07020168988744767  0.48704632958717314  0.9088122480116212  1.0000
  C   C49       1.0  0.3940641217900874  0.06244854172213371  0.5270862063621848  1.0000
  C   C50       1.0  0.8671608207056491  0.47293816384212317  0.5353827564122611  1.0000
  C   C51       1.0  0.3316552247534119  0.464643771548957  0.9375592235502807  1.0000
  C   C52       1.0  0.44908099174453764  0.14446682898844906  0.5869380017188348  1.0000
  C   C53       1.0  0.8623940001694164  0.4130643647193608  0.5575193271815664  1.0000
  C   C54       1.0  0.30468502506239764  0.44248476289191546  0.8555361551213068  1.0000
  C   C55       1.0  0.6521927127846465  0.15067351191317618  0.6001320211349537  1.0000
  C   C56       1.0  0.052291337799296414  0.39985507007433096  0.5505298862642789  1.0000
  C   C57       1.0  0.5015725704156964  0.4494870558470653  0.8493236618044051  1.0000
  C   C58       1.0  0.75223913445582  0.1937082487365629  0.6224125025321782  1.0000
  C   C59       1.0  0.130002240809013  0.37756173013462313  0.5712777240834299  1.0000
  C   C60       1.0  0.5585808704929534  0.4287385277446206  0.8062875344854988  1.0000
  C   C61       1.0  0.6550943275491931  0.2321995593652418  0.6332314882957135  1.0000
  C   C62       1.0  0.021981197226146894  0.3667545136140761  0.5989519542658571  1.0000
  C   C63       1.0  0.4229529293335191  0.4010502939240937  0.767795855409183  1.0000
  C   C64       1.0  0.44783742587648584  0.22533283144971256  0.6193987516612225  1.0000
  C   C65       1.0  0.8285689695020225  0.38059657280068404  0.6059247476678777  1.0000
  C   C66       1.0  0.2225552981609482  0.3940759737452241  0.7746629534585523  1.0000
  C   C67       1.0  0.3497981595008993  0.18139624111045552  0.5961016192430861  1.0000
  C   C68       1.0  0.7539281104499906  0.4039062311870438  0.5852907069353748  1.0000
  C   C69       1.0  0.16850102243819262  0.41470766611270454  0.818602456058791  1.0000
  C   C70       1.0  0.3282500523710397  0.2623373616265  0.6280768528000209  1.0000
  C   C71       1.0  0.7002255942237241  0.3719200433004276  0.6342409243208493  1.0000
  C   C72       1.0  0.06596570414492224  0.3657476448963522  0.7376611346655793  1.0000
  N   N1        1.0  0.7804673828693963  0.899118886061686  0.45557704362117596  1.0000
  N   N2        1.0  0.32494224625900614  0.544420370438708  0.4435605609331645  1.0000
  N   N3        1.0  0.8813280348856691  0.5564811131080277  0.1008844795584452  1.0000
  N   N4        1.0  0.3413420287331874  0.10088623991058654  0.5651181896617531  1.0000
  N   N5        1.0  0.776510390958208  0.4348754623964553  0.5357448853182092  1.0000
  N   N6        1.0  0.24055640447551238  0.46425031101564684  0.8991217063954338  1.0000
  O   O1        1.0  0.9543994713598778  0.7420611938544328  0.3959576398410007  1.0000
  O   O2        1.0  0.5584988316631437  0.6040352969651508  0.34612330761672894  1.0000
  O   O3        1.0  0.21230181441189436  0.6538839095983776  0.2579436234795125  1.0000
  O   O4        1.0  0.6890397436254574  0.6963335110979827  0.3517714911487956  1.0000
  O   O5        1.0  0.3372712952081257  0.6482139306983682  0.34457663045287756  1.0000
  O   O6        1.0  0.9926653090820848  0.6554014815548757  0.30366473435542224  1.0000
  O   O7        1.0  0.34469835681154154  0.7297414022718204  0.3541048958449339  1.0000
  O   O8        1.0  0.990641520771362  0.6458913558428423  0.375657685282114  1.0000
  O   O9        1.0  0.6149027821073358  0.6243253736204937  0.27025518860295256  1.0000
  O   O10       1.0  0.1475272181095022  0.25436666681537196  0.612420095321049  1.0000
  O   O11       1.0  0.5351755386125205  0.38758121542521456  0.6419262490584643  1.0000
  O   O12       1.0  0.8932268757232578  0.35805130399300117  0.7456244784782626  1.0000
  O   O13       1.0  0.4113020788430646  0.3033132754307034  0.6526241961282012  1.0000
  O   O14       1.0  0.7587164209513801  0.3473673514107533  0.6506656694494026  1.0000
  O   O15       1.0  0.10804132869044032  0.34933421579942353  0.6966858974543158  1.0000
  O   O16       1.0  0.7601170651977682  0.2729470696391588  0.6558616096388904  1.0000
  O   O17       1.0  0.10428001322603823  0.34411794889618363  0.6170712508572578  1.0000
  O   O18       1.0  0.4872183180773746  0.38293319915973006  0.7270435336274588  1.0000
  O   O19       1.0  0.5808503910496796  0.939314138516899  0.5122539136062445  1.0000
  O   O20       1.0  0.06879023944575388  0.48767614869524334  0.42700519539766907  1.0000
  O   O21       1.0  0.6415942638842437  0.5729780466878722  0.060691842732929005  1.0000
  O   O22       1.0  0.03658617212183675  0.8826941950150414  0.40948923009543853  1.0000
  O   O23       1.0  0.6270846276485075  0.590537252308238  0.47324774967513156  1.0000
  O   O24       1.0  0.15377925566441775  0.5268013344053842  0.1173100033924116  1.0000
  O   O25       1.0  0.08173406856245438  0.11765709799927042  0.6102504855514184  1.0000
  O   O26       1.0  0.4719467948730339  0.38969209599067517  0.507332989992193  1.0000
  O   O27       1.0  0.9642324646279762  0.4926244960783068  0.8823559796603817  1.0000
  O   O28       1.0  0.5437833970467877  0.0606600185124506  0.5091260676029421  1.0000
  O   O29       1.0  0.034773731797685135  0.4909155145493713  0.5515711810622151  1.0000
  O   O30       1.0  0.48314136625116066  0.4484723414966608  0.9393565121488123  1.0000
