data_image0
_chemical_formula_structural       Tl4H4C8O16
_chemical_formula_sum              "Tl4 H4 C8 O16"
_cell_length_a       6.392732069481741
_cell_length_b       6.495391060014153
_cell_length_c       10.285844378151978
_cell_angle_alpha    90.00006085325082
_cell_angle_beta     94.06954744187395
_cell_angle_gamma    90.00023611340275

_space_group_name_H-M_alt    "P 1"
_space_group_IT_number       1

loop_
  _space_group_symop_operation_xyz
  'x, y, z'

loop_
  _atom_site_type_symbol
  _atom_site_label
  _atom_site_symmetry_multiplicity
  _atom_site_fract_x
  _atom_site_fract_y
  _atom_site_fract_z
  _atom_site_occupancy
  Tl  Tl1       1.0  0.4528631943733998  0.4666458657755755  0.20771469698989622  1.0000
  Tl  Tl2       1.0  0.04713313492400321  0.9666416062876382  0.7922852174854428  1.0000
  Tl  Tl3       1.0  0.5471359456716769  0.5333646636905698  0.7922873727123232  1.0000
  Tl  Tl4       1.0  0.9528628625507236  0.033365844066274505  0.20771767821312892  1.0000
  H   H1        1.0  0.06003530480664661  0.4437292404210212  0.7092824645192692  1.0000
  H   H2        1.0  0.4399656896479129  0.9437334310664485  0.29070890291007606  1.0000
  H   H3        1.0  0.9399670757987622  0.556264353952237  0.2907032282622382  1.0000
  H   H4        1.0  0.5600350553615172  0.05626940063199021  0.7092874081627586  1.0000
  C   C1        1.0  0.08469683997126509  0.4149641040829268  0.5121355053284944  1.0000
  C   C2        1.0  0.4152883412700063  0.9149885581136133  0.48785705300230847  1.0000
  C   C3        1.0  0.9153007807946381  0.585009476096552  0.4878587159332995  1.0000
  C   C4        1.0  0.5847296663779318  0.08500503630094164  0.5121381168429338  1.0000
  C   C5        1.0  0.9411915244474188  0.5416091418748293  0.05838858360223042  1.0000
  C   C6        1.0  0.5588026438427818  0.04162691557362311  0.9416113954441129  1.0000
  C   C7        1.0  0.058802929307077506  0.45839368981274486  0.9416103513980688  1.0000
  C   C8        1.0  0.4411824006324211  0.9583913116256543  0.058387101758413024  1.0000
  O   O1        1.0  0.1319588434109207  0.36303056490842783  0.6341642105946264  1.0000
  O   O2        1.0  0.3680464488320539  0.8630284296966908  0.36583897356052125  1.0000
  O   O3        1.0  0.868041938344362  0.6369645690189359  0.36582626888150577  1.0000
  O   O4        1.0  0.6319651695359951  0.13696824382708436  0.6341743711296814  1.0000
  O   O5        1.0  0.1687812259755077  0.33366809338129144  0.42126830164099976  1.0000
  O   O6        1.0  0.331228668087725  0.8336985151255194  0.5787321618507875  1.0000
  O   O7        1.0  0.8312147652895946  0.6662993285906539  0.5787355659736237  1.0000
  O   O8        1.0  0.6688050094978023  0.1662981584307062  0.4212656815335762  1.0000
  O   O9        1.0  0.010159925043218698  0.47365140946053697  0.1706770217770028  1.0000
  O   O10       1.0  0.4898442497956097  0.9736567734868304  0.8293271509420067  1.0000
  O   O11       1.0  0.9898376712911697  0.5263591199988228  0.8293210872288129  1.0000
  O   O12       1.0  0.5101501549686702  0.026358374633083815  0.1706795595214032  1.0000
  O   O13       1.0  0.7917660426887209  0.665193361987349  0.03718915962306821  1.0000
  O   O14       1.0  0.7082254322411147  0.16521180124626514  0.9628214648392159  1.0000
  O   O15       1.0  0.2082377284788706  0.3348125488396009  0.9628247921664652  1.0000
  O   O16       1.0  0.291754864680307  0.8348018072893809  0.03718361698530261  1.0000
