data_image0
_chemical_formula_structural       Dy4H24C24N36
_chemical_formula_sum              "Dy4 H24 C24 N36"
_cell_length_a       9.30954003655029
_cell_length_b       9.309537687116695
_cell_length_c       12.62104195240308
_cell_angle_alpha    91.69690488815208
_cell_angle_beta     91.69705227801087
_cell_angle_gamma    119.26540123772075

_space_group_name_H-M_alt    "P 1"
_space_group_IT_number       1

loop_
  _space_group_symop_operation_xyz
  'x, y, z'

loop_
  _atom_site_type_symbol
  _atom_site_label
  _atom_site_symmetry_multiplicity
  _atom_site_fract_x
  _atom_site_fract_y
  _atom_site_fract_z
  _atom_site_occupancy
  Dy  Dy1       1.0  0.5205058274741178  0.257770111927428  0.42804584818874514  1.0000
  Dy  Dy2       1.0  0.7422300435187168  0.47949456029619614  0.07195404909103331  1.0000
  Dy  Dy3       1.0  0.47949387715516417  0.742229028372286  0.571953985097494  1.0000
  Dy  Dy4       1.0  0.25777026518818513  0.5205058129067199  0.9280458228923081  1.0000
  H   H1        1.0  0.22352253978358044  0.29312367107907994  0.2345462012000752  1.0000
  H   H2        1.0  0.706876493836539  0.7764771036023819  0.265454949141251  1.0000
  H   H3        1.0  0.7764744178912651  0.7068742424285831  0.7654559253634545  1.0000
  H   H4        1.0  0.2931233441735515  0.22352450222469142  0.7345449388918581  1.0000
  H   H5        1.0  0.13261571590405194  0.5351354095932948  0.2712668995084897  1.0000
  H   H6        1.0  0.4648648616436616  0.8673844011221876  0.2287339463807285  1.0000
  H   H7        1.0  0.8673823143212117  0.4648625019703303  0.7287344572793444  1.0000
  H   H8        1.0  0.5351360489168471  0.13261720276084796  0.7712651718766921  1.0000
  H   H9        1.0  0.9010318812950615  0.253850877467265  0.33691460393374945  1.0000
  H   H10       1.0  0.7461467688398926  0.09896700857404991  0.16308478228588544  1.0000
  H   H11       1.0  0.09896876917586882  0.7461458020303058  0.6630867820989864  1.0000
  H   H12       1.0  0.25385138364610776  0.9010333574015166  0.8369126671337243  1.0000
  H   H13       1.0  0.9711073966256052  0.0080391610447705  0.4002525146331664  1.0000
  H   H14       1.0  0.9919610947238199  0.028893057445728204  0.0997480523069214  1.0000
  H   H15       1.0  0.028895674603844786  0.9919624545117853  0.5997506110340254  1.0000
  H   H16       1.0  0.008038136984637853  0.971107313255047  0.9002510046060621  1.0000
  H   H17       1.0  0.1582484653849504  0.8893686723375612  0.16039811703127071  1.0000
  H   H18       1.0  0.11063056340661594  0.8417517475306797  0.3396008118432973  1.0000
  H   H19       1.0  0.8417496915490759  0.11063169808416973  0.8396009172343781  1.0000
  H   H20       1.0  0.8893686683018418  0.15824862317010263  0.6603982450696863  1.0000
  H   H21       1.0  0.3603094995780509  0.08170395947226441  0.004086071467888498  1.0000
  H   H22       1.0  0.9182937783854823  0.639690759789758  0.4959145796021289  1.0000
  H   H23       1.0  0.639690205051231  0.9182951808274497  0.9959137618183435  1.0000
  H   H24       1.0  0.08170498485017673  0.3603108457582565  0.5040852857836455  1.0000
  C   C1        1.0  0.2645156945326192  0.3897762477296425  0.2966145651886621  1.0000
  C   C2        1.0  0.6102238745663442  0.7354845953607666  0.20338496027225259  1.0000
  C   C3        1.0  0.7354823290205985  0.610221657164729  0.7033844143301096  1.0000
  C   C4        1.0  0.3897770382181847  0.264517010745351  0.7966149504081912  1.0000
  C   C5        1.0  0.21899896951067885  0.5099516740006464  0.3151145529216279  1.0000
  C   C6        1.0  0.4900488287619638  0.7810002712306103  0.18488559317798806  1.0000
  C   C7        1.0  0.7809985855697404  0.4900474657409646  0.6848852350699346  1.0000
  C   C8        1.0  0.5099504051705068  0.21900010169325418  0.8151142561580116  1.0000
  C   C9        1.0  0.8306468580369073  0.14641204547343994  0.3822930453088489  1.0000
  C   C10       1.0  0.8535884137044079  0.16935417510202203  0.117706480561246  1.0000
  C   C11       1.0  0.16935560244287004  0.8535883305106609  0.617707664392171  1.0000
  C   C12       1.0  0.14640974100560544  0.8306461930966194  0.8822917612813796  1.0000
  C   C13       1.0  0.8653261389224484  0.024072219990742407  0.4138518809538994  1.0000
  C   C14       1.0  0.9759275063899436  0.13467302163616074  0.08614853171703629  1.0000
  C   C15       1.0  0.13467572192774202  0.975926927536321  0.5861503748960644  1.0000
  C   C16       1.0  0.024071591937712185  0.8653248835372622  0.9138504704490772  1.0000
  C   C17       1.0  0.2758223942039564  0.0024276080754078  0.16766642237460871  1.0000
  C   C18       1.0  0.9975707512223979  0.7241778078547586  0.3323334432938196  1.0000
  C   C19       1.0  0.7241768397285141  0.9975727648484637  0.832333426961398  1.0000
  C   C20       1.0  0.0024274079356416704  0.2758225647900616  0.6676663833948524  1.0000
  C   C21       1.0  0.37705452614833485  0.09724341390584361  0.08959849461682978  1.0000
  C   C22       1.0  0.9027560615261335  0.6229459928728787  0.4104021996737472  1.0000
  C   C23       1.0  0.6229447100081557  0.90275696124111  0.910402147142193  1.0000
  C   C24       1.0  0.09724317240633702  0.3770543800509929  0.5895976496622595  1.0000
  N   N1        1.0  0.3806360505556725  0.41235383590618113  0.3726707627319783  1.0000
  N   N2        1.0  0.5876467680986862  0.6193633842748767  0.1273304285003434  1.0000
  N   N3        1.0  0.6193615089727802  0.5876453082816016  0.6273306101056306  1.0000
  N   N4        1.0  0.4123540135290468  0.38063575852697096  0.8726702198562465  1.0000
  N   N5        1.0  0.40549343402958016  0.5423364782375089  0.4340657396868295  1.0000
  N   N6        1.0  0.4576645309509787  0.5945067104065277  0.0659345827056512  1.0000
  N   N7        1.0  0.5945057999028973  0.4576638946863553  0.5659341096491772  1.0000
  N   N8        1.0  0.5423362506767475  0.4054924323953202  0.9340660656509386  1.0000
  N   N9        1.0  0.3096260314727671  0.6034003956229128  0.4017122238062285  1.0000
  N   N10       1.0  0.39660119105269587  0.6903750392061454  0.0982879809915858  1.0000
  N   N11       1.0  0.6903747457069327  0.3965987427327633  0.598286839704322  1.0000
  N   N12       1.0  0.6034001924286371  0.3096253342758217  0.9017119136390833  1.0000
  N   N13       1.0  0.6835062519720551  0.11286099741857922  0.42044993010043197  1.0000
  N   N14       1.0  0.8871388166122004  0.3164942652171306  0.0795494632648044  1.0000
  N   N15       1.0  0.3164949981284693  0.8871369105360288  0.579549909783367  1.0000
  N   N16       1.0  0.11286148764667558  0.6835061035396138  0.9204488238724906  1.0000
  N   N17       1.0  0.6309863643750048  0.9750730236168154  0.4730002554875199  1.0000
  N   N18       1.0  0.02492700184052411  0.3690137505346059  0.026999056101786302  1.0000
  N   N19       1.0  0.3690144172527213  0.024926119185032306  0.5270003928690699  1.0000
  N   N20       1.0  0.9750733046423646  0.6309866204452208  0.9730000234585319  1.0000
  N   N21       1.0  0.7379307690369287  0.9188286182410651  0.47063599659307453  1.0000
  N   N22       1.0  0.08117118496951997  0.26206888564031067  0.029365040501858206  1.0000
  N   N23       1.0  0.2620706188924303  0.0811717596870736  0.5293654828836338  1.0000
  N   N24       1.0  0.9188291259614019  0.7379314897856943  0.9706356239044993  1.0000
  N   N25       1.0  0.3533229758560026  0.07457243728511291  0.2628177639510767  1.0000
  N   N26       1.0  0.9254265938562581  0.646675620919645  0.23718208714916503  1.0000
  N   N27       1.0  0.6466745792244168  0.9254267024564984  0.7371820240404929  1.0000
  N   N28       1.0  0.07457311077302359  0.35332351938006923  0.7628177461370669  1.0000
  N   N29       1.0  0.49564665063741836  0.20708551645187606  0.2427751012147255  1.0000
  N   N30       1.0  0.7929146200304018  0.5043524303856799  0.2572255850327991  1.0000
  N   N31       1.0  0.5043519814414523  0.7929136257918687  0.7572255018471951  1.0000
  N   N32       1.0  0.20708676345093108  0.49564794309628707  0.742774309597877  1.0000
  N   N33       1.0  0.5133048814346851  0.22467294003387656  0.1385458253899898  1.0000
  N   N34       1.0  0.7753268117822217  0.48669598906899136  0.3614540981879983  1.0000
  N   N35       1.0  0.4866960313498438  0.7753286660722412  0.8614540852904468  1.0000
  N   N36       1.0  0.22467242215024882  0.5133043838548729  0.6385457511480086  1.0000
