data_image0
_chemical_formula_structural       K12H12C4S12O40
_chemical_formula_sum              "K12 H12 C4 S12 O40"
_cell_length_a       9.40536303100543
_cell_length_b       9.358839742045108
_cell_length_c       12.263121723051613
_cell_angle_alpha    89.99966717161756
_cell_angle_beta     90.00000271093333
_cell_angle_gamma    90.00012391149403

_space_group_name_H-M_alt    "P 1"
_space_group_IT_number       1

loop_
  _space_group_symop_operation_xyz
  'x, y, z'

loop_
  _atom_site_type_symbol
  _atom_site_label
  _atom_site_symmetry_multiplicity
  _atom_site_fract_x
  _atom_site_fract_y
  _atom_site_fract_z
  _atom_site_occupancy
  K   K1        1.0  0.0129362387502283  0.00041863171136920013  0.0624995828067654  1.0000
  K   K2        1.0  0.4870593855418407  0.9995816967161489  0.5625005660635765  1.0000
  K   K3        1.0  0.5129334544967749  0.4995802852945061  0.937499177052679  1.0000
  K   K4        1.0  0.9870671858930253  0.500417203108938  0.43749762347190574  1.0000
  K   K5        1.0  0.249782671447953  0.6536052332629578  0.1655844504366399  1.0000
  K   K6        1.0  0.2502172118552366  0.3463975169368182  0.6655842464627995  1.0000
  K   K7        1.0  0.7497859286211793  0.8463984967465095  0.8344178074141341  1.0000
  K   K8        1.0  0.7502189585489065  0.15360191241475715  0.3344161532409942  1.0000
  K   K9        1.0  0.7054972207765574  0.7283188569461527  0.2154451699091879  1.0000
  K   K10       1.0  0.7945034064399225  0.2716792512427658  0.7154436683008356  1.0000
  K   K11       1.0  0.20549531929973605  0.7716762293696817  0.7845562708392108  1.0000
  K   K12       1.0  0.29450244461215663  0.22832347925605487  0.2845567330640151  1.0000
  H   H1        1.0  0.8700646627709646  0.36685353722322117  0.9929584401793505  1.0000
  H   H2        1.0  0.6299359809155761  0.6331499405724585  0.4929562840649169  1.0000
  H   H3        1.0  0.3700666680000141  0.13314828793150466  0.0070403331281526  1.0000
  H   H4        1.0  0.12993745878767274  0.8668524621671733  0.5070410765553746  1.0000
  H   H5        1.0  0.9960625983972523  0.012791476949992399  0.749940356927823  1.0000
  H   H6        1.0  0.5039380308689729  0.9872095744909255  0.2499398864912905  1.0000
  H   H7        1.0  0.4960611320471602  0.4872084832377652  0.2500600520366945  1.0000
  H   H8        1.0  0.0039387562624569  0.51278935065298  0.750059915749013  1.0000
  H   H9        1.0  0.0500237439058751  0.12159955996865077  0.8350945977531552  1.0000
  H   H10       1.0  0.44997827589779865  0.8784008329249455  0.33509462703252524  1.0000
  H   H11       1.0  0.5500238410091711  0.37840050562354566  0.16490579440711878  1.0000
  H   H12       1.0  0.9499767832093868  0.6215979868137254  0.6649060074651133  1.0000
  C   C1        1.0  0.9573436309649354  0.4306814519435774  0.0276690151721866  1.0000
  C   C2        1.0  0.5426591115648947  0.5693234264660629  0.5276678139971054  1.0000
  C   C3        1.0  0.4573455552069846  0.06931628763028637  0.9723305768855823  1.0000
  C   C4        1.0  0.042654346283050905  0.9306755822801022  0.4723319897016864  1.0000
  S   S1        1.0  0.9143651908775114  0.6169903417722721  0.9980251111840133  1.0000
  S   S2        1.0  0.585626947315106  0.38300454939475503  0.498030587197249  1.0000
  S   S3        1.0  0.4143634841143894  0.8830094695743256  0.0019763374227821  1.0000
  S   S4        1.0  0.08563001014094601  0.1169913190331897  0.5019722526728572  1.0000
  S   S5        1.0  0.12138011628731962  0.37214197208705707  0.9598175869740828  1.0000
  S   S6        1.0  0.37861978446846933  0.6278574725305645  0.4598162791616076  1.0000
  S   S7        1.0  0.6213754104321794  0.12786572713525854  0.0401828078574411  1.0000
  S   S8        1.0  0.8786230799461592  0.8721379876074734  0.540184352655217  1.0000
  S   S9        1.0  0.9549045520387976  0.3851902142223977  0.1732323780507983  1.0000
  S   S10       1.0  0.5450971358853424  0.6147975298168972  0.6732342369192921  1.0000
  S   S11       1.0  0.454903376513933  0.11481179411254057  0.826768029358597  1.0000
  S   S12       1.0  0.045095453134365505  0.8851961416449752  0.3267680132424005  1.0000
  O   O1        1.0  0.9854619293785092  0.7045506998834197  0.08057744814276901  1.0000
  O   O2        1.0  0.5145365633946852  0.29545163925156703  0.580572568677951  1.0000
  O   O3        1.0  0.48545796094151683  0.795447127955647  0.9194248185999288  1.0000
  O   O4        1.0  0.014535558076850901  0.20455048674037354  0.4194253757816426  1.0000
  O   O5        1.0  0.9644015643500128  0.6453009528947432  0.8865257075457222  1.0000
  O   O6        1.0  0.5355980097974254  0.3547011971069621  0.38652152186905653  1.0000
  O   O7        1.0  0.46439873965811534  0.8546989664912772  0.113475742945873  1.0000
  O   O8        1.0  0.03559688765781031  0.14530097436470868  0.6134756079308517  1.0000
  O   O9        1.0  0.7586773988640444  0.6241903490530586  0.0061944414218828995  1.0000
  O   O10       1.0  0.7413264056070262  0.3758072130676808  0.5061941065758333  1.0000
  O   O11       1.0  0.25867467212075473  0.875804852087654  0.9938078167828053  1.0000
  O   O12       1.0  0.2413231042038433  0.12419326558336512  0.49380792369667853  1.0000
  O   O13       1.0  0.16657224783926242  0.24126827706702147  0.015266379725602498  1.0000
  O   O14       1.0  0.33342656332396814  0.7587356160063337  0.5152676106686656  1.0000
  O   O15       1.0  0.6665689447039898  0.2587266976260095  0.984736463195901  1.0000
  O   O16       1.0  0.8334285088148335  0.7412672261067853  0.48473301942915015  1.0000
  O   O17       1.0  0.22243748157416127  0.490437693607056  0.9688460225277423  1.0000
  O   O18       1.0  0.2775634829450909  0.5095659563906025  0.4688476822761416  1.0000
  O   O19       1.0  0.7224399615035823  0.009557401740472898  0.0311511143269172  1.0000
  O   O20       1.0  0.777563844444451  0.9904367651051088  0.5311513148112255  1.0000
  O   O21       1.0  0.07287265095985161  0.34370719994689125  0.8469793334962219  1.0000
  O   O22       1.0  0.42712617988282636  0.6562963080982839  0.3469819785686497  1.0000
  O   O23       1.0  0.5728712030500703  0.15629291499234907  0.1530177977125291  1.0000
  O   O24       1.0  0.9271283572377487  0.8437035308189635  0.6530162087067168  1.0000
  O   O25       1.0  0.09496224361009101  0.4235902449685226  0.2175660125570573  1.0000
  O   O26       1.0  0.405044022120329  0.576416384053047  0.7175656090114586  1.0000
  O   O27       1.0  0.5949638496863088  0.07641098617311569  0.782432750387571  1.0000
  O   O28       1.0  0.9050367815062543  0.9235887497097149  0.2824342083261584  1.0000
  O   O29       1.0  0.8385731401343506  0.46619459700508514  0.22348041298626242  1.0000
  O   O30       1.0  0.661423234671858  0.5338087926274894  0.7234793739028192  1.0000
  O   O31       1.0  0.33857603905966027  0.033801817607091784  0.7765191745999118  1.0000
  O   O32       1.0  0.16142066114539236  0.9661915410669195  0.2765212497204317  1.0000
  O   O33       1.0  0.9281079716954539  0.23147776065390246  0.17178610493913032  1.0000
  O   O34       1.0  0.5719000955051072  0.7685313645613902  0.6717872825655603  1.0000
  O   O35       1.0  0.42810606596819417  0.26851884728664993  0.8282118551135511  1.0000
  O   O36       1.0  0.0718927637495739  0.7314741183714728  0.3282125222204328  1.0000
  O   O37       1.0  0.9928570062551216  0.03442099365996399  0.8282759905743334  1.0000
  O   O38       1.0  0.5071425644359238  0.9655805306959379  0.3282756162532934  1.0000
  O   O39       1.0  0.4928565516335795  0.46558109661808084  0.1717260491708075  1.0000
  O   O40       1.0  0.0071443952559207035  0.534420538382463  0.6717250015560553  1.0000
