data_image0
_chemical_formula_structural       Cd2H32C24S8N12
_chemical_formula_sum              "Cd2 H32 C24 S8 N12"
_cell_length_a       8.774344371828448
_cell_length_b       8.774327959726508
_cell_length_c       12.539641756827638
_cell_angle_alpha    101.39723399993686
_cell_angle_beta     101.39663304368896
_cell_angle_gamma    105.77620325315138

_space_group_name_H-M_alt    "P 1"
_space_group_IT_number       1

loop_
  _space_group_symop_operation_xyz
  'x, y, z'

loop_
  _atom_site_type_symbol
  _atom_site_label
  _atom_site_symmetry_multiplicity
  _atom_site_fract_x
  _atom_site_fract_y
  _atom_site_fract_z
  _atom_site_occupancy
  Cd  Cd1       1.0  0.9830866674888273  0.0169136752384418  0.750005134438844  1.0000
  Cd  Cd2       1.0  0.01691660279822562  0.9830844949631937  0.24999561295501857  1.0000
  H   H1        1.0  0.4837930776711801  0.6856052307429575  0.003159783410581014  1.0000
  H   H2        1.0  0.31439745725703006  0.5162064588251524  0.4968431404944128  1.0000
  H   H3        1.0  0.5162093937129343  0.31440151678577166  0.9968444076134733  1.0000
  H   H4        1.0  0.6855995815757935  0.48379408367231475  0.5031578829077221  1.0000
  H   H5        1.0  0.3580990795276334  0.8914456388052369  0.8948406680042071  1.0000
  H   H6        1.0  0.10855623194214555  0.6419019732933576  0.6051623634366693  1.0000
  H   H7        1.0  0.6418994861102264  0.10855612415821267  0.10515833415947641  1.0000
  H   H8        1.0  0.8914419586865847  0.35809856894147163  0.394837220583213  1.0000
  H   H9        1.0  0.8141568419690017  0.6007844319872074  0.8702199163328076  1.0000
  H   H10       1.0  0.39921402578355725  0.18583800319571248  0.6297784180968196  1.0000
  H   H11       1.0  0.18584604225085144  0.3992161956537216  0.12978270596931915  1.0000
  H   H12       1.0  0.6007826333877659  0.8141576246858263  0.3702202948710324  1.0000
  H   H13       1.0  0.7385197980071112  0.5907787661430247  0.9919633558696649  1.0000
  H   H14       1.0  0.4092202942223225  0.26147428595056954  0.5080351855962421  1.0000
  H   H15       1.0  0.2614822858602821  0.4092230589100722  0.008037725100898325  1.0000
  H   H16       1.0  0.5907755913650732  0.7385188768946305  0.49196229222638993  1.0000
  H   H17       1.0  0.6263112373402607  0.4445320958820316  0.8582331683123103  1.0000
  H   H18       1.0  0.5554653973458059  0.37368667179218545  0.6417655598081781  1.0000
  H   H19       1.0  0.3736920029754174  0.5554734227957353  0.14176936556648204  1.0000
  H   H20       1.0  0.44452930967715065  0.6263101537641725  0.3582330512103695  1.0000
  H   H21       1.0  0.36835974405338573  0.9621849518580343  0.7142050307326003  1.0000
  H   H22       1.0  0.037815114155016254  0.6316394892364483  0.7857985189786307  1.0000
  H   H23       1.0  0.6316380872766701  0.03781438536756098  0.28579673438188996  1.0000
  H   H24       1.0  0.962184259690531  0.36836108417452335  0.2142028241358176  1.0000
  H   H25       1.0  0.5842376550063051  0.06218061127179908  0.739850901032682  1.0000
  H   H26       1.0  0.9378177076120268  0.41576027325531567  0.7601507441655428  1.0000
  H   H27       1.0  0.41576018417897126  0.9378187338134933  0.2601516637010165  1.0000
  H   H28       1.0  0.06218087373628114  0.5842415054275276  0.23984985723654975  1.0000
  H   H29       1.0  0.4822629693235712  0.8779570636682762  0.6282413711201045  1.0000
  H   H30       1.0  0.12203928656281693  0.517734084348312  0.8717590972117865  1.0000
  H   H31       1.0  0.5177344209527064  0.12204467597872784  0.371756671568214  1.0000
  H   H32       1.0  0.8779581304819857  0.4822639928501785  0.1282392516628832  1.0000
  C   C1        1.0  0.6239511866934322  0.7573682307638308  0.7885927459983153  1.0000
  C   C2        1.0  0.24263081744172865  0.3760492806006183  0.7114084326877406  1.0000
  C   C3        1.0  0.37605050645438354  0.2426323578412591  0.21140731759003736  1.0000
  C   C4        1.0  0.7573635067168709  0.6239463163674157  0.2885899605677978  1.0000
  C   C5        1.0  0.5065000783508964  0.7282929219779812  0.9307380796544111  1.0000
  C   C6        1.0  0.27170418712062616  0.4934990470947864  0.5692629633143441  1.0000
  C   C7        1.0  0.49349915234726177  0.2717185759009693  0.06925594794738289  1.0000
  C   C8        1.0  0.7282963149551518  0.5065015024744567  0.4307345415602343  1.0000
  C   C9        1.0  0.446441245656203  0.830451393767262  0.8786106060873707  1.0000
  C   C10       1.0  0.16954723362259466  0.5535581260030893  0.6213888475388957  1.0000
  C   C11       1.0  0.553569037524241  0.16954687703458396  0.1213919000626333  1.0000
  C   C12       1.0  0.8304482469842895  0.4464411645896077  0.3786109986248718  1.0000
  C   C13       1.0  0.7037665685052656  0.5722313224458797  0.9003361897465397  1.0000
  C   C14       1.0  0.42776682597813925  0.2962292620346572  0.5996641159180102  1.0000
  C   C15       1.0  0.2962347464305708  0.4277717314581862  0.09966654836928511  1.0000
  C   C16       1.0  0.5722298253379563  0.7037663579871845  0.4003337974306334  1.0000
  C   C17       1.0  0.4862719288990006  0.9430314669791637  0.7132975778697672  1.0000
  C   C18       1.0  0.05696768413689309  0.5137270801443491  0.7867021507777708  1.0000
  C   C19       1.0  0.5137262460192815  0.05696905953627148  0.28670040691171295  1.0000
  C   C20       1.0  0.9430312832786213  0.4862722410992148  0.21329657571605756  1.0000
  C   C21       1.0  0.12193592326404702  0.8858535681950385  0.984954215967264  1.0000
  C   C22       1.0  0.11413916424778128  0.8780798786335137  0.5150623388053931  1.0000
  C   C23       1.0  0.8780752152554357  0.11414356021251137  0.015055428848732781  1.0000
  C   C24       1.0  0.8858552023897986  0.12191207160540067  0.4849379598748983  1.0000
  S   S1        1.0  0.7381770424224572  0.736130264857877  0.6953418065380889  1.0000
  S   S2        1.0  0.2638689174600017  0.26182258505558303  0.8046596027079149  1.0000
  S   S3        1.0  0.2618246585805792  0.26387033160690965  0.30465905666946475  1.0000
  S   S4        1.0  0.7361284995847936  0.7381754921429075  0.19533874616675462  1.0000
  S   S5        1.0  0.134912764298356  0.7989346599454161  0.0884379691235964  1.0000
  S   S6        1.0  0.201062415758443  0.8650965153342509  0.41156712204428914  1.0000
  S   S7        1.0  0.8650901356319453  0.20106598341489954  0.9115662524169398  1.0000
  S   S8        1.0  0.798936539149473  0.134899104162308  0.5884279125398566  1.0000
  N   N1        1.0  0.6154435958266475  0.6842684263931387  0.8748847073912318  1.0000
  N   N2        1.0  0.3157313004290713  0.38455326813376417  0.6251142562133652  1.0000
  N   N3        1.0  0.38456196058844944  0.3157407935063431  0.12511863963273842  1.0000
  N   N4        1.0  0.6842622312322959  0.6154435341061485  0.3748833953298175  1.0000
  N   N5        1.0  0.5180941821161298  0.8460480717134828  0.7910185649615189  1.0000
  N   N6        1.0  0.15395252008141816  0.4819041619019868  0.7089808201077619  1.0000
  N   N7        1.0  0.4819051681637348  0.1539524781183984  0.20898037929531912  1.0000
  N   N8        1.0  0.8460452641172865  0.5180951281654272  0.29101614729150077  1.0000
  N   N9        1.0  0.11556146104107502  0.9424539794733771  0.9063536903544646  1.0000
  N   N10       1.0  0.05754729132448929  0.8844449506585828  0.593652601056519  1.0000
  N   N11       1.0  0.884447648227308  0.05755164792692818  0.09365284128192998  1.0000
  N   N12       1.0  0.9424520607087103  0.11554453323077496  0.406339265567297  1.0000
