data_image0
_chemical_formula_structural       Zn2H34C40Br2N4O10
_chemical_formula_sum              "Zn2 H34 C40 Br2 N4 O10"
_cell_length_a       7.955778642109571
_cell_length_b       9.356324536137054
_cell_length_c       14.502626058746465
_cell_angle_alpha    107.2114968322968
_cell_angle_beta     90.58693467291044
_cell_angle_gamma    111.80283532185781

_space_group_name_H-M_alt    "P 1"
_space_group_IT_number       1

loop_
  _space_group_symop_operation_xyz
  'x, y, z'

loop_
  _atom_site_type_symbol
  _atom_site_label
  _atom_site_symmetry_multiplicity
  _atom_site_fract_x
  _atom_site_fract_y
  _atom_site_fract_z
  _atom_site_occupancy
  Zn  Zn1       1.0  0.08126219705180651  0.3203301611459891  0.4728032269620499  1.0000
  Zn  Zn2       1.0  0.9187339758223061  0.6796658443811054  0.5271955971174691  1.0000
  H   H1        1.0  0.2579421481460217  0.20985039526576796  0.33598286329912946  1.0000
  H   H2        1.0  0.7420594664035818  0.7901491708549102  0.6640173373572152  1.0000
  H   H3        1.0  0.3745623631839194  0.2629696669685088  0.4408779641316087  1.0000
  H   H4        1.0  0.625430784939233  0.7370252372402316  0.5591233992559451  1.0000
  H   H5        1.0  0.6012026184491289  0.9003418691147543  0.4709266640372859  1.0000
  H   H6        1.0  0.39878800958648236  0.099653040244192  0.5290712403524438  1.0000
  H   H7        1.0  0.5165698041441686  0.9420657227177003  0.1893248750785261  1.0000
  H   H8        1.0  0.48342874246795725  0.05793266923197389  0.8106737137645794  1.0000
  H   H9        1.0  0.12660197140164797  0.5463837619692882  0.26859188725090627  1.0000
  H   H10       1.0  0.8733967455477154  0.4536096404189465  0.731402328550395  1.0000
  H   H11       1.0  0.9425333594936802  0.09319368444492677  0.5809754540127443  1.0000
  H   H12       1.0  0.05746418738382167  0.906799872294769  0.4190256804589722  1.0000
  H   H13       1.0  0.00790286988870999  0.07149662833872128  0.7413953744153687  1.0000
  H   H14       1.0  0.9920942715345547  0.9285067982448751  0.2586082794580378  1.0000
  H   H15       1.0  0.42939816909097306  0.5556597796047098  0.8183124728666371  1.0000
  H   H16       1.0  0.5706008366036031  0.4443422803758423  0.18168610938600688  1.0000
  H   H17       1.0  0.34339591074136416  0.559565176146819  0.652383711593167  1.0000
  H   H18       1.0  0.656600247737245  0.44043080509604937  0.3476137287792582  1.0000
  H   H19       1.0  0.2585000336337728  0.4149802775002129  0.949234722364686  1.0000
  H   H20       1.0  0.7415001397381997  0.5850242625438467  0.05076708405422886  1.0000
  H   H21       1.0  0.42545960570772917  0.34159205540101567  0.9058706340914355  1.0000
  H   H22       1.0  0.574542948600019  0.6584148832077332  0.09413162894460916  1.0000
  H   H23       1.0  0.024253481230274997  0.1198536740762464  0.8965443122085546  1.0000
  H   H24       1.0  0.9757492050314839  0.8801508486754911  0.10346026135464109  1.0000
  H   H25       1.0  0.20660263978795965  0.05592363548389298  0.8702049273507767  1.0000
  H   H26       1.0  0.7934012669299264  0.9440808179111427  0.12979757051682833  1.0000
  H   H27       1.0  0.034922287003020365  0.27208021272688393  0.23673761635786408  1.0000
  H   H28       1.0  0.9650966882964482  0.7279349310950777  0.7632676276680711  1.0000
  H   H29       1.0  0.9840567049956449  0.2524831162899233  0.0621850680005593  1.0000
  H   H30       1.0  0.015960245287502037  0.7475357614236627  0.937820169704814  1.0000
  H   H31       1.0  0.43567604591024883  0.1024959396102076  0.012617489294484596  1.0000
  H   H32       1.0  0.5643244225552094  0.8975011828732915  0.9873815627562266  1.0000
  H   H33       1.0  0.4772343132448426  0.14053930831313008  0.1912054537560479  1.0000
  H   H34       1.0  0.5227704508119685  0.859458931126781  0.8087938262658554  1.0000
  C   C1        1.0  0.3583066348448367  0.7130128003307018  0.3765927155411787  1.0000
  C   C2        1.0  0.6416902994029597  0.28697946780881267  0.6234040394332183  1.0000
  C   C3        1.0  0.5177319969889281  0.8551633600466031  0.4005281477972956  1.0000
  C   C4        1.0  0.48226540353905994  0.1448325882658992  0.5994692924401761  1.0000
  C   C5        1.0  0.5713885043690965  0.9399780061740514  0.33383615855724  1.0000
  C   C6        1.0  0.42861015260378815  0.0600179334922828  0.6661626652523793  1.0000
  C   C7        1.0  0.46863946945089907  0.8785689917035029  0.24170052716489465  1.0000
  C   C8        1.0  0.5313609918168112  0.12142811863788688  0.758297833032266  1.0000
  C   C9        1.0  0.31155534083822534  0.7374792570628727  0.21895725390362483  1.0000
  C   C10       1.0  0.6884469391198139  0.2625190482377846  0.7810420263881781  1.0000
  C   C11       1.0  0.25182795747647185  0.6549713033859702  0.2854495964208681  1.0000
  C   C12       1.0  0.7481720231155292  0.3450221024982198  0.7145466948061241  1.0000
  C   C13       1.0  0.3012975409744953  0.6149863646257075  0.44486773528731044  1.0000
  C   C14       1.0  0.698694898553704  0.3850097275503969  0.5551303973435111  1.0000
  C   C15       1.0  0.7416587660762842  0.09392681458660229  0.3547404606803894  1.0000
  C   C16       1.0  0.25833625351592787  0.9060667351612037  0.6452565229399453  1.0000
  C   C17       1.0  0.04939693829604148  0.19371409532147507  0.6356105282860725  1.0000
  C   C18       1.0  0.950601178024655  0.8062806771657592  0.36439083456168214  1.0000
  C   C19       1.0  0.08747812091685596  0.18306782535021424  0.7264989253937699  1.0000
  C   C20       1.0  0.9125210239294785  0.8169318309154291  0.2735026592395683  1.0000
  C   C21       1.0  0.2262122720370526  0.3132462904178083  0.7950874127654401  1.0000
  C   C22       1.0  0.7737867624485303  0.6867558181311751  0.20491393690138437  1.0000
  C   C23       1.0  0.3197760549896458  0.45090040241695556  0.7677827519827786  1.0000
  C   C24       1.0  0.680221826214044  0.5490992503527393  0.23221675722486876  1.0000
  C   C25       1.0  0.2743355029696701  0.4546827827882253  0.6762670225954183  1.0000
  C   C26       1.0  0.725659413459546  0.5453132313850233  0.3237304179119533  1.0000
  C   C27       1.0  0.2777179512349761  0.3129902841074852  0.8951768100215602  1.0000
  C   C28       1.0  0.7222815351353019  0.6870154803302666  0.10482384120125225  1.0000
  C   C29       1.0  0.17115050944906332  0.15466439267420642  0.9161812648450081  1.0000
  C   C30       1.0  0.8288509203677991  0.8453401387236923  0.08382192514604718  1.0000
  C   C31       1.0  0.12413567612380658  0.2394282638291472  0.1851094334591679  1.0000
  C   C32       1.0  0.8758760532053458  0.7605821487241756  0.8148948976024001  1.0000
  C   C33       1.0  0.09510182950869246  0.22595177040810907  0.08760918625479518  1.0000
  C   C34       1.0  0.9049092344120168  0.7740599029652344  0.9123960651713077  1.0000
  C   C35       1.0  0.20426598443869884  0.17333636364440957  0.021941535012601283  1.0000
  C   C36       1.0  0.7957397337717609  0.8266692725677914  0.9780611910960956  1.0000
  C   C37       1.0  0.34420109548426586  0.14140617704214256  0.05987907980287589  1.0000
  C   C38       1.0  0.6558005190653302  0.8585933890785354  0.9401211208534618  1.0000
  C   C39       1.0  0.36652979269115343  0.16018200746055558  0.1588132846549399  1.0000
  C   C40       1.0  0.6334743203527254  0.8398175170835882  0.841188299438592  1.0000
  Br  Br1       1.0  0.1779781781770637  0.6538152397836329  0.0908083851736023  1.0000
  Br  Br2       1.0  0.8220171829390921  0.346184418136275  0.9091876650362136  1.0000
  N   N1        1.0  0.14111446848233558  0.32692075546110294  0.6105615039400334  1.0000
  N   N2        1.0  0.8588830496041523  0.673072752710162  0.3894368631174956  1.0000
  N   N3        1.0  0.2573188133557239  0.2062216217779635  0.2204723676782692  1.0000
  N   N4        1.0  0.742690719770394  0.7937814269334423  0.7795285174314514  1.0000
  O   O1        1.0  0.13704156345823987  0.5032459560116249  0.42205704412538125  1.0000
  O   O2        1.0  0.8629560433957407  0.49674506344997826  0.5779394823380173  1.0000
  O   O3        1.0  0.4099123051860332  0.6395174913909827  0.5164862896964593  1.0000
  O   O4        1.0  0.5900780493493512  0.36048487195485274  0.48351644462211135  1.0000
  O   O5        1.0  0.8391157440635838  0.1391915688006904  0.4381150902339215  1.0000
  O   O6        1.0  0.1608771473493036  0.8608081792641897  0.5618823439528811  1.0000
  O   O7        1.0  0.7781119396278413  0.1640632731190337  0.2918578802548808  1.0000
  O   O8        1.0  0.22189062102818008  0.8359275903368442  0.7081372619616246  1.0000
  O   O9        1.0  0.2461561769328142  0.2088226971333427  0.40580560273291877  1.0000
  O   O10       1.0  0.7538394193003484  0.7911720805041043  0.5941923011170118  1.0000
