data_image0
_chemical_formula_structural       Na4H20C4N20O10
_chemical_formula_sum              "Na4 H20 C4 N20 O10"
_cell_length_a       7.100569379374175
_cell_length_b       7.50939611920899
_cell_length_c       11.954140989111762
_cell_angle_alpha    80.26238005696096
_cell_angle_beta     81.51776203077156
_cell_angle_gamma    68.75474807371138

_space_group_name_H-M_alt    "P 1"
_space_group_IT_number       1

loop_
  _space_group_symop_operation_xyz
  'x, y, z'

loop_
  _atom_site_type_symbol
  _atom_site_label
  _atom_site_symmetry_multiplicity
  _atom_site_fract_x
  _atom_site_fract_y
  _atom_site_fract_z
  _atom_site_occupancy
  Na  Na1       1.0  0.8672902639008838  0.3770059712485008  0.5858990014982337  1.0000
  Na  Na2       1.0  0.13271245479796792  0.6229946359513647  0.41410200568073197  1.0000
  Na  Na3       1.0  0.6397445021608096  0.4588526105473604  0.8630128130144283  1.0000
  Na  Na4       1.0  0.3602587341526374  0.5411465246392879  0.13698328916491678  1.0000
  H   H1        1.0  0.7038175876536102  0.772476224959391  0.44980278762586307  1.0000
  H   H2        1.0  0.2961847731585365  0.2275214890525987  0.5501977305833207  1.0000
  H   H3        1.0  0.7327025582778363  0.7721048102931292  0.5766275397751669  1.0000
  H   H4        1.0  0.2672978536388087  0.22789434684411702  0.423374668472327  1.0000
  H   H5        1.0  0.6662818992782036  0.16620184267409852  0.503582081418905  1.0000
  H   H6        1.0  0.33372098932587596  0.8337944205850788  0.49641687472153234  1.0000
  H   H7        1.0  0.8168309010215822  0.18891852285786112  0.3926591394749435  1.0000
  H   H8        1.0  0.18317092945429173  0.8110806365918395  0.6073421050702732  1.0000
  H   H9        1.0  0.09638114870588774  0.35181981157484177  0.7685599097948168  1.0000
  H   H10       1.0  0.90362227532313  0.6481750168768343  0.23143999147502825  1.0000
  H   H11       1.0  0.9840680649076249  0.5716960077477822  0.7788550382406922  1.0000
  H   H12       1.0  0.01592966961842994  0.4282987795634624  0.22114370344197443  1.0000
  H   H13       1.0  0.4415888506117015  0.5709985378203086  0.627425009012107  1.0000
  H   H14       1.0  0.5584154641846197  0.4289977436966338  0.3725754906242002  1.0000
  H   H15       1.0  0.4818397798181594  0.360687980221833  0.6886985994698662  1.0000
  H   H16       1.0  0.5181662987024254  0.6393111702199263  0.31129724677035125  1.0000
  H   H17       1.0  0.7422069373017877  0.6371944200889246  0.03799784523345548  1.0000
  H   H18       1.0  0.25780038987280574  0.36280907660596984  0.9619990883430061  1.0000
  H   H19       1.0  0.8029092434485251  0.41920995859645427  0.0889078237719616  1.0000
  H   H20       1.0  0.19709612210889563  0.5807949546481906  0.9110866211792296  1.0000
  C   C1        1.0  0.8672717615128821  0.937179803684856  0.8878774294167183  1.0000
  C   C2        1.0  0.13272775963645964  0.06281790038712391  0.11212418046431337  1.0000
  C   C3        1.0  0.6107881982808224  0.020405472398849205  0.15654393546984113  1.0000
  C   C4        1.0  0.3892043900661123  0.9795993987733096  0.8434558398710192  1.0000
  N   N1        1.0  0.8158479358675166  0.1107104658927369  0.8235992474143213  1.0000
  N   N2        1.0  0.18414588814585645  0.8892871810935147  0.17639869568138516  1.0000
  N   N3        1.0  0.9228996064367435  0.07784137860118528  0.7233949408698093  1.0000
  N   N4        1.0  0.07710044504885623  0.9221548800330908  0.2766059426751894  1.0000
  N   N5        1.0  0.0368190082592791  0.8921772544073787  0.7268170447109767  1.0000
  N   N6        1.0  0.963183002299168  0.10781758236204549  0.27318549172658624  1.0000
  N   N7        1.0  0.004257687422416679  0.7990070525635176  0.8292235390456352  1.0000
  N   N8        1.0  0.9957432599191663  0.2009906697662274  0.17077961433127337  1.0000
  N   N9        1.0  0.7931139791531053  0.8962268873495773  0.999870257569661  1.0000
  N   N10       1.0  0.2068826947004183  0.10377079083709619  0.00012993678506489798  1.0000
  N   N11       1.0  0.6862927188349914  0.0485336969108161  0.04454612519130308  1.0000
  N   N12       1.0  0.31369950653657236  0.9514682704432644  0.9554514897143488  1.0000
  N   N13       1.0  0.6631565297017801  0.8596071254164457  0.23280468518646555  1.0000
  N   N14       1.0  0.33682895058296225  0.1403977023028347  0.7671948942695008  1.0000
  N   N15       1.0  0.5512024853498048  0.9129604075566532  0.3291563693601062  1.0000
  N   N16       1.0  0.44879668581173604  0.0870459631362976  0.6708459996671079  1.0000
  N   N17       1.0  0.43351800154463394  0.09934178681282187  0.3115569556818158  1.0000
  N   N18       1.0  0.5664849000470228  0.9006660468853978  0.6884449200400198  1.0000
  N   N19       1.0  0.4701252158118622  0.17049542743735907  0.20487725583647176  1.0000
  N   N20       1.0  0.5298721738150646  0.8295080371250594  0.795123916457811  1.0000
  O   O1        1.0  0.8007683464984653  0.7075365352296359  0.507775305539951  1.0000
  O   O2        1.0  0.19923330643918294  0.2924669522154488  0.4922254828456402  1.0000
  O   O3        1.0  0.7260085885422712  0.255890919213634  0.45752965738367357  1.0000
  O   O4        1.0  0.2739879103173521  0.744111092283518  0.5424709165441468  1.0000
  O   O5        1.0  0.9662322667196365  0.4591407445249088  0.7566451575746879  1.0000
  O   O6        1.0  0.03377114458771055  0.5408540573512539  0.24335056503156943  1.0000
  O   O7        1.0  0.5312559119082254  0.4679875418254015  0.6800316743064412  1.0000
  O   O8        1.0  0.4687507096703032  0.5320101897541533  0.3199676242613305  1.0000
  O   O9        1.0  0.7015559213114742  0.5233447450444615  0.04434304540846058  1.0000
  O   O10       1.0  0.2984373929862016  0.4766659337638472  0.9556610508028239  1.0000
