data_image0
_chemical_formula_structural       Zn2H28C57N4O15F12
_chemical_formula_sum              "Zn2 H28 C57 N4 O15 F12"
_cell_length_a       9.543184256735048
_cell_length_b       10.789860357171882
_cell_length_c       28.042975581182883
_cell_angle_alpha    89.27294319228581
_cell_angle_beta     89.7024236389621
_cell_angle_gamma    90.50339035649665

_space_group_name_H-M_alt    "P 1"
_space_group_IT_number       1

loop_
  _space_group_symop_operation_xyz
  'x, y, z'

loop_
  _atom_site_type_symbol
  _atom_site_label
  _atom_site_symmetry_multiplicity
  _atom_site_fract_x
  _atom_site_fract_y
  _atom_site_fract_z
  _atom_site_occupancy
  Zn  Zn1       1.0  0.3517105907489011  0.49465929509285894  0.5002683876131755  1.0000
  Zn  Zn2       1.0  0.6439125223617028  0.5032063000151084  0.49999521614522274  1.0000
  H   H1        1.0  0.28751376344661145  0.4662196651217202  0.6519174137548376  1.0000
  H   H2        1.0  0.5072807450154357  0.8028749392962878  0.8712095912556492  1.0000
  H   H3        1.0  0.7456618776212666  0.5782143650944819  0.2618763810285145  1.0000
  H   H4        1.0  0.4978054188701366  0.81634334631854  0.9579581288289063  1.0000
  H   H5        1.0  0.7343275251557558  0.48970508591790474  0.7408300015519983  1.0000
  H   H6        1.0  0.2952174615937865  0.4813354411892164  0.34472177892666167  1.0000
  H   H7        1.0  0.4980662810411688  0.18635196628560644  0.9720586051068381  1.0000
  H   H8        1.0  0.28417602884992027  0.8808028216329832  0.5345917916219278  1.0000
  H   H9        1.0  0.6697901387603339  0.9071841069238928  0.45542895371528397  1.0000
  H   H10       1.0  0.2689277855602016  0.11467783710043732  0.48880951889056934  1.0000
  H   H11       1.0  0.45234423098114723  0.09086298001425772  0.4253121364240684  1.0000
  H   H12       1.0  0.3161257036018128  0.0933561825731601  0.548963898457103  1.0000
  H   H13       1.0  0.6321513504962726  0.1195306373822547  0.437909633717922  1.0000
  H   H14       1.0  0.5103892863339256  0.9046254567450376  0.5751490542486124  1.0000
  H   H15       1.0  0.6701952267433668  0.8779943879886076  0.5442183830622298  1.0000
  H   H16       1.0  0.8629803713208162  0.5847214590607807  0.5691535134491515  1.0000
  H   H17       1.0  0.10381899219169102  0.5295744354766329  0.5746995934764315  1.0000
  H   H18       1.0  0.8943350363449696  0.6863376942325203  0.5198573132979192  1.0000
  H   H19       1.0  0.13688663604643383  0.664436123534557  0.5392984557612975  1.0000
  H   H20       1.0  0.8879492633754185  0.455343167705955  0.4289968843286402  1.0000
  H   H21       1.0  0.1337764747188075  0.49893347653470244  0.4262075029070616  1.0000
  H   H22       1.0  0.8676278417292453  0.6145465558254628  0.43945083673776253  1.0000
  H   H23       1.0  0.11341650099244302  0.6447617463731844  0.4530959075035099  1.0000
  H   H24       1.0  0.855818632976778  0.30694168776737746  0.4940839863779019  1.0000
  H   H25       1.0  0.1009856652799641  0.318098104556725  0.4757731203753224  1.0000
  H   H26       1.0  0.3896563049799155  0.14110525161701304  0.8500863655980951  1.0000
  H   H27       1.0  0.15366994827755326  0.45758806030688953  0.7192894176610451  1.0000
  H   H28       1.0  0.3085410049760143  0.8459432753539388  0.14467463309851783  1.0000
  C   C1        1.0  0.4902722252147242  0.7367115018978013  0.4988188100251633  1.0000
  C   C2        1.0  0.5039296370956238  0.49253755939149363  0.592490943495406  1.0000
  C   C3        1.0  0.494289886112803  0.2618227720241109  0.4991440414595231  1.0000
  C   C4        1.0  0.5059913001305746  0.5104320925717262  0.40703473783376865  1.0000
  C   C5        1.0  0.506030521799886  0.6008900230190052  0.8177299572219141  1.0000
  C   C6        1.0  0.5081140807232672  0.3690333467647734  0.822675376307906  1.0000
  C   C7        1.0  0.6351057633535505  0.4847181791871904  0.7218929209503456  1.0000
  C   C8        1.0  0.6343327659732908  0.48778170678198035  0.6721995875355589  1.0000
  C   C9        1.0  0.38500815504981745  0.4721724044448336  0.671990466525159  1.0000
  C   C10       1.0  0.3810575862697547  0.4693388339408529  0.7218354478974192  1.0000
  C   C11       1.0  0.5091809708754625  0.4772273416632515  0.746467909516852  1.0000
  C   C12       1.0  0.5032907942655599  0.4928067847098276  0.8978748628289566  1.0000
  C   C13       1.0  0.5052838557737475  0.6040353761131456  0.8702959694551566  1.0000
  C   C14       1.0  0.505222792247075  0.7179242561050431  0.8926904063460626  1.0000
  C   C15       1.0  0.49779444432554953  0.3760282067015837  0.8751341897613044  1.0000
  C   C16       1.0  0.5097709628698723  0.483370687940223  0.6458519547985304  1.0000
  C   C17       1.0  0.5147808300297073  0.5226949217614276  0.3537347045959224  1.0000
  C   C18       1.0  0.48674994987128173  0.6205673895200976  0.023408741701665303  1.0000
  C   C19       1.0  0.5396005898431895  0.3954488470481081  0.027191784074581397  1.0000
  C   C20       1.0  0.5166646558712032  0.5108704028089194  0.0507454245069994  1.0000
  C   C21       1.0  0.45004130524102254  0.7261512437814163  0.04926021406938471  1.0000
  C   C22       1.0  0.44910793104470065  0.7323320753911347  0.0990702884193269  1.0000
  C   C23       1.0  0.4886509343541406  0.6273261679373903  0.1249824898330374  1.0000
  C   C24       1.0  0.5235791975648852  0.5159608907156256  0.1016246383922521  1.0000
  C   C25       1.0  0.5656361690773793  0.41098292992273144  0.1292586062896746  1.0000
  C   C26       1.0  0.5715369220594085  0.4151118520818071  0.1818269832060224  1.0000
  C   C27       1.0  0.49259298893566944  0.6363056389298123  0.17727457963669477  1.0000
  C   C28       1.0  0.646673317174134  0.5564304349513733  0.2796650607050282  1.0000
  C   C29       1.0  0.6394425158432356  0.5512204211339977  0.3291016257584403  1.0000
  C   C30       1.0  0.39399973340743344  0.5020507991077565  0.3266269704955889  1.0000
  C   C31       1.0  0.4010407727436345  0.5060394318695813  0.2773600005685779  1.0000
  C   C32       1.0  0.5266273140138082  0.5320891801607105  0.2533839475522655  1.0000
  C   C33       1.0  0.4966926268351487  0.6176734351209492  0.9713005390277374  1.0000
  C   C34       1.0  0.5050302854099513  0.49944708779945324  0.9488223270172753  1.0000
  C   C35       1.0  0.5159468431636255  0.38682990174240217  0.975909852568769  1.0000
  C   C36       1.0  0.4994020577980578  0.7248275170323596  0.9424010973945371  1.0000
  C   C37       1.0  0.48718359062944944  0.26729190703554906  0.902743257137253  1.0000
  C   C38       1.0  0.5851728087425201  0.2962989634564579  0.0553568580505228  1.0000
  C   C39       1.0  0.6002636536810827  0.3035276932192588  0.10516499831258132  1.0000
  C   C40       1.0  0.501160498078612  0.27389646630042824  0.9524742852720607  1.0000
  C   C41       1.0  0.33687766768843375  0.9292905464422532  0.5047409820181699  1.0000
  C   C42       1.0  0.5583021172254022  0.9314966797804801  0.45376206798546553  1.0000
  C   C43       1.0  0.3448457359533421  0.0694200782930636  0.5122665952044585  1.0000
  C   C44       1.0  0.5369503221816673  0.0719399786470234  0.45072726476755787  1.0000
  C   C45       1.0  0.5688975021359326  0.9248201243865706  0.54206327288464  1.0000
  C   C46       1.0  0.48491245723383974  0.8778597869320919  0.4986200859122433  1.0000
  C   C47       1.0  0.49242512584967113  0.12036624581352132  0.5002594673728851  1.0000
  C   C48       1.0  0.5929550224284412  0.06483119780010331  0.5374404472283558  1.0000
  C   C49       1.0  0.9193836058679424  0.595239819594255  0.5352579707967706  1.0000
  C   C50       1.0  0.07833348107735111  0.5766753538482091  0.5410387790449107  1.0000
  C   C51       1.0  0.9120070468329048  0.3763341263506065  0.5152012601879292  1.0000
  C   C52       1.0  0.07342339583784961  0.3706899105363347  0.5077930836510021  1.0000
  C   C53       1.0  0.9195250781635664  0.5307550357297542  0.4526502116583302  1.0000
  C   C54       1.0  0.08012064814716521  0.5472104178144053  0.4551215880038839  1.0000
  C   C55       1.0  0.4543367549782644  0.14210469094856387  0.8827255421540343  1.0000
  C   C56       1.0  0.24233509351476806  0.459707479930735  0.7452479524510807  1.0000
  C   C57       1.0  0.4057999284152913  0.8517068472946437  0.12278176858773551  1.0000
  N   N1        1.0  0.511371386745502  0.48200415886287123  0.7976510220781067  1.0000
  N   N2        1.0  0.5311245906768749  0.5293133228700952  0.2022921582851751  1.0000
  N   N3        1.0  0.8626694890521094  0.5017247369078817  0.5012627603138853  1.0000
  N   N4        1.0  0.13175246317243253  0.49705636588552693  0.5017512849057724  1.0000
  O   O1        1.0  0.3784805042181247  0.6787506470130751  0.5102889289836838  1.0000
  O   O2        1.0  0.607920581976707  0.6895764627015097  0.4888409557917228  1.0000
  O   O3        1.0  0.3883141101199072  0.4638076885220741  0.5730213034289022  1.0000
  O   O4        1.0  0.6140338870438099  0.5305465991487281  0.5710043109456819  1.0000
  O   O5        1.0  0.38068959161817173  0.31345734596319363  0.486711936523065  1.0000
  O   O6        1.0  0.607832183048167  0.31639899056526133  0.5093645791607955  1.0000
  O   O7        1.0  0.3875178916654463  0.528712758792814  0.426475953673048  1.0000
  O   O8        1.0  0.6180271522805326  0.47980361726929033  0.4283902597666085  1.0000
  O   O9        1.0  0.5044933999961217  0.6936879147117523  0.7918667442195542  1.0000
  O   O10       1.0  0.4633576708261203  0.7324574776055287  0.1984189407491215  1.0000
  O   O11       1.0  0.5169162966764205  0.27063701122327904  0.8009561165147261  1.0000
  O   O12       1.0  0.6071054862472209  0.3289225498027051  0.2077532675926506  1.0000
  O   O13       1.0  0.4899108268299628  0.04576528318023781  0.9027666997825463  1.0000
  O   O14       1.0  0.21918226567833446  0.45399917084638736  0.7882628422020588  1.0000
  O   O15       1.0  0.46848251743875846  0.9490227994501763  0.1154631052663504  1.0000
  F   F1        1.0  0.6199241879320282  0.18673465960397098  0.036118331394014505  1.0000
  F   F2        1.0  0.6475055305099531  0.2023836854414753  0.1274233635196893  1.0000
  F   F3        1.0  0.28392520893446266  0.4829346795074514  0.2513762587290813  1.0000
  F   F4        1.0  0.25409371281251947  0.9041902110961856  0.46394120022802815  1.0000
  F   F5        1.0  0.50638227839071  0.8753300120079504  0.41214259176634016  1.0000
  F   F6        1.0  0.5746996767108925  0.12002489498556909  0.5814535795594794  1.0000
  F   F7        1.0  0.7328350246242009  0.08685255855655068  0.5245896665570555  1.0000
  F   F8        1.0  0.8785400523951454  0.35613773924716713  0.5626285012733163  1.0000
  F   F9        1.0  0.1342957093170156  0.31328437560770794  0.5467517576749401  1.0000
  F   F10       1.0  0.7597790986118228  0.5769068425713472  0.352999257272046  1.0000
  F   F11       1.0  0.40759501798822134  0.8296369961206552  0.0256320687184868  1.0000
  F   F12       1.0  0.7610051144470803  0.4951313503549458  0.6505052981969469  1.0000
