data_image0
_chemical_formula_structural       UAg2H12C24N4Cl4O10
_chemical_formula_sum              "U1 Ag2 H12 C24 N4 Cl4 O10"
_cell_length_a       7.391829838352155
_cell_length_b       9.42269426886945
_cell_length_c       11.24783233910406
_cell_angle_alpha    91.9466957828644
_cell_angle_beta     88.56509154691886
_cell_angle_gamma    81.11107064838772

_space_group_name_H-M_alt    "P 1"
_space_group_IT_number       1

loop_
  _space_group_symop_operation_xyz
  'x, y, z'

loop_
  _atom_site_type_symbol
  _atom_site_label
  _atom_site_symmetry_multiplicity
  _atom_site_fract_x
  _atom_site_fract_y
  _atom_site_fract_z
  _atom_site_occupancy
  U   U1        1.0  0.9999887498142072  0.9999862440067208  0.9999913588938582  1.0000
  Ag  Ag1       1.0  0.41840341908172707  0.107913987552827  0.18880127637172  1.0000
  Ag  Ag2       1.0  0.5815819186504282  0.8920906042557135  0.8111958175517485  1.0000
  H   H1        1.0  0.13236934862359104  0.2606993824959147  0.6411925073106559  1.0000
  H   H2        1.0  0.8676579611683691  0.7392871535848117  0.3588096656415019  1.0000
  H   H3        1.0  0.34884874131081745  0.8518371557478516  0.3656034447265668  1.0000
  H   H4        1.0  0.6511883866118423  0.14816012937289  0.6343957858463654  1.0000
  H   H5        1.0  0.24481576182163417  0.2922720995207442  0.432507285155559  1.0000
  H   H6        1.0  0.7552296176251757  0.7077210568233098  0.5675022145071864  1.0000
  H   H7        1.0  0.6926984742963499  0.3221485404098062  0.1738770452549545  1.0000
  H   H8        1.0  0.30727578215839196  0.6778570802712096  0.8261196463418655  1.0000
  H   H9        1.0  0.11301650436568172  0.6396408329280092  0.11701087476369307  1.0000
  H   H10       1.0  0.8869462732364183  0.36036378749750503  0.8829943021240679  1.0000
  H   H11       1.0  0.1282096270313247  0.37418039589005764  0.145900476470409  1.0000
  H   H12       1.0  0.8717628665532972  0.6258198045793649  0.854093547026963  1.0000
  C   C1        1.0  0.12156449442949929  0.016950729784198898  0.7512997616161385  1.0000
  C   C2        1.0  0.8784530842109177  0.9830421555272014  0.24869757473666712  1.0000
  C   C3        1.0  0.18294669377193876  0.0297412998526454  0.6245813431567555  1.0000
  C   C4        1.0  0.8170760071897262  0.9702537894196157  0.3754184738875068  1.0000
  C   C5        1.0  0.18088492766884198  0.1680669105610235  0.5820815183045055  1.0000
  C   C6        1.0  0.8191432956286347  0.831921779464409  0.4179206449952275  1.0000
  C   C7        1.0  0.24475170853456513  0.9137988059044134  0.5447336644195457  1.0000
  C   C8        1.0  0.7552760241101807  0.0861973375614937  0.4552632825223383  1.0000
  C   C9        1.0  0.3015889472572084  0.9405193208338574  0.42915660132463523  1.0000
  C   C10       1.0  0.6984505108771158  0.059473693931956007  0.5708442511005032  1.0000
  C   C11       1.0  0.24265692632568658  0.1854885231530119  0.4667184688099013  1.0000
  C   C12       1.0  0.7573816573482545  0.8145034749536252  0.5332868562649793  1.0000
  C   C13       1.0  0.38528656841138803  0.7935181985720733  0.1139828424240363  1.0000
  C   C14       1.0  0.6146849853522554  0.20648741372818344  0.8860139645365592  1.0000
  C   C15       1.0  0.5661785326380269  0.5431962765191402  0.1538126211555522  1.0000
  C   C16       1.0  0.4337822494063771  0.45681043954362366  0.8461891102574981  1.0000
  C   C17       1.0  0.4020691391850021  0.6347256475658655  0.1344775330184333  1.0000
  C   C18       1.0  0.5978987595186851  0.3652864929883322  0.8655257479699826  1.0000
  C   C19       1.0  0.5655545057863735  0.39611638607073024  0.16519486685404416  1.0000
  C   C20       1.0  0.4344167258711948  0.6038902761433392  0.8348001885282557  1.0000
  C   C21       1.0  0.24241997470387128  0.5718315870141667  0.1327840306668762  1.0000
  C   C22       1.0  0.7575488650404621  0.4281698255413673  0.867220843449111  1.0000
  C   C23       1.0  0.2502542274785426  0.4257825947953506  0.1488749578507438  1.0000
  C   C24       1.0  0.749720402675301  0.5742219884535231  0.8511243731208892  1.0000
  N   N1        1.0  0.3022644758072346  0.0734608324718238  0.39112345468920745  1.0000
  N   N2        1.0  0.697778715477327  0.9265279286111086  0.6088798497027597  1.0000
  N   N3        1.0  0.41044470449684667  0.33860568648422884  0.16315571064786377  1.0000
  N   N4        1.0  0.5895271713728719  0.6613988759022149  0.8368428478910345  1.0000
  Cl  Cl1       1.0  0.24993531727657367  0.7363072994286242  0.5799980535244272  1.0000
  Cl  Cl2       1.0  0.7500898031334626  0.2636801575588025  0.4199935475661363  1.0000
  Cl  Cl3       1.0  0.7747530272511796  0.6029577719029645  0.15791198646142127  1.0000
  Cl  Cl4       1.0  0.2252141643191052  0.39705226463322424  0.8420948553654881  1.0000
  O   O1        1.0  0.2022970015057907  0.9188615758174666  0.8150172056004975  1.0000
  O   O2        1.0  0.7976968443142167  0.0811344379256624  0.1849794077956304  1.0000
  O   O3        1.0  0.11832821185613798  0.146192081188147  0.048139044708392496  1.0000
  O   O4        1.0  0.8816774453947075  0.8538330461583213  0.9518601306105765  1.0000
  O   O5        1.0  0.9903333664520558  0.10871956319967777  0.7951638884119845  1.0000
  O   O6        1.0  0.009690915065505176  0.8912937907825194  0.2048343305621856  1.0000
  O   O7        1.0  0.27022399933093766  0.8394300077273655  0.036051222354593904  1.0000
  O   O8        1.0  0.7297726776438012  0.16057361761707512  0.9639507128781161  1.0000
  O   O9        1.0  0.4804530637787466  0.8667552081558156  0.1747520354662839  1.0000
  O   O10       1.0  0.5195331498152599  0.1332549120090079  0.8252557744071822  1.0000
