data_image0
_chemical_formula_structural       Cd8H32C24S8N24Cl8
_chemical_formula_sum              "Cd8 H32 C24 S8 N24 Cl8"
_cell_length_a       7.565552164
_cell_length_b       10.703856804
_cell_length_c       17.77
_cell_angle_alpha    90.0
_cell_angle_beta     90.0
_cell_angle_gamma    90.0

_space_group_name_H-M_alt    "P 1"
_space_group_IT_number       1

loop_
  _space_group_symop_operation_xyz
  'x, y, z'

loop_
  _atom_site_type_symbol
  _atom_site_label
  _atom_site_symmetry_multiplicity
  _atom_site_fract_x
  _atom_site_fract_y
  _atom_site_fract_z
  _atom_site_occupancy
  Cd  Cd1       1.0  0.8226828478715118  0.8201744624161336  0.3315126617895316  1.0000
  Cd  Cd2       1.0  0.6773173839688054  0.6798259854598144  0.8315137872819349  1.0000
  Cd  Cd3       1.0  0.8226828478715118  0.1798249019251372  0.1684862127180651  1.0000
  Cd  Cd4       1.0  0.6773173839688054  0.3201761816095399  0.6684873382104684  1.0000
  Cd  Cd5       1.0  0.1773181878757555  0.17982583616782932  0.6684873382104684  1.0000
  Cd  Cd6       1.0  0.3226823299978746  0.32017431312415573  0.1684867754642667  1.0000
  Cd  Cd7       1.0  0.1773168660951683  0.8201753966588257  0.8315137872819349  1.0000
  Cd  Cd8       1.0  0.3226823299978746  0.6798250512171152  0.3315132245357333  1.0000
  H   H1        1.0  0.4373758753188639  0.1303119077115014  0.3269977490151916  1.0000
  H   H2        1.0  0.0626259643353606  0.3696901100658608  0.8269988745075949  1.0000
  H   H3        1.0  0.4373771970994511  0.8696883908724615  0.1730000000000018  1.0000
  H   H4        1.0  0.06262199899359187  0.6303120570034865  0.6730016882386067  1.0000
  H   H5        1.0  0.562622516867229  0.8696883908724615  0.67300281373101  1.0000
  H   H6        1.0  0.9373750714119067  0.6303101885181022  0.1730016882386067  1.0000
  H   H7        1.0  0.5626238386478162  0.1303100392261172  0.8269966235227884  1.0000
  H   H8        1.0  0.9373750714119067  0.3696873073377844  0.3269988745075949  1.0000
  H   H9        1.0  0.3418071733488333  0.0433638088120318  0.4530759707371956  1.0000
  H   H10       1.0  0.1581933445247969  0.4566382089653374  0.9530770962295989  1.0000
  H   H11       1.0  0.3418045297876589  0.9566374240146304  0.0469223410241995  1.0000
  H   H12       1.0  0.15819466630539125  0.5433639581040097  0.5469234665166027  1.0000
  H   H13       1.0  0.658192540617847  0.9566374240146304  0.5469234665166027  1.0000
  H   H14       1.0  0.8418037258807016  0.5433620896186255  0.0469229037704011  1.0000
  H   H15       1.0  0.6581938623984342  0.0433619403266476  0.9530759707371956  1.0000
  H   H16       1.0  0.8418037258807016  0.4566363404799533  0.4530765334833973  1.0000
  H   H17       1.0  0.15834006217024665  0.9393501972338214  0.4435576814856503  1.0000
  H   H18       1.0  0.3416617774839779  0.5606521191275107  0.943558244231852  1.0000
  H   H19       1.0  0.1583387403896594  0.0606510355928336  0.056441755768148  1.0000
  H   H20       1.0  0.3416604557033907  0.4393491136991514  0.5564428812605513  1.0000
  H   H21       1.0  0.8416596517964336  0.0606510355928336  0.5564428812605513  1.0000
  H   H22       1.0  0.6583379364827022  0.4393491136991514  0.056441755768148  1.0000
  H   H23       1.0  0.8416609735770209  0.9393483287484373  0.9435571187394487  1.0000
  H   H24       1.0  0.6583392582632894  0.5606502506421265  0.4435571187394487  1.0000
  H   H25       1.0  0.12510917636705438  0.0940959897392872  0.47939617332583145  1.0000
  H   H26       1.0  0.37489134150658276  0.40590696228077416  0.9793972988182347  1.0000
  H   H27       1.0  0.12510785458646004  0.9059052430873678  0.0206027011817653  1.0000
  H   H28       1.0  0.37489134150658276  0.5940961390312723  0.520603263927967  1.0000
  H   H29       1.0  0.8748905375996259  0.9059052430873678  0.5206038266741686  1.0000
  H   H30       1.0  0.6251083724600972  0.5940952047885801  0.020603263927967  1.0000
  H   H31       1.0  0.8748905375996259  0.09409412125390301  0.9793961733258314  1.0000
  H   H32       1.0  0.6251083724600972  0.4059050937953828  0.4793972988182346  1.0000
  C   C1        1.0  0.010676021822220596  0.09790769992441992  0.3284305008441208  1.0000
  C   C2        1.0  0.4893258178320038  0.4020915151248659  0.8284327518289274  1.0000
  C   C3        1.0  0.010677343602807797  0.9020907301741588  0.171566685424871  1.0000
  C   C4        1.0  0.4893218524902351  0.5979097177017891  0.6715694991558792  1.0000
  C   C5        1.0  0.9893223703638723  0.9020907301741588  0.6715689364096775  1.0000
  C   C6        1.0  0.5106752179152634  0.597908783459097  0.1715683736634759  1.0000
  C   C7        1.0  0.9893263357056412  0.09791050265249622  0.8284316263365241  1.0000
  C   C8        1.0  0.5106752179152634  0.40208964663948177  0.3284305008441208  1.0000
  C   C9        1.0  0.296252005328185  0.1292889119632861  0.315681485649975  1.0000
  C   C10       1.0  0.20374983432603944  0.370713105814076  0.8156837366347744  1.0000
  C   C11       1.0  0.296252005328185  0.8707113866206768  0.1843134496342174  1.0000
  C   C12       1.0  0.2037458689842708  0.6292899954979632  0.6843179516038234  1.0000
  C   C13       1.0  0.7037477086384951  0.8707113866206768  0.6843190770962266  1.0000
  C   C14       1.0  0.7962512014212348  0.6292871927698869  0.1843168261114272  1.0000
  C   C15       1.0  0.7037490304190823  0.12928797772059403  0.815681485649975  1.0000
  C   C16       1.0  0.7962512014212348  0.3707084346006155  0.3156820483961766  1.0000
  C   C17       1.0  0.2010692632903215  0.0369670490969298  0.4397113111986499  1.0000
  C   C18       1.0  0.298932576363903  0.4630359029231244  0.9397118739448515  1.0000
  C   C19       1.0  0.2010666197291471  0.9630351179724173  0.0602870005627452  1.0000
  C   C20       1.0  0.298932576363903  0.5369662641462227  0.5602886888013501  1.0000
  C   C21       1.0  0.7989304506763587  0.9630341837297252  0.5602892515475517  1.0000
  C   C22       1.0  0.7010658158221899  0.5369653299035307  0.0602886888013501  1.0000
  C   C23       1.0  0.7989317724569459  0.0369651806115456  0.9397107484524484  1.0000
  C   C24       1.0  0.7010671376027771  0.4630321659523561  0.4397107484524483  1.0000
  S   S1        1.0  0.8092376957140741  0.054727002680110104  0.3641727630838503  1.0000
  S   S2        1.0  0.6907678232485992  0.445274080854567  0.8641750140686568  1.0000
  S   S3        1.0  0.8092350521528997  0.9452723616611607  0.1358266741699481  1.0000
  S   S4        1.0  0.6907625361262362  0.5547280862147801  0.6358272369161497  1.0000
  S   S5        1.0  0.190762018252606  0.9452732959038599  0.6358266741699481  1.0000
  S   S6        1.0  0.3092332124986754  0.554726217729396  0.1358261114237465  1.0000
  S   S7        1.0  0.1907659835943747  0.054727002680110104  0.8641744513224552  1.0000
  S   S8        1.0  0.3092345342792626  0.4452722123691828  0.3641733258300519  1.0000
  N   N1        1.0  0.04074256489390388  0.1513417107181994  0.2615329206527832  1.0000
  N   N2        1.0  0.4592592747603205  0.34865937281647774  0.7615340461451865  1.0000
  N   N3        1.0  0.0407452084550854  0.8486585878657635  0.23846595385481348  1.0000
  N   N4        1.0  0.4592553094185518  0.6513427942528766  0.7384670793472168  1.0000
  N   N5        1.0  0.9592558272921818  0.8486585878657635  0.7384670793472168  1.0000
  N   N6        1.0  0.5407430827675411  0.6513399915248003  0.23846707934721684  1.0000
  N   N7        1.0  0.9592584708533634  0.1513417107181994  0.7615334833989849  1.0000
  N   N8        1.0  0.5407417609869539  0.3486565700883943  0.2615340461451865  1.0000
  N   N9        1.0  0.1726007529514675  0.0841108038425489  0.3637338210467078  1.0000
  N   N10       1.0  0.3273997649221697  0.4158912139348132  0.8637338210467078  1.0000
  N   N11       1.0  0.1726020747320547  0.9158876262560298  0.1362673044456955  1.0000
  N   N12       1.0  0.3273984431415754  0.5841118873772261  0.6362661789532922  1.0000
  N   N13       1.0  0.8273989610152128  0.9158904289841062  0.6362667416994938  1.0000
  N   N14       1.0  0.6725999490445103  0.5841100188918418  0.1362661789532922  1.0000
  N   N15       1.0  0.8273989610152128  0.08410893535716471  0.8637332583005062  1.0000
  N   N16       1.0  0.6725999490445103  0.4158884112067369  0.3637355092853127  1.0000
  N   N17       1.0  0.21902565260007376  0.17051423925233422  0.2536308384918371  1.0000
  N   N18       1.0  0.28097750883473777  0.3294859100396438  0.7536314012380387  1.0000
  N   N19       1.0  0.21902697438066093  0.8294832566035524  0.2463685987619613  1.0000
  N   N20       1.0  0.2809735434929691  0.6705153227870114  0.7463697242543645  1.0000
  N   N21       1.0  0.7809740613666063  0.8294851250889367  0.7463697242543645  1.0000
  N   N22       1.0  0.7190261704737109  0.6705143885443192  0.24636916150816293  1.0000
  N   N23       1.0  0.780976704927788  0.1705151734950263  0.7536308384918371  1.0000
  N   N24       1.0  0.7190248486931168  0.3294840415542595  0.2536319639842404  1.0000
  Cl  Cl1       1.0  0.03790602374861859  0.7039602769334651  0.4168300506471567  1.0000
  Cl  Cl2       1.0  0.4620931723444244  0.7960392366997908  0.9168306133933584  1.0000
  Cl  Cl3       1.0  0.03790602374861859  0.2960400216504979  0.0831693866066416  1.0000
  Cl  Cl4       1.0  0.4620944941250187  0.20396106188417923  0.5831705120990449  1.0000
  Cl  Cl5       1.0  0.9620936902180615  0.29604095589319  0.5831705120990449  1.0000
  Cl  Cl6       1.0  0.5379065416222559  0.2039591933987879  0.0831693866066416  1.0000
  Cl  Cl7       1.0  0.9620936902180615  0.7039612111761571  0.91683117613956  1.0000
  Cl  Cl8       1.0  0.5379065416222559  0.7960392366997908  0.4168300506471567  1.0000
