data_image0
_chemical_formula_structural       Mn6H88C100N4O40
_chemical_formula_sum              "Mn6 H88 C100 N4 O40"
_cell_length_a       9.344512042833236
_cell_length_b       17.350627911601713
_cell_length_c       17.35085204207482
_cell_angle_alpha    74.79727469961551
_cell_angle_beta     78.05234619157541
_cell_angle_gamma    78.05038313988443

_space_group_name_H-M_alt    "P 1"
_space_group_IT_number       1

loop_
  _space_group_symop_operation_xyz
  'x, y, z'

loop_
  _atom_site_type_symbol
  _atom_site_label
  _atom_site_symmetry_multiplicity
  _atom_site_fract_x
  _atom_site_fract_y
  _atom_site_fract_z
  _atom_site_occupancy
  Mn  Mn1       1.0  0.5599066762659745  0.8159509425654721  0.6914503437777029  1.0000
  Mn  Mn2       1.0  0.9403215342505644  0.3085113675674337  0.18398978449022962  1.0000
  Mn  Mn3       1.0  0.44017057658196274  0.18399745532025957  0.3085648765141116  1.0000
  Mn  Mn4       1.0  0.05986870624742118  0.6914623853139689  0.8159714658101792  1.0000
  Mn  Mn5       1.0  0.5000197367594552  0.999956481455122  0.5000410836641437  1.0000
  Mn  Mn6       1.0  9.492695529895559e-05  0.4999939027086599  7.610224550096813e-06  1.0000
  H   H1        1.0  0.40818704569025505  0.6725624954430107  0.7129203277836638  1.0000
  H   H2        1.0  0.0918330288112941  0.2870536727531956  0.32742842765092933  1.0000
  H   H3        1.0  0.5918276129037776  0.32742100476883007  0.28707784303334455  1.0000
  H   H4        1.0  0.9081620166274362  0.712929694759687  0.6725743520188133  1.0000
  H   H5        1.0  0.44581819731102  0.7169863633080098  0.6232361080428107  1.0000
  H   H6        1.0  0.054161317182845885  0.3767350274812814  0.2830020198420442  1.0000
  H   H7        1.0  0.554148797968196  0.28300964251310756  0.3767638926712777  1.0000
  H   H8        1.0  0.9458400346584598  0.6232490237967029  0.7169969776766365  1.0000
  H   H9        1.0  0.6613552633660829  0.8494171690286266  0.395187253013809  1.0000
  H   H10       1.0  0.8386451084516365  0.6048042978561131  0.150604730299804  1.0000
  H   H11       1.0  0.3386430568866174  0.15057657369833777  0.6048091084429785  1.0000
  H   H12       1.0  0.16136102108549016  0.3952037634152106  0.8494033058601432  1.0000
  H   H13       1.0  0.9984015124413189  0.7187468657753588  0.5378128620050759  1.0000
  H   H14       1.0  0.5016045059919421  0.46218000264168085  0.28126715541594643  1.0000
  H   H15       1.0  0.0015867808004088638  0.2812514974177206  0.4621944629409072  1.0000
  H   H16       1.0  0.49842001490389254  0.5378111784591724  0.7187429505842218  1.0000
  H   H17       1.0  0.07204971751004051  0.1449445426639714  0.1626113813040746  1.0000
  H   H18       1.0  0.427927682187274  0.8374079826344529  0.8550462067109095  1.0000
  H   H19       1.0  0.9279274454491641  0.8550611429907066  0.8373890699116017  1.0000
  H   H20       1.0  0.5720731371300045  0.16259542168137395  0.1449503445350899  1.0000
  H   H21       1.0  0.6853508439762522  0.0295402333726429  0.2283076905600012  1.0000
  H   H22       1.0  0.8146380263104687  0.7717015018402196  0.970444728040718  1.0000
  H   H23       1.0  0.31463418481323646  0.9704608024763819  0.7716832074679799  1.0000
  H   H24       1.0  0.1853603123748115  0.22830303648122202  0.0295558632694863  1.0000
  H   H25       1.0  0.08999913379820862  0.8289776743384965  0.9713959264519335  1.0000
  H   H26       1.0  0.40998425464905347  0.0286074407804335  0.17101725966810483  1.0000
  H   H27       1.0  0.910002750819892  0.17101900259118002  0.028606209773805336  1.0000
  H   H28       1.0  0.5900116521631061  0.9713905325634118  0.8289783288643803  1.0000
  H   H29       1.0  0.9856843014378073  0.8528640912000971  0.6040983714651915  1.0000
  H   H30       1.0  0.5143172128174882  0.39590083676447574  0.14714061033674847  1.0000
  H   H31       1.0  0.0143075188777502  0.1471403872506443  0.39590471849362535  1.0000
  H   H32       1.0  0.48568009650021077  0.6040928349969408  0.8528599207825209  1.0000
  H   H33       1.0  0.853543538225935  0.9414744728847284  0.5781852749214594  1.0000
  H   H34       1.0  0.646444582943225  0.421816482665463  0.0585341034079789  1.0000
  H   H35       1.0  0.146454611710638  0.0585306705658581  0.42181518772354565  1.0000
  H   H36       1.0  0.35353181519664634  0.5781812735357549  0.9414712907448504  1.0000
  H   H37       1.0  0.8807705563568927  0.9016215093448569  0.6804271736728539  1.0000
  H   H38       1.0  0.6192292073316848  0.31957530806553797  0.09838406149556533  1.0000
  H   H39       1.0  0.11922608905502588  0.09838486722478024  0.3195714271179996  1.0000
  H   H40       1.0  0.38076038214784075  0.6804291973414537  0.9016169742530168  1.0000
  H   H41       1.0  0.06698775459060605  0.6168705299622632  0.16742969429510174  1.0000
  H   H42       1.0  0.4329898355187111  0.8325615096414014  0.3831222312291658  1.0000
  H   H43       1.0  0.9330341677962791  0.38313223832317794  0.8325726425664471  1.0000
  H   H44       1.0  0.5669807728847686  0.16742973139923123  0.6168745014119495  1.0000
  H   H45       1.0  0.1993224577135493  0.043134798239940216  0.08103089725923239  1.0000
  H   H46       1.0  0.3006716929367243  0.9189833275732868  0.9568643582798515  1.0000
  H   H47       1.0  0.8006706496944814  0.9568726789002828  0.9189736035838081  1.0000
  H   H48       1.0  0.6993355928483567  0.08102378205788342  0.04312821717556401  1.0000
  H   H49       1.0  0.14745431055771258  0.669810979746437  0.41784636450690016  1.0000
  H   H50       1.0  0.35254417740935645  0.5821519440755197  0.33018717260156183  1.0000
  H   H51       1.0  0.8525551126523679  0.33019348008954114  0.5821610333427714  1.0000
  H   H52       1.0  0.6474638999829665  0.4178423575385041  0.6698136847871226  1.0000
  H   H53       1.0  0.35762971432001905  0.8567309049896397  0.5231212405285675  1.0000
  H   H54       1.0  0.142350601759027  0.47687934145920263  0.14327276591293978  1.0000
  H   H55       1.0  0.6423586160713483  0.14325976860286002  0.4768764641568666  1.0000
  H   H56       1.0  0.8576325861221721  0.5231322166964036  0.8567387851541354  1.0000
  H   H57       1.0  0.17857451465252436  0.8586803064579701  0.5010271156610243  1.0000
  H   H58       1.0  0.32139563894642714  0.49897207275059696  0.1413355462243047  1.0000
  H   H59       1.0  0.8214045419379872  0.141322926436743  0.4989760321578416  1.0000
  H   H60       1.0  0.6785809456201762  0.5010327397741606  0.8586813291101337  1.0000
  H   H61       1.0  0.21783199677295062  0.8131633880127043  0.60039453295326  1.0000
  H   H62       1.0  0.2821489772625653  0.39960502258714575  0.18683950603546154  1.0000
  H   H63       1.0  0.7821578156037957  0.18683327767163155  0.39960612123273614  1.0000
  H   H64       1.0  0.7178343907592577  0.6004054848148715  0.8131624862454386  1.0000
  H   H65       1.0  0.07112060394776873  0.8474928052305872  0.21670302948285067  1.0000
  H   H66       1.0  0.4288741970128386  0.7832982962720862  0.15249736182420998  1.0000
  H   H67       1.0  0.9288937402335904  0.15251302265617286  0.7832953885150715  1.0000
  H   H68       1.0  0.5711170190858611  0.21670397217541656  0.8474930898992382  1.0000
  H   H69       1.0  0.8052083501396227  0.7967914232731774  0.27670955777639944  1.0000
  H   H70       1.0  0.6947646853067722  0.7232838866769317  0.20321321826311595  1.0000
  H   H71       1.0  0.19480288229413395  0.20320659594268164  0.7232859747622058  1.0000
  H   H72       1.0  0.3052158409807221  0.2767181412466186  0.7967900591540271  1.0000
  H   H73       1.0  0.8116231829510667  0.9279933911201329  0.1469068802299914  1.0000
  H   H74       1.0  0.688368932311377  0.8530896549976463  0.07200105079709822  1.0000
  H   H75       1.0  0.1883792715934618  0.07200822186064931  0.8530887744422557  1.0000
  H   H76       1.0  0.31161623646796954  0.14691847470544425  0.9279990187380066  1.0000
  H   H77       1.0  0.09171872306593092  0.0687471774171371  0.6249160300762427  1.0000
  H   H78       1.0  0.4082440840284462  0.37509412351074917  0.9312692870580576  1.0000
  H   H79       1.0  0.9082825611575273  0.9312585494934853  0.3750862303816689  1.0000
  H   H80       1.0  0.591700630073092  0.6249179016374031  0.06874371887508343  1.0000
  H   H81       1.0  0.9481959975920516  0.023053674949657904  0.697245225538552  1.0000
  H   H82       1.0  0.5517700123086724  0.30275832180326046  0.9769506918330607  1.0000
  H   H83       1.0  0.05180114687455269  0.9769477896212637  0.30275857423641395  1.0000
  H   H84       1.0  0.44818590526911356  0.6972485674804362  0.023046154776352495  1.0000
  H   H85       1.0  0.9132751349389495  0.0758505578192796  0.598575826994896  1.0000
  H   H86       1.0  0.5866920450252735  0.40143065354868684  0.9241544160504703  1.0000
  H   H87       1.0  0.08672227707703686  0.9241533888511385  0.40142386587539397  1.0000
  H   H88       1.0  0.4132568844907424  0.5985846676292542  0.07584229501182443  1.0000
  C   C1        1.0  0.7243399462575366  0.8101895410288975  0.5475329743918564  1.0000
  C   C2        1.0  0.7756773823640799  0.45244468323097925  0.18982172591290689  1.0000
  C   C3        1.0  0.2756579329866042  0.18980906678362439  0.4524610751739289  1.0000
  C   C4        1.0  0.22434595645953692  0.5475461126367095  0.8101747784376416  1.0000
  C   C5        1.0  0.8185317350682196  0.7864392935427703  0.47456442188865117  1.0000
  C   C6        1.0  0.6814779506588946  0.5254175120789457  0.2135852656595389  1.0000
  C   C7        1.0  0.18146545883641346  0.21356167849056365  0.5254325775280506  1.0000
  C   C8        1.0  0.3185316196488657  0.4745755657986663  0.7864168761646796  1.0000
  C   C9        1.0  0.7669850871420963  0.809145766127763  0.40006486516222145  1.0000
  C   C10       1.0  0.7330212878663859  0.5999229156002457  0.1908713212296647  1.0000
  C   C11       1.0  0.23301833436443797  0.19085280244203065  0.5999325876732939  1.0000
  C   C12       1.0  0.26698720799522846  0.4000737461390998  0.8091329356964393  1.0000
  C   C13       1.0  0.9568224185608684  0.7364859997134661  0.4803818934570004  1.0000
  C   C14       1.0  0.5431862530688604  0.5196034748848819  0.2635272478354977  1.0000
  C   C15       1.0  0.04317524571496991  0.26351368700053257  0.5196199826390925  1.0000
  C   C16       1.0  0.45683266751846213  0.48038779237185747  0.7364765678018229  1.0000
  C   C17       1.0  0.7917478476241016  0.15338395001715813  0.2487274404455136  1.0000
  C   C18       1.0  0.7082374657568952  0.7512875923335827  0.8466056651767104  1.0000
  C   C19       1.0  0.20824208752631523  0.8466189182723554  0.75126301034485  1.0000
  C   C20       1.0  0.2917800755433291  0.24870795774032942  0.15339436271106172  1.0000
  C   C21       1.0  0.8706667562451998  0.0933666735610217  0.20047664298253656  1.0000
  C   C22       1.0  0.6293126831275371  0.7995397738120148  0.90662643161874  1.0000
  C   C23       1.0  0.12931980643159585  0.9066367089351888  0.799518681687978  1.0000
  C   C24       1.0  0.3706903144446798  0.20046004254658814  0.09336845421187688  1.0000
  C   C25       1.0  0.015675816622476198  0.09716021465556682  0.15937618539749113  1.0000
  C   C26       1.0  0.4842990279017271  0.8406418388324683  0.9028358167574382  1.0000
  C   C27       1.0  0.9843075336459322  0.9028467035975897  0.8406238195136524  1.0000
  C   C28       1.0  0.5157029068335602  0.1593615520052296  0.09716176159368219  1.0000
  C   C29       1.0  0.7981523231294005  0.03170179164228411  0.1962577090061401  1.0000
  C   C30       1.0  0.7018410866222525  0.8037530819726089  0.9682878389694379  1.0000
  C   C31       1.0  0.20184079820982243  0.9682980146626222  0.8037360167391085  1.0000
  C   C32       1.0  0.29816335196348126  0.19624915609422547  0.0317068541547272  1.0000
  C   C33       1.0  0.08070096142839833  0.7179019745184407  0.06309247319720866  1.0000
  C   C34       1.0  0.419282132803076  0.9369158652267519  0.28209499204209715  1.0000
  C   C35       1.0  0.9193063060660266  0.28209884806388896  0.9369155024214423  1.0000
  C   C36       1.0  0.5807055446125631  0.0630802973457207  0.7178991172498855  1.0000
  C   C37       1.0  0.012978620502060813  0.9804539320818151  0.11024385075140229  1.0000
  C   C38       1.0  0.48702173073414895  0.8897596675474022  0.01954432452934173  1.0000
  C   C39       1.0  0.9870234920518824  0.019556069454985402  0.8897555213299669  1.0000
  C   C40       1.0  0.512992505283897  0.11023949334447988  0.9804557642500812  1.0000
  C   C41       1.0  0.08462705708971895  0.8007911698499657  0.03551395639523493  1.0000
  C   C42       1.0  0.41536702873765574  0.9644867703417859  0.19920362650979231  1.0000
  C   C43       1.0  0.9153831295813715  0.1992068065482329  0.9644840135499849  1.0000
  C   C44       1.0  0.5846301474135629  0.035510612542680106  0.8007913855371456  1.0000
  C   C45       1.0  0.9371298927628473  0.9115488343968465  0.617384086405913  1.0000
  C   C46       1.0  0.5628657660820409  0.3826186725680573  0.08845717041958064  1.0000
  C   C47       1.0  0.06287700091445458  0.08845994988231352  0.3826167643332283  1.0000
  C   C48       1.0  0.43710779768409946  0.6173841070317964  0.9115357737712771  1.0000
  C   C49       1.0  0.07152976812478319  0.6812435772607659  0.1459198080531294  1.0000
  C   C50       1.0  0.42845015657402996  0.8540842083395291  0.3187527822416882  1.0000
  C   C51       1.0  0.9284905654717408  0.3187609448291938  0.854085735056671  1.0000
  C   C52       1.0  0.5715233338564687  0.14591187611755882  0.6812435649865379  1.0000
  C   C53       1.0  0.07815587382646066  0.669696262766067  0.0027033056971532705  1.0000
  C   C54       1.0  0.42183376674353923  0.9973044495997243  0.33030123439365167  1.0000
  C   C55       1.0  0.921859977343452  0.33030517909460144  0.9973052516551705  1.0000
  C   C56       1.0  0.5781440778748674  0.0026921203956007038  0.669703134520212  1.0000
  C   C57       1.0  0.06672025897885449  0.7286943705884923  0.20038647643404772  1.0000
  C   C58       1.0  0.4332590359438554  0.799616472871648  0.271297742102405  1.0000
  C   C59       1.0  0.9332959965872337  0.2713125936871704  0.7996166255368208  1.0000
  C   C60       1.0  0.5667199826759269  0.20038273463239162  0.7286931534766978  1.0000
  C   C61       1.0  0.0783019807611892  0.8466279840206571  0.09137313150561248  1.0000
  C   C62       1.0  0.4216868783403457  0.9086287869324892  0.15336459737547162  1.0000
  C   C63       1.0  0.9217082963197926  0.15337307022355876  0.9086211802883426  1.0000
  C   C64       1.0  0.5783045729439565  0.09137283885534943  0.8466282926876687  1.0000
  C   C65       1.0  0.9839182711368152  0.728518874828282  0.341197444158027  1.0000
  C   C66       1.0  0.5160615101698908  0.6587974041262189  0.27148533673936726  1.0000
  C   C67       1.0  0.016098120596893757  0.2714839233172557  0.6588020668524168  1.0000
  C   C68       1.0  0.4839169740302936  0.341204045624437  0.7285160151327406  1.0000
  C   C69       1.0  0.0872783272979163  0.040910103570077204  0.1139796287162724  1.0000
  C   C70       1.0  0.4127161232646088  0.8860326825327081  0.9590910214597628  1.0000
  C   C71       1.0  0.9127174904626751  0.9590992048189905  0.8860241029347833  1.0000
  C   C72       1.0  0.587292503978766  0.11397062743624531  0.040912719522083286  1.0000
  C   C73       1.0  0.03991845101626973  0.7083371686714204  0.41404770064553276  1.0000
  C   C74       1.0  0.46008149343310834  0.585939141322939  0.291664227679746  1.0000
  C   C75       1.0  0.9600886887766933  0.2916637571198352  0.5859539233682654  1.0000
  C   C76       1.0  0.5399273095914198  0.41404916000826847  0.7083345795813756  1.0000
  C   C77       1.0  0.23920222966233945  0.8627789793138378  0.5472950500309111  1.0000
  C   C78       1.0  0.2607816596114746  0.4527123680438266  0.13722851756077856  1.0000
  C   C79       1.0  0.76078671477039  0.1372242542519402  0.452709835291941  1.0000
  C   C80       1.0  0.7392037737161133  0.547298698765829  0.862776555102407  1.0000
  C   C81       1.0  0.07205812234821696  0.8113591072899954  0.17390857735040294  1.0000
  C   C82       1.0  0.42792640084016403  0.8260935862511547  0.1886384491409174  1.0000
  C   C83       1.0  0.9279463169166746  0.1886503372224554  0.8260883582574224  1.0000
  C   C84       1.0  0.5720570391589705  0.17390920340239552  0.8113556551353156  1.0000
  C   C85       1.0  0.8481276798892807  0.7801972237554936  0.3336083954313622  1.0000
  C   C86       1.0  0.6518526710485589  0.666383319924883  0.21981322800553468  1.0000
  C   C87       1.0  0.15188048244791466  0.21980376361867837  0.6663896363385791  1.0000
  C   C88       1.0  0.34813266504577456  0.3336138640616469  0.7801918503741236  1.0000
  C   C89       1.0  0.8683233565891372  0.9752856982672075  0.15116915127281766  1.0000
  C   C90       1.0  0.6316715150044487  0.8488351040023334  0.024709994336681914  1.0000
  C   C91       1.0  0.1316809567590269  0.024713490101497412  0.8488274677467516  1.0000
  C   C92       1.0  0.3683428284977524  0.15116351743881043  0.9752861811775803  1.0000
  C   C93       1.0  0.9983746867235935  0.03702265795948991  0.6330499127806206  1.0000
  C   C94       1.0  0.5016000540922929  0.36695225981941365  0.9629847052779682  1.0000
  C   C95       1.0  0.0016300389496633808  0.96297529200303  0.36694869582522216  1.0000
  C   C96       1.0  0.49835864595728907  0.6330532515102905  0.03702311415143804  1.0000
  C   C97       1.0  0.19124951260518946  0.9428680021161643  0.5713503567970193  1.0000
  C   C98       1.0  0.3087481300286186  0.4286589671951619  0.05713861344711546  1.0000
  C   C99       1.0  0.8087539694113559  0.05712736663342352  0.42865826063185614  1.0000
  C   C100      1.0  0.6912510517394352  0.5713538899083944  0.9428701868890599  1.0000
  N   N1        1.0  0.04953874167927083  0.961976583273213  0.6057613417238343  1.0000
  N   N2        1.0  0.45045353291725837  0.39424012159554433  0.038033195924100476  1.0000
  N   N3        1.0  0.950465211924886  0.03802740450264252  0.3942370073350858  1.0000
  N   N4        1.0  0.5495287508339217  0.6057636196981665  0.9619763690566572  1.0000
  O   O1        1.0  0.48794891840130095  0.6975811030044387  0.6729712718620959  1.0000
  O   O2        1.0  0.012053593124697715  0.32699291025025445  0.302415377663202  1.0000
  O   O3        1.0  0.5120443042778716  0.30241456531823735  0.3270171306668601  1.0000
  O   O4        1.0  0.9879575823685088  0.6729875900804603  0.6975810603152156  1.0000
  O   O5        1.0  0.05292821206588625  0.5976322165196211  0.03178819396786989  1.0000
  O   O6        1.0  0.4470755304768158  0.9682283739450745  0.40236216170943345  1.0000
  O   O7        1.0  0.9470919468550392  0.4023697484098039  0.9682260753955916  1.0000
  O   O8        1.0  0.5529191827958257  0.03177373209386761  0.5976388777714661  1.0000
  O   O9        1.0  0.5978940756594184  0.8558307388889049  0.5435924968793416  1.0000
  O   O10       1.0  0.9021327757969787  0.4563924974827956  0.14418680040080994  1.0000
  O   O11       1.0  0.4021174696550531  0.14418729069421946  0.45639744589614395  1.0000
  O   O12       1.0  0.09788985268396291  0.5436110407236329  0.8558054639468294  1.0000
  O   O13       1.0  0.7675187594326754  0.7803412850815977  0.6166146185771169  1.0000
  O   O14       1.0  0.7325172765981236  0.3833681117871422  0.2196575296825003  1.0000
  O   O15       1.0  0.23247611186770462  0.21964222317073026  0.3833794998132944  1.0000
  O   O16       1.0  0.2674946473193387  0.6166311417393973  0.7803364629563204  1.0000
  O   O17       1.0  0.8583823709441205  0.20790579742855905  0.2554549150908586  1.0000
  O   O18       1.0  0.6415949600433779  0.7445431391352741  0.7920921500422368  1.0000
  O   O19       1.0  0.14156532706164165  0.7921096310537978  0.7445349946800944  1.0000
  O   O20       1.0  0.35840270791276657  0.25546329901727205  0.2079028585047524  1.0000
  O   O21       1.0  0.660131047374037  0.14508924622520422  0.2834702087195282  1.0000
  O   O22       1.0  0.8398660924490431  0.716549694879717  0.854874301551213  1.0000
  O   O23       1.0  0.33987503436786426  0.8549044396854061  0.7165310327986133  1.0000
  O   O24       1.0  0.1601459016609964  0.2834522002510341  0.1451057680663439  1.0000
  O   O25       1.0  0.1004497796652544  0.7048265475209449  0.9281484138008765  1.0000
  O   O26       1.0  0.39951181276902764  0.0718649394235271  0.2951680933968674  1.0000
  O   O27       1.0  0.8995607027014502  0.29516758639738333  0.07186315907739527  1.0000
  O   O28       1.0  0.600437225336691  0.9281322765053873  0.704828496933203  1.0000
  O   O29       1.0  0.08518487168964829  0.9280166039508801  0.0615175927801771  1.0000
  O   O30       1.0  0.4148192605186268  0.93848613395722  0.07197382830524646  1.0000
  O   O31       1.0  0.9148138793207254  0.07198669596437675  0.9384849881163075  1.0000
  O   O32       1.0  0.5851734894673655  0.06151848113746891  0.9280210500607353  1.0000
  O   O33       1.0  0.28126936720532547  0.9913050382373572  0.5608967200096799  1.0000
  O   O34       1.0  0.21873491721911617  0.439115123585701  0.008694183534899489  1.0000
  O   O35       1.0  0.7187454338424502  0.0086824029214938  0.4391188998147015  1.0000
  O   O36       1.0  0.7812807074841215  0.5609148767029597  0.991302685346824  1.0000
  O   O37       1.0  0.06502400894580508  0.6903334337347788  0.2814019178688625  1.0000
  O   O38       1.0  0.4349517227112544  0.7186002530654038  0.3096546556278312  1.0000
  O   O39       1.0  0.9350018088670001  0.3096710960256034  0.7186041414175577  1.0000
  O   O40       1.0  0.5650265812063822  0.28139773889320463  0.6903366250137992  1.0000
