data_image0
_chemical_formula_structural       Zn4H47C55N21O3
_chemical_formula_sum              "Zn4 H47 C55 N21 O3"
_cell_length_a       14.694535161977882
_cell_length_b       15.131317771421498
_cell_length_c       14.892866343015493
_cell_angle_alpha    111.79826400346685
_cell_angle_beta     110.44857890183494
_cell_angle_gamma    105.69428433013658

_space_group_name_H-M_alt    "P 1"
_space_group_IT_number       1

loop_
  _space_group_symop_operation_xyz
  'x, y, z'

loop_
  _atom_site_type_symbol
  _atom_site_label
  _atom_site_symmetry_multiplicity
  _atom_site_fract_x
  _atom_site_fract_y
  _atom_site_fract_z
  _atom_site_occupancy
  Zn  Zn1       1.0  0.003250267828583536  0.3719034807344953  0.8630671343711783  1.0000
  Zn  Zn2       1.0  0.9957605894135425  0.6333657881733785  0.13556419939313719  1.0000
  Zn  Zn3       1.0  0.13233847980841063  0.489645812658793  0.14082799411025357  1.0000
  Zn  Zn4       1.0  0.8562312949426314  0.5002139259497583  0.8655640062751503  1.0000
  H   H1        1.0  0.8445196073093086  0.14437299023887817  0.8109907369182495  1.0000
  H   H2        1.0  0.3671665037813199  0.9979909682779747  0.23180733170832477  1.0000
  H   H3        1.0  0.6005247184289144  0.013972188142091148  0.5733410569205049  1.0000
  H   H4        1.0  0.5153635030741341  0.0757673490788946  0.5792608901297882  1.0000
  H   H5        1.0  0.3632141228793343  0.911338878628996  0.43559743709528226  1.0000
  H   H6        1.0  0.44913784028009457  0.8510367194927753  0.4265573423699251  1.0000
  H   H7        1.0  0.6691775946201799  0.9986115917829108  0.4426822026088573  1.0000
  H   H8        1.0  0.5222648504775336  0.8470484027949752  0.29604371963216647  1.0000
  H   H9        1.0  0.32029731409941314  0.21390516259429396  0.8329856996907452  1.0000
  H   H10       1.0  0.21812280002028214  0.550364368292172  0.41236571510296477  1.0000
  H   H11       1.0  0.46464408200461804  0.37928779821611874  0.08512142346310722  1.0000
  H   H12       1.0  0.1657150085833193  0.8395426311817004  0.16858074846710747  1.0000
  H   H13       1.0  0.4874746482566508  0.23742295625364557  0.8305438010207525  1.0000
  H   H14       1.0  0.6080700072244484  0.3678182942806317  0.08777108054717069  1.0000
  H   H15       1.0  0.2339092089627923  0.6774886469512821  0.6135821891307316  1.0000
  H   H16       1.0  0.07468352205863468  0.7674435932132225  0.7442354621240028  1.0000
  H   H17       1.0  0.16098503011191664  0.602454334580706  0.6883461575710186  1.0000
  H   H18       1.0  0.8977292665773005  0.997278799536545  0.16867040038017206  1.0000
  H   H19       1.0  0.7737950602315989  0.8583409067790058  0.9118167500769374  1.0000
  H   H20       1.0  0.8865627237213474  0.14257312084271215  0.145521681371413  1.0000
  H   H21       1.0  0.6317909799921819  0.3230184134065651  0.6163378156534662  1.0000
  H   H22       1.0  0.8206555743393338  0.14759099798403244  0.6170930973771647  1.0000
  H   H23       1.0  0.7503754845064493  0.6620432929252262  0.8260838363788211  1.0000
  H   H24       1.0  0.6573776757693323  0.30541031013930814  0.821294500901523  1.0000
  H   H25       1.0  0.9830740803267164  0.3168751409585795  0.17086082739128736  1.0000
  H   H26       1.0  0.16593355308070554  0.5024221395898324  0.8084479249628418  1.0000
  H   H27       1.0  0.4468792940688289  0.3586672640139241  0.2224976950262842  1.0000
  H   H28       1.0  0.3089788675358704  0.2552827948900358  0.1420564085661482  1.0000
  H   H29       1.0  0.2885421335809538  0.322337627057685  0.31199100896717624  1.0000
  H   H30       1.0  0.4025857728143478  0.2945966945852092  0.3408888101780719  1.0000
  H   H31       1.0  0.4243663630699571  0.4296368543181046  0.39132838396272973  1.0000
  H   H32       1.0  0.3526138928641345  0.37894632895540065  0.8374727489915446  1.0000
  H   H33       1.0  0.28908328779068887  0.4640183916725321  0.8463769028813604  1.0000
  H   H34       1.0  0.9518955532488036  0.8480734555305247  0.18808100655794377  1.0000
  H   H35       1.0  0.15819520539286447  0.347200912318513  0.6368413233963466  1.0000
  H   H36       1.0  0.2971249726327584  0.39785349644738227  0.668982203250387  1.0000
  H   H37       1.0  0.22266254806855554  0.2625909629242642  0.6295617220140955  1.0000
  H   H38       1.0  0.9754024987803118  0.8269720659938143  0.6459883850574997  1.0000
  H   H39       1.0  0.9172772315175806  0.6839839052678371  0.5708210414306051  1.0000
  H   H40       1.0  0.8456259481113975  0.6797119849657207  0.38919803284939286  1.0000
  H   H41       1.0  0.7983461925709676  0.748621517736133  0.4735773039701101  1.0000
  H   H42       1.0  0.9071242371219483  0.8220165264111046  0.4620043471479889  1.0000
  H   H43       1.0  0.984361942602902  0.6850309052781469  0.8318471017150912  1.0000
  H   H44       1.0  0.527082719288785  0.15670216169740306  0.37304551259482827  1.0000
  H   H45       1.0  0.4751048893337781  0.16421921119795263  0.46463594428340127  1.0000
  H   H46       1.0  0.32059550773561807  0.0029716578887360188  0.3273718910313833  1.0000
  H   H47       1.0  0.8259893885485211  0.4941611878510911  0.183919705671336  1.0000
  C   C1        1.0  0.8858462424944874  0.20314098408383774  0.8996646811855983  1.0000
  C   C2        1.0  0.21291766394712397  0.34043993553172663  0.9108165938109353  1.0000
  C   C3        1.0  0.02305924007045939  0.6336266537671662  0.8355480413010384  1.0000
  C   C4        1.0  0.8004153767627001  0.4571081667007704  0.09552356020430607  1.0000
  C   C5        1.0  0.2973989883822981  0.6996054118629756  0.19740322184538428  1.0000
  C   C6        1.0  0.09715591799197641  0.6171666669603582  0.7994198614514618  1.0000
  C   C7        1.0  0.30702138969682125  0.8031092541934443  0.22460856878425525  1.0000
  C   C8        1.0  0.2964224096365554  0.34400912275550866  0.9988112630306248  1.0000
  C   C9        1.0  0.8389129542533523  0.7927307292172756  0.0069508538838147765  1.0000
  C   C10       1.0  0.4943984194078298  0.11223836225372723  0.40782909429456304  1.0000
  C   C11       1.0  0.38983589396541857  0.0053161712140053176  0.3137611492582765  1.0000
  C   C12       1.0  0.6984611251289863  0.373588428558179  0.002160583281693164  1.0000
  C   C13       1.0  0.6132937669766392  0.02132332948383457  0.3956594014279986  1.0000
  C   C14       1.0  0.5362487693502942  0.02645075084992505  0.5221745937207986  1.0000
  C   C15       1.0  0.5835394404547712  0.09185361927880109  0.47631139100067094  1.0000
  C   C16       1.0  0.1775859191691679  0.5955741657363803  0.39042240834949393  1.0000
  C   C17       1.0  0.40737391951758184  0.908848466829717  0.3114935289479988  1.0000
  C   C18       1.0  0.5076352428254509  0.9142468528272475  0.29493818662768945  1.0000
  C   C19       1.0  0.43561552504961304  0.9189750151430333  0.42653195341558364  1.0000
  C   C20       1.0  0.3958159063898348  0.26591823889945937  0.9141441622310397  1.0000
  C   C21       1.0  0.38989944893415185  0.3277536618763079  0.003327641043135571  1.0000
  C   C22       1.0  0.4961164016579432  0.2740618983977756  0.9136653786588201  1.0000
  C   C23       1.0  0.1573634044236769  0.6732268930926182  0.4579170679331526  1.0000
  C   C24       1.0  0.5986673153009504  0.33384308102339594  0.004241041497167007  1.0000
  C   C25       1.0  0.11514528954909047  0.7301504276646611  0.6117959742277962  1.0000
  C   C26       1.0  0.17633086410062035  0.698641900099254  0.5679793572902057  1.0000
  C   C27       1.0  0.10831418963952895  0.7209391491453161  0.703282517173122  1.0000
  C   C28       1.0  0.6926999712737896  0.29453219811779974  0.6323077633360512  1.0000
  C   C29       1.0  0.12837480858715353  0.6495303026980891  0.7306973149010149  1.0000
  C   C30       1.0  0.8598751125762193  0.9796750283854436  0.08240493874595961  1.0000
  C   C31       1.0  0.8198209908718682  0.8779680929954808  0.9978071268798702  1.0000
  C   C32       1.0  0.865267896340164  0.07072240131199693  0.07073476444786313  1.0000
  C   C33       1.0  0.8594990184302419  0.0834019621001119  0.9823491447737143  1.0000
  C   C34       1.0  0.6838664301293703  0.1931364180729745  0.572857557634521  1.0000
  C   C35       1.0  0.10376484334238245  0.7040172330415045  0.38409700821408416  1.0000
  C   C36       1.0  0.788685357986772  0.20514925018846947  0.6329198145532829  1.0000
  C   C37       1.0  0.7136361050868486  0.3605170140911865  0.9104164750783639  1.0000
  C   C38       1.0  0.9556808529892465  0.2905313172546045  0.08337701874787477  1.0000
  C   C39       1.0  0.8927279487183669  0.18645365676673015  0.988309620075242  1.0000
  C   C40       1.0  0.36555781527469117  0.33709441687300057  0.21457304256492898  1.0000
  C   C41       1.0  0.3703064121316757  0.3466255688578457  0.3211003504441479  1.0000
  C   C42       1.0  0.27532622340348206  0.3813929701059848  0.7979908649035679  1.0000
  C   C43       1.0  0.23553380290903908  0.344867797038873  0.6760239940089151  1.0000
  C   C44       1.0  0.38204650825113606  0.6714869076849936  0.23253428996356004  1.0000
  C   C45       1.0  0.11517001819306197  0.5397372606658732  0.8235221698346038  1.0000
  C   C46       1.0  0.6727006313965234  0.08234174580626069  0.36055566384136745  1.0000
  C   C47       1.0  0.4834863956950031  0.8998381924024271  0.18534126407571705  1.0000
  C   C48       1.0  0.9520043022753487  0.7563470533976046  0.5677474067654914  1.0000
  C   C49       1.0  0.8712147597118757  0.751606743938538  0.46711018016964084  1.0000
  C   C50       1.0  0.8355573896528767  0.9976699750263973  0.8801422017475885  1.0000
  C   C51       1.0  0.07600877094963449  0.7886294923005436  0.39700260558525  1.0000
  C   C52       1.0  0.1984769104266775  0.7836872294022683  0.17112051417814908  1.0000
  C   C53       1.0  0.2757543215862981  0.3862585400844907  0.08760183235782647  1.0000
  C   C54       1.0  0.8030738356192373  0.6926603103398821  0.9142071686129541  1.0000
  C   C55       1.0  0.9064550981681024  0.7892649598998317  0.0989192807566326  1.0000
  N   N1        1.0  0.9417079873215002  0.3083138924661598  0.9397386893479621  1.0000
  N   N2        1.0  0.1361225132687025  0.5789491337743513  0.28593099813166134  1.0000
  N   N3        1.0  0.7949213487491489  0.36161412276668853  0.7208841616587236  1.0000
  N   N4        1.0  0.09047467149995467  0.6448011071898065  0.2811772214680489  1.0000
  N   N5        1.0  0.8545810646047939  0.30590636366463986  0.7211061878585595  1.0000
  N   N6        1.0  0.8148669582293522  0.43265071137603434  0.9473031823511066  1.0000
  N   N7        1.0  0.9848191169093711  0.36203624933177986  0.052708337838453134  1.0000
  N   N8        1.0  0.055770762880200615  0.511997918850291  0.8684515538000144  1.0000
  N   N9        1.0  0.4561783803367163  0.6545892916855536  0.2666773768258039  1.0000
  N   N10       1.0  0.7213978815216038  0.13300983769561  0.33484107007338787  1.0000
  N   N11       1.0  0.46101201452943735  0.8860138616362433  0.09639198592005033  1.0000
  N   N12       1.0  0.1300356375888966  0.6778975520884529  0.11927353406691307  1.0000
  N   N13       1.0  0.81825738619969  0.9315414868539379  0.7948212242578665  1.0000
  N   N14       1.0  0.05471249290988549  0.8570856494032951  0.3939763146093044  1.0000
  N   N15       1.0  0.18923558850364938  0.4049627936089307  0.05521970892804258  1.0000
  N   N16       1.0  0.8456469702129181  0.6350442459342034  0.9473403178451107  1.0000
  N   N17       1.0  0.9102748167283681  0.6954373848392239  0.062449804772896425  1.0000
  N   N18       1.0  0.15026488678567046  0.3770836767126581  0.9444737834159512  1.0000
  N   N19       1.0  0.9984125886843954  0.5691325855854004  0.8748428988177537  1.0000
  N   N20       1.0  0.1896690435242831  0.625634676419736  0.13411442154297498  1.0000
  N   N21       1.0  0.8681575169160567  0.4919908437349462  0.06095954330663032  1.0000
  O   O1        1.0  0.3271554606273454  0.41060326403097486  0.19491763874432874  1.0000
  O   O2        1.0  0.1915589690558547  0.3098443899584851  0.8043039306150633  1.0000
  O   O3        1.0  0.04877175157849207  0.7641821506487787  0.558872448939745  1.0000
