data_image0
_chemical_formula_structural       Lu4H60C44O24
_chemical_formula_sum              "Lu4 H60 C44 O24"
_cell_length_a       8.014913803004797
_cell_length_b       10.67876739408113
_cell_length_c       14.71337460110592
_cell_angle_alpha    89.99956844630528
_cell_angle_beta     90.000043957066
_cell_angle_gamma    90.00011824084591

_space_group_name_H-M_alt    "P 1"
_space_group_IT_number       1

loop_
  _space_group_symop_operation_xyz
  'x, y, z'

loop_
  _atom_site_type_symbol
  _atom_site_label
  _atom_site_symmetry_multiplicity
  _atom_site_fract_x
  _atom_site_fract_y
  _atom_site_fract_z
  _atom_site_occupancy
  Lu  Lu1       1.0  0.9229155834855974  0.7983269208243511  0.0018847313434377994  1.0000
  Lu  Lu2       1.0  0.5770873179355578  0.20167560532576093  0.50188511159957  1.0000
  Lu  Lu3       1.0  0.07708955748665862  0.2983184158583185  0.4981133466248977  1.0000
  Lu  Lu4       1.0  0.4229207666762563  0.7016716232497728  0.9981165791009585  1.0000
  H   H1        1.0  0.2333564061008957  0.6749171348936046  0.6991573247266769  1.0000
  H   H2        1.0  0.26663851830191737  0.3250835051274307  0.19915402425920795  1.0000
  H   H3        1.0  0.7666391278570687  0.1749211090851475  0.8008424729422571  1.0000
  H   H4        1.0  0.7333579628775554  0.8250811169641209  0.30084322809332775  1.0000
  H   H5        1.0  0.560756632218947  0.9873325663660211  0.8967271231753313  1.0000
  H   H6        1.0  0.9392493294142881  0.0126789632508491  0.39672287912814846  1.0000
  H   H7        1.0  0.4392447554894546  0.4873174891018763  0.6032750484013716  1.0000
  H   H8        1.0  0.060755022436637815  0.5126738473091237  0.10328219412546957  1.0000
  H   H9        1.0  0.9701179025210251  0.6950654638136626  0.6405692303956129  1.0000
  H   H10       1.0  0.5298802066095121  0.3049421749715577  0.14056798138356894  1.0000
  H   H11       1.0  0.029877687089601996  0.19506113779515744  0.8594338556657277  1.0000
  H   H12       1.0  0.47011871426897767  0.8049331530188366  0.3594327791169789  1.0000
  H   H13       1.0  0.9042359213291818  0.7930341179471936  0.730394026222065  1.0000
  H   H14       1.0  0.5957585732802997  0.20697165013199734  0.23039537764392998  1.0000
  H   H15       1.0  0.09576118660683619  0.2930327006248347  0.769607845808572  1.0000
  H   H16       1.0  0.4042400769491152  0.7069643973267573  0.2696079561924876  1.0000
  H   H17       1.0  0.9739823481277556  0.9790560587208437  0.6500537042017598  1.0000
  H   H18       1.0  0.526025755965158  0.020950544965870697  0.1500567212447237  1.0000
  H   H19       1.0  0.026021512078109803  0.47905182540937835  0.8499471531825546  1.0000
  H   H20       1.0  0.47398485710343863  0.5209435005149814  0.34994694759068773  1.0000
  H   H21       1.0  0.945874546804447  0.883905106108081  0.5538768375544763  1.0000
  H   H22       1.0  0.5541296766760625  0.11610156146652167  0.0538779878502638  1.0000
  H   H23       1.0  0.05412530751348749  0.38389897936075806  0.9461252184881274  1.0000
  H   H24       1.0  0.4458787039055139  0.6160925369167031  0.4461251619895279  1.0000
  H   H25       1.0  0.49193068462662387  0.7529959153250515  0.6450227449840182  1.0000
  H   H26       1.0  0.008065409999794302  0.24700060555830555  0.14501840474228084  1.0000
  H   H27       1.0  0.5080663127105042  0.2530017371622079  0.8549800250686841  1.0000
  H   H28       1.0  0.9919308554790972  0.7470064808868956  0.3549785938365702  1.0000
  H   H29       1.0  0.5149741345317623  0.8090289691170938  0.7574196536563986  1.0000
  H   H30       1.0  0.9850266370897955  0.19096528066016563  0.2574144559310909  1.0000
  H   H31       1.0  0.4850242652750866  0.30903405157931724  0.7425828107667056  1.0000
  H   H32       1.0  0.014973216607664604  0.6909717554020033  0.24258080932995085  1.0000
  H   H33       1.0  0.5500850048110805  0.9118044552341757  0.6634042387472688  1.0000
  H   H34       1.0  0.9499168799890968  0.08818983593432249  0.1634009464756971  1.0000
  H   H35       1.0  0.44991492659894305  0.4118113150534273  0.8365969854293879  1.0000
  H   H36       1.0  0.05008892815308741  0.5881963234106847  0.33659691833569366  1.0000
  H   H37       1.0  0.1417687847731415  0.0199076197426038  0.7621691103682693  1.0000
  H   H38       1.0  0.358234963493075  0.9800923648936575  0.2621690713692928  1.0000
  H   H39       1.0  0.8582300639779774  0.5199116980965925  0.7378308531456597  1.0000
  H   H40       1.0  0.6417706796352434  0.48009118333645523  0.23783005410202654  1.0000
  H   H41       1.0  0.3479282478024501  0.0655040272984877  0.7309559306414853  1.0000
  H   H42       1.0  0.15207171278864  0.9344962819803939  0.23095537589355788  1.0000
  H   H43       1.0  0.652071974583542  0.5655065267769714  0.7690417452105363  1.0000
  H   H44       1.0  0.8479338043759482  0.43449603003563214  0.2690419593175051  1.0000
  H   H45       1.0  0.31447068096338887  0.9641325083463099  0.8246260693327584  1.0000
  H   H46       1.0  0.1855319089761949  0.0358658902493048  0.324625672339259  1.0000
  H   H47       1.0  0.6855318903500989  0.46413578960482477  0.6753735101237266  1.0000
  H   H48       1.0  0.8144712592646215  0.5358696143110321  0.17537315753346405  1.0000
  H   H49       1.0  0.39252598644050357  0.8152190800892641  0.5095879550961797  1.0000
  H   H50       1.0  0.10747365745812938  0.1847760400978515  0.009587393411266  1.0000
  H   H51       1.0  0.6074674397721298  0.3152264558575695  0.9904117569407942  1.0000
  H   H52       1.0  0.8925324175038868  0.6847747349535991  0.49041266320758575  1.0000
  H   H53       1.0  0.19210709586590727  0.8291131109158697  0.4596543957383261  1.0000
  H   H54       1.0  0.3078919442211686  0.17088575614788937  0.9596536795568722  1.0000
  H   H55       1.0  0.807883158085339  0.3291161123214721  0.04034623288744399  1.0000
  H   H56       1.0  0.6921160553264017  0.6708803951779527  0.5403447808217479  1.0000
  H   H57       1.0  0.2274099321507421  0.712640459502751  0.5432568876126778  1.0000
  H   H58       1.0  0.2725860168935199  0.2873571198229641  0.04325379536132349  1.0000
  H   H59       1.0  0.7725782199809643  0.2126446942138358  0.9567474618685592  1.0000
  H   H60       1.0  0.7274190937794814  0.7873521645573898  0.45674570173949997  1.0000
  C   C1        1.0  0.1724538883104927  0.7507435291804542  0.8264990681290314  1.0000
  C   C2        1.0  0.327542465937647  0.2492539134871024  0.3264996045846047  1.0000
  C   C3        1.0  0.8275418551240534  0.2507470488469181  0.6734996362929094  1.0000
  C   C4        1.0  0.6724587964583931  0.7492565016878742  0.1734980613673187  1.0000
  C   C5        1.0  0.17450625350044657  0.7612452744542536  0.7242532913450431  1.0000
  C   C6        1.0  0.32549120215718835  0.23875791385330553  0.2242518452614775  1.0000
  C   C7        1.0  0.825490766623773  0.2612496003752938  0.7757487540619437  1.0000
  C   C8        1.0  0.6745075358859651  0.7387528866750585  0.275748596576001  1.0000
  C   C9        1.0  0.6656098579486455  0.9332700785142548  0.9254582945153513  1.0000
  C   C10       1.0  0.8343973924536955  0.06673459719613108  0.4254571107434373  1.0000
  C   C11       1.0  0.3343951234422279  0.433267312159245  0.5745387346820933  1.0000
  C   C12       1.0  0.16560461337327584  0.5667252595897665  0.0745422304452532  1.0000
  C   C13       1.0  0.0021488097147753  0.7795218291634994  0.6793226569485  1.0000
  C   C14       1.0  0.49784982934860267  0.22048650863750657  0.17932342039684804  1.0000
  C   C15       1.0  0.9978507562389609  0.2795193984076363  0.8206792887880922  1.0000
  C   C16       1.0  0.5021501058873595  0.7204770027038805  0.32067916007554226  1.0000
  C   C17       1.0  0.2886036827267588  0.8736386506165343  0.6921733520007292  1.0000
  C   C18       1.0  0.21139996540463096  0.12636206204125955  0.1921717923890611  1.0000
  C   C19       1.0  0.7113986385890102  0.3736424670091267  0.8078260413986341  1.0000
  C   C20       1.0  0.7886022051606574  0.6263615592847955  0.30782654388423936  1.0000
  C   C21       1.0  0.018840305859704597  0.8936261619548062  0.6164577769845749  1.0000
  C   C22       1.0  0.4811619862863098  0.1063781475112293  0.11645779665283837  1.0000
  C   C23       1.0  0.9811583276449911  0.39362398805791793  0.8835442260235666  1.0000
  C   C24       1.0  0.5188451197633058  0.6063726956462504  0.3835440469057758  1.0000
  C   C25       1.0  0.47239849177789495  0.8348375143816186  0.6889553351862573  1.0000
  C   C26       1.0  0.027601408719597504  0.1651585495670957  0.18895144938509387  1.0000
  C   C27       1.0  0.5276012270002114  0.33484195039672926  0.811046308812621  1.0000
  C   C28       1.0  0.9723996213582711  0.6651639152833297  0.3110459956030595  1.0000
  C   C29       1.0  0.2068934829442881  0.9040536407416935  0.5971433873845696  1.0000
  C   C30       1.0  0.29311002923517293  0.0959443145544085  0.0971420272883066  1.0000
  C   C31       1.0  0.7931051793742371  0.4040575311378233  0.902856519769223  1.0000
  C   C32       1.0  0.7068970480002791  0.5959473796328113  0.4028578341971353  1.0000
  C   C33       1.0  0.2711302102890798  0.9874529402421999  0.7557587228262432  1.0000
  C   C34       1.0  0.22887228112935526  0.012545238195734502  0.25575779120780595  1.0000
  C   C35       1.0  0.7288711777761563  0.487456508469414  0.744241409081816  1.0000
  C   C36       1.0  0.7711320703563092  0.5125463062876036  0.24424116587474023  1.0000
  C   C37       1.0  0.25845342912732144  0.8089447725075374  0.5234114219473368  1.0000
  C   C38       1.0  0.24154623454706578  0.19105114034874052  0.0234095218772197  1.0000
  C   C39       1.0  0.7415399797477279  0.3089487529783169  0.9765890039757961  1.0000
  C   C40       1.0  0.7584611054252974  0.6910507087269764  0.4765898208582938  1.0000
  C   C41       1.0  0.25726209844786047  0.0308117108926069  0.5586467934782887  1.0000
  C   C42       1.0  0.24273886330887254  0.9691819625814373  0.05865084438919869  1.0000
  C   C43       1.0  0.7427405234511826  0.530819113052992  0.9413497122823812  1.0000
  C   C44       1.0  0.7572592636435472  0.4691844608992638  0.441354457464861  1.0000
  O   O1        1.0  0.14395262867284941  0.6844589539831674  0.05806437975542169  1.0000
  O   O2        1.0  0.3560483322486833  0.3155347255631114  0.5580656129955558  1.0000
  O   O3        1.0  0.8560447117015569  0.1844625349508817  0.441935678577856  1.0000
  O   O4        1.0  0.6439500855281041  0.8155391600605738  0.9419340973287758  1.0000
  O   O5        1.0  0.04730977308391001  0.7914286103677522  0.8706438008200263  1.0000
  O   O6        1.0  0.45267666290530423  0.20855339013228755  0.370647329322196  1.0000
  O   O7        1.0  0.9526873304386855  0.2914430828923642  0.6293580799245007  1.0000
  O   O8        1.0  0.5473057719458795  0.7085571810007778  0.1293553161994438  1.0000
  O   O9        1.0  0.30363720738319694  0.5155734772660878  0.0587207390431388  1.0000
  O   O10       1.0  0.19635876378507083  0.48442394120898774  0.5587203057511656  1.0000
  O   O11       1.0  0.696353428065045  0.015585246860901196  0.4412734439137437  1.0000
  O   O12       1.0  0.8036351298596288  0.984421137176817  0.9412805223481229  1.0000
  O   O13       1.0  0.3563544373402223  0.8985186319249648  0.0263559539526028  1.0000
  O   O14       1.0  0.1436464782151674  0.10147537745189081  0.5263501115675666  1.0000
  O   O15       1.0  0.6436472374208719  0.3985206191937464  0.4736517722974298  1.0000
  O   O16       1.0  0.8563488528582042  0.601486364603474  0.9736439697861454  1.0000
  O   O17       1.0  0.5881712141008106  0.5571263211530989  0.9444406739330728  1.0000
  O   O18       1.0  0.9118260820587168  0.44287347492522855  0.4444401889663964  1.0000
  O   O19       1.0  0.4118264897822926  0.0571201258366401  0.5555590865994873  1.0000
  O   O20       1.0  0.08817321987760351  0.9428698340035949  0.05556253778917149  1.0000
  O   O21       1.0  0.3009143719378217  0.7038812766054859  0.8652530783154047  1.0000
  O   O22       1.0  0.1990832854325078  0.2961223180616912  0.3652519469979723  1.0000
  O   O23       1.0  0.699093718768637  0.2038803191425771  0.6347445224236523  1.0000
  O   O24       1.0  0.8009006389978169  0.7961198887123472  0.13474478366695308  1.0000
