data_image0
_chemical_formula_structural       Zn4H40C28N16Cl4O4
_chemical_formula_sum              "Zn4 H40 C28 N16 Cl4 O4"
_cell_length_a       8.598249713003595
_cell_length_b       9.667386133843067
_cell_length_c       12.520072719953058
_cell_angle_alpha    97.57447232992438
_cell_angle_beta     90.00002102178179
_cell_angle_gamma    89.99989535951956

_space_group_name_H-M_alt    "P 1"
_space_group_IT_number       1

loop_
  _space_group_symop_operation_xyz
  'x, y, z'

loop_
  _atom_site_type_symbol
  _atom_site_label
  _atom_site_symmetry_multiplicity
  _atom_site_fract_x
  _atom_site_fract_y
  _atom_site_fract_z
  _atom_site_occupancy
  Zn  Zn1       1.0  0.9022602585461784  0.32065166381089233  0.8006840877653332  1.0000
  Zn  Zn2       1.0  0.4022581015767273  0.6793451396270456  0.6993166725381316  1.0000
  Zn  Zn3       1.0  0.09774250388045401  0.679344332818488  0.19931530344243953  1.0000
  Zn  Zn4       1.0  0.5977423347976157  0.32064878069451214  0.3006841129332898  1.0000
  H   H1        1.0  0.7201380880875305  0.3399656125580179  0.04917649799172351  1.0000
  H   H2        1.0  0.22012563817115452  0.6600408803222209  0.4508258551835952  1.0000
  H   H3        1.0  0.27987165249930973  0.6600356282654118  0.95082740006405  1.0000
  H   H4        1.0  0.7798666570005255  0.33996346429467655  0.5491743529743687  1.0000
  H   H5        1.0  0.2614718233902593  0.029185192218477603  0.12529474908332364  1.0000
  H   H6        1.0  0.7614691946172486  0.9708149625259923  0.3747053965096896  1.0000
  H   H7        1.0  0.7385286129759338  0.970816011214616  0.8747035542170993  1.0000
  H   H8        1.0  0.2385277526682046  0.029185208097608502  0.6252944031731574  1.0000
  H   H9        1.0  0.38360234679681343  0.16157851661012762  0.08516280412674603  1.0000
  H   H10       1.0  0.8836000116121173  0.8384214471090702  0.41483815144760433  1.0000
  H   H11       1.0  0.616398089569586  0.8384226921655157  0.9148362984243834  1.0000
  H   H12       1.0  0.11639809870094814  0.16157872885614924  0.5851624474859989  1.0000
  H   H13       1.0  0.31839643898254627  0.020793812333828005  0.9881947177214772  1.0000
  H   H14       1.0  0.8183959247833884  0.9792072945902603  0.5118056444382475  1.0000
  H   H15       1.0  0.6816028343554025  0.9792084399401376  0.011804486948428035  1.0000
  H   H16       1.0  0.18160218552946364  0.020792876032409403  0.488194155244642  1.0000
  H   H17       1.0  0.36052574587161973  0.18817462685721154  0.8925166328113647  1.0000
  H   H18       1.0  0.8605221378167373  0.811827455829132  0.6074838351686155  1.0000
  H   H19       1.0  0.6394758535202955  0.8118286742548122  0.10748347322817861  1.0000
  H   H20       1.0  0.13947364644111102  0.1881727094528642  0.39251516526346814  1.0000
  H   H21       1.0  0.26566208858038465  0.3372216191452894  0.8503179113342088  1.0000
  H   H22       1.0  0.7656634615583899  0.6627795725662156  0.6496824461922587  1.0000
  H   H23       1.0  0.7343395108113243  0.6627816766241921  0.14968139545462833  1.0000
  H   H24       1.0  0.23433697480925994  0.33722059805458576  0.35031735349073767  1.0000
  H   H25       1.0  0.20782954974485085  0.16593276669419774  0.796448718961706  1.0000
  H   H26       1.0  0.7078282734499908  0.8340685233480445  0.7035524327340781  1.0000
  H   H27       1.0  0.7921720496470641  0.8340705344178334  0.20355138707783743  1.0000
  H   H28       1.0  0.2921698368636996  0.16593059843469862  0.29644646557927967  1.0000
  H   H29       1.0  0.043268043828291504  0.10958897536050223  0.17981610066975418  1.0000
  H   H30       1.0  0.5432678771825722  0.8904115302209804  0.3201840257515727  1.0000
  H   H31       1.0  0.9567323925379014  0.8904122280725916  0.8201822026306617  1.0000
  H   H32       1.0  0.45673255918591593  0.10958759155988673  0.6798148725618915  1.0000
  H   H33       1.0  0.9075845854469976  0.1450333175515298  0.07946861106035642  1.0000
  H   H34       1.0  0.40758334895168963  0.854967640419233  0.4205308502385778  1.0000
  H   H35       1.0  0.09241585091940152  0.8549678912241134  0.9205304914907659  1.0000
  H   H36       1.0  0.5924147613605443  0.14503251417580287  0.5794665516921995  1.0000
  H   H37       1.0  0.001896646119782  0.2860293643005178  0.1583270462634516  1.0000
  H   H38       1.0  0.5018968536148095  0.7139701643022889  0.3416729744040908  1.0000
  H   H39       1.0  0.9981026272202627  0.7139708009786718  0.8416719541687885  1.0000
  H   H40       1.0  0.4981024197262798  0.28602895747950907  0.658325923909324  1.0000
  C   C1        1.0  0.6165996892739544  0.4567616825084074  0.9288491504611047  1.0000
  C   C2        1.0  0.11659192831182713  0.5432407977203797  0.5711520953376025  1.0000
  C   C3        1.0  0.38340539920371  0.543239569003852  0.07115634609587573  1.0000
  C   C4        1.0  0.8834038559487355  0.45675729659447495  0.42884909860894294  1.0000
  C   C5        1.0  0.4946898942010522  0.5469772680377715  0.9013165331990721  1.0000
  C   C6        1.0  0.9946858558581156  0.4530235607782274  0.598684643700679  1.0000
  C   C7        1.0  0.5053175203316158  0.4530229186050576  0.0986856642363563  1.0000
  C   C8        1.0  0.0053099283978497005  0.5469786968410875  0.4013153602197761  1.0000
  C   C9        1.0  0.6259967611181025  0.40668937239379943  0.028305054350497006  1.0000
  C   C10       1.0  0.1259867855704115  0.5933120650477548  0.47169837846075074  1.0000
  C   C11       1.0  0.37401065341457246  0.5933108142490298  0.9716971430849244  1.0000
  C   C12       1.0  0.8740078356589933  0.40668914373256376  0.5283007240901157  1.0000
  C   C13       1.0  0.12535924926815062  0.2336720395932659  0.9533976025345084  1.0000
  C   C14       1.0  0.6253580281958621  0.7663283395514285  0.5466034397964493  1.0000
  C   C15       1.0  0.8746423501227201  0.7663323050161497  0.04660260562386752  1.0000
  C   C16       1.0  0.374640082118873  0.23366973873392285  0.4533953563980759  1.0000
  C   C17       1.0  0.2856033972019389  0.0917780523204499  0.060397337378141513  1.0000
  C   C18       1.0  0.7856020948395895  0.9082210254681587  0.439603507467048  1.0000
  C   C19       1.0  0.7143970391644601  0.9082231564551934  0.9396017651729808  1.0000
  C   C20       1.0  0.21439485244607684  0.0917791504979917  0.5603970914665056  1.0000
  C   C21       1.0  0.24955194774705808  0.23064271676317816  0.8696452812889748  1.0000
  C   C22       1.0  0.7495507652739093  0.7693585008530732  0.6303550748219138  1.0000
  C   C23       1.0  0.7504484886182966  0.7693595355098566  0.1303539233809801  1.0000
  C   C24       1.0  0.2504473450387366  0.23064166442704703  0.3696439256102764  1.0000
  C   C25       1.0  0.017335935188477005  0.17823805694942513  0.11937001165418343  1.0000
  C   C26       1.0  0.5173359419887477  0.8217635391668027  0.38063101385823483  1.0000
  C   C27       1.0  0.9826621751222859  0.8217642006680209  0.8806299922663714  1.0000
  C   C28       1.0  0.4826621683249428  0.1782355826159332  0.6193678844551229  1.0000
  N   N1        1.0  0.5251053342672664  0.5709122234867012  0.7971484996333232  1.0000
  N   N2        1.0  0.025108345661195103  0.42908414285832225  0.7028521254139976  1.0000
  N   N3        1.0  0.4748974281591529  0.4290848380102474  0.2028541906961081  1.0000
  N   N4        1.0  0.9748920907102206  0.5709118430878352  0.2971456672922629  1.0000
  N   N5        1.0  0.6536629546810886  0.5028241205107805  0.7629028019247528  1.0000
  N   N6        1.0  0.15366119235192602  0.49717307729152804  0.7370971372858011  1.0000
  N   N7        1.0  0.34634097077439924  0.4971708433053693  0.23709808566565732  1.0000
  N   N8        1.0  0.8463392440194895  0.5028229086546291  0.2629006554204595  1.0000
  N   N9        1.0  0.711078219045625  0.434435728775064  0.8394192519817523  1.0000
  N   N10       1.0  0.21107162308961594  0.5655665995454625  0.6605820021180621  1.0000
  N   N11       1.0  0.2889245433774477  0.5655644578715028  0.16058294545347004  1.0000
  N   N12       1.0  0.7889241611692769  0.434432522239142  0.3394168961951963  1.0000
  N   N13       1.0  0.1443478189642775  0.16983677811716555  0.04070384197396491  1.0000
  N   N14       1.0  0.6443455245469139  0.8301646137848236  0.45929719469786096  1.0000
  N   N15       1.0  0.8556537804295204  0.83016443065754  0.9592952605772073  1.0000
  N   N16       1.0  0.3556525857659381  0.16983555683784604  0.540702604985036  1.0000
  Cl  Cl1       1.0  0.8570547443910145  0.1062059083257765  0.7163931981145311  1.0000
  Cl  Cl2       1.0  0.3570533548101977  0.8937930441049247  0.7836061639533798  1.0000
  Cl  Cl3       1.0  0.14294801803310972  0.8937921646132878  0.28360479882949363  1.0000
  Cl  Cl4       1.0  0.6429470815620564  0.106202963211409  0.21639482575570673  1.0000
  O   O1        1.0  0.9975611105989658  0.29822392624150507  0.9422051793192882  1.0000
  O   O2        1.0  0.4975588317851064  0.7017758544592  0.55779589571398  1.0000
  O   O3        1.0  0.002440488792949201  0.701779374870519  0.057794926720255525  1.0000
  O   O4        1.0  0.5024392785319237  0.2982201421739177  0.4422034954935938  1.0000
