data_image0
_chemical_formula_structural       Zn4H35C56I4N16F7
_chemical_formula_sum              "Zn4 H35 C56 I4 N16 F7"
_cell_length_a       14.5876011425471
_cell_length_b       15.440292027357325
_cell_length_c       15.37646376028694
_cell_angle_alpha    67.62971543738641
_cell_angle_beta     67.46320859817683
_cell_angle_gamma    103.58242732998288

_space_group_name_H-M_alt    "P 1"
_space_group_IT_number       1

loop_
  _space_group_symop_operation_xyz
  'x, y, z'

loop_
  _atom_site_type_symbol
  _atom_site_label
  _atom_site_symmetry_multiplicity
  _atom_site_fract_x
  _atom_site_fract_y
  _atom_site_fract_z
  _atom_site_occupancy
  Zn  Zn1       1.0  0.07730028087273405  0.436027695586965  0.9350570681895503  1.0000
  Zn  Zn2       1.0  0.8866297039083124  0.5180674790169277  0.11646560648904346  1.0000
  Zn  Zn3       1.0  0.9803589823721381  0.3305576635909446  0.17686539199006987  1.0000
  Zn  Zn4       1.0  0.03531489552534594  0.6691546100269081  0.8402180118520161  1.0000
  H   H1        1.0  0.1773617092219766  0.2854177926647594  0.8737013673705151  1.0000
  H   H2        1.0  0.9024822206681835  0.5798840070777872  0.4360962249126814  1.0000
  H   H3        1.0  0.08435561769488921  0.6053017258548791  0.4793385275224792  1.0000
  H   H4        1.0  0.9425110464485158  0.31763498881236524  0.692070482243096  1.0000
  H   H5        1.0  0.8128208586131153  0.31481083832790807  0.7634585062175674  1.0000
  H   H6        1.0  0.764427460315673  0.2974299732974258  0.6398300393314853  1.0000
  H   H7        1.0  0.8788538451114077  0.2706606997661751  0.5916928589542181  1.0000
  H   H8        1.0  0.680616716578605  0.7598322899059865  0.8160402608590828  1.0000
  H   H9        1.0  0.8691078685722998  0.18947555248419698  0.11101137574786409  1.0000
  H   H10       1.0  0.5047244271127486  0.7257571055172038  0.8254920426842103  1.0000
  H   H11       1.0  0.2930589899558669  0.5115136364291999  0.2702748059557222  1.0000
  H   H12       1.0  0.8316672242014961  0.5264721332727406  0.33625799132876455  1.0000
  H   H13       1.0  0.4726697196211731  0.5311225813200906  0.2611654687734981  1.0000
  H   H14       1.0  0.4692955848552884  0.4326198408965782  0.22572980619007404  1.0000
  H   H15       1.0  0.3412389933158551  0.022259932416901124  0.3773462925232066  1.0000
  H   H16       1.0  0.5041483269665363  0.18413540321316194  0.22357545931015466  1.0000
  H   H17       1.0  0.7623093535156047  0.9841659953754487  0.2301261585290034  1.0000
  H   H18       1.0  0.7637453028375916  0.029948883359480816  0.32043452738691486  1.0000
  H   H19       1.0  0.5947606319438918  0.8175747040232865  0.39123253785331247  1.0000
  H   H20       1.0  0.9035159435116924  0.5973521063677651  0.7476450798818061  1.0000
  H   H21       1.0  0.5969133141042351  0.8641650347522188  0.4804208844842249  1.0000
  H   H22       1.0  0.11374561472194966  0.9783371797832459  0.18779325484869236  1.0000
  H   H23       1.0  0.17381755530135487  0.4616051544332649  0.19059935700848027  1.0000
  H   H24       1.0  0.11984966965191289  0.8323105789134216  0.16469414811320596  1.0000
  H   H25       1.0  0.2532515568159609  0.07104083686729  0.7366342755506279  1.0000
  H   H26       1.0  0.22036668545418078  0.21346584603278274  0.7651163693423796  1.0000
  H   H27       1.0  0.04071871338470609  0.3753545687845091  0.7677156542926935  1.0000
  H   H28       1.0  0.8524937158890894  0.7437422607880465  0.8043975133433817  1.0000
  H   H29       1.0  0.021855217374941623  0.10101045233864171  0.22948412862462658  1.0000
  H   H30       1.0  0.20171679712028387  0.8598205909175649  0.8131517331318817  1.0000
  H   H31       1.0  0.005394387301897972  0.6709084809954078  0.1708420326152903  1.0000
  H   H32       1.0  0.32244037342353954  0.6361386694822074  0.8345835569996609  1.0000
  H   H33       1.0  0.936801207229891  0.2820467727781092  0.41163226263724073  1.0000
  H   H34       1.0  0.7728341650179261  0.47111994782336813  0.5447704183038553  1.0000
  H   H35       1.0  0.6624759158235919  0.5515980303752954  0.1618568974057908  1.0000
  C   C1        1.0  0.13498483294395675  0.2530395614436999  0.9621698325883015  1.0000
  C   C2        1.0  0.2705582657361847  0.585506028011345  0.9239426884290792  1.0000
  C   C3        1.0  0.23318645299072227  0.8385433257880663  0.5940702269705367  1.0000
  C   C4        1.0  0.7244060247867523  0.5975933709890952  0.0741047106549501  1.0000
  C   C5        1.0  0.9092072365991586  0.339590712498506  0.37981528558825756  1.0000
  C   C6        1.0  0.3337276019280042  0.8444798190754029  0.5230174728779313  1.0000
  C   C7        1.0  0.888645099018163  0.410465397801346  0.41111191982151485  1.0000
  C   C8        1.0  0.2949317545333018  0.5731059476913245  0.007149743216338313  1.0000
  C   C9        1.0  0.12213565139622774  0.8056230533976176  0.9947651175735214  1.0000
  C   C10       1.0  0.8761377275622663  0.5203451872381564  0.6015583739656946  1.0000
  C   C11       1.0  0.8620309645586419  0.5047842995541104  0.5136056817513363  1.0000
  C   C12       1.0  0.7145777060374384  0.6534147108814141  0.9841453994377212  1.0000
  C   C13       1.0  0.05654881466012546  0.5206298600265101  0.5205990172081697  1.0000
  C   C14       1.0  0.8858962083986627  0.35066952236191185  0.6811136821710518  1.0000
  C   C15       1.0  0.9473317110320707  0.4697444754727015  0.6343338076064952  1.0000
  C   C16       1.0  0.8349368027987083  0.24343714179182302  0.11800607871622755  1.0000
  C   C17       1.0  0.9086590669155187  0.43101054367959085  0.49167252941003864  1.0000
  C   C18       1.0  0.034896388620445994  0.48218960965349567  0.4482513537069364  1.0000
  C   C19       1.0  0.8544569525587421  0.32884340295226633  0.6042825814403296  1.0000
  C   C20       1.0  0.5095469506479163  0.5840949696260866  0.0881894488660392  1.0000
  C   C21       1.0  0.6123237267939885  0.6515303128003181  0.9895477023503575  1.0000
  C   C22       1.0  0.6045005702433814  0.7043297689921318  0.8965718235377904  1.0000
  C   C23       1.0  0.724559980119345  0.2268488906681725  0.1611954722623992  1.0000
  C   C24       1.0  0.5032397248784336  0.6846815027313726  0.9019527225387234  1.0000
  C   C25       1.0  0.3999522271929904  0.6107712571807795  0.0010062823220379675  1.0000
  C   C26       1.0  0.4087750140816695  0.5654890058003801  0.09393059699632288  1.0000
  C   C27       1.0  0.3435210989536229  0.4882511210839339  0.21791893619818115  1.0000
  C   C28       1.0  0.94361940107715  0.5471541042392188  0.7620472505682511  1.0000
  C   C29       1.0  0.4569876226258813  0.503447875417251  0.2097174411099942  1.0000
  C   C30       1.0  0.5361951973212342  0.9408407155930476  0.3750916104474839  1.0000
  C   C31       1.0  0.4284383372290391  0.9324920526631219  0.417330744084502  1.0000
  C   C32       1.0  0.4223594836753294  0.02337143298054671  0.35338421912972234  1.0000
  C   C33       1.0  0.5161021750861751  0.11651024235830218  0.26477421909176946  1.0000
  C   C34       1.0  0.965195053619553  0.483885375641613  0.7190131657454085  1.0000
  C   C35       1.0  0.6250496121464408  0.12691026057706264  0.23068608201025848  1.0000
  C   C36       1.0  0.6296105398144931  0.03363010618355832  0.2858391102406441  1.0000
  C   C37       1.0  0.7101715525949928  0.9907410700801904  0.298987582460867  1.0000
  C   C38       1.0  0.6048271965160626  0.8858879932666286  0.40011442463416097  1.0000
  C   C39       1.0  0.1486907103029155  0.07401694564850217  0.9352823297873268  1.0000
  C   C40       1.0  0.7344394541662709  0.3255314290859701  0.1457059936294057  1.0000
  C   C41       1.0  0.1312047423419784  0.07439505924148901  0.031393081286068984  1.0000
  C   C42       1.0  0.12488673372300216  0.9843121647162292  0.11097938332613909  1.0000
  C   C43       1.0  0.1290167794449176  0.9003685332250911  0.09739402288220578  1.0000
  C   C44       1.0  0.1414549387511314  0.8988424967472214  0.0020448457617021232  1.0000
  C   C45       1.0  0.322159829564484  0.7454677775512409  0.5933507280545242  1.0000
  C   C46       1.0  0.1555409097297086  0.9914204484479685  0.9208341256919751  1.0000
  C   C47       1.0  0.17093250133952148  0.043733238366520835  0.8073249718206766  1.0000
  C   C48       1.0  0.15509138738891448  0.13327714448271882  0.8278237458856664  1.0000
  C   C49       1.0  0.014314994856796793  0.4345723449468721  0.7715572143646693  1.0000
  C   C50       1.0  0.8208923084402715  0.6951850042333165  0.8919388394082615  1.0000
  C   C51       1.0  0.05636768386245455  0.15936539467986685  0.14366410112359052  1.0000
  C   C52       1.0  0.11161288699785392  0.15682766131349274  0.047286605670265686  1.0000
  C   C53       1.0  0.8568949718234151  0.46482566655394914  0.34068030828312584  1.0000
  C   C54       1.0  0.19361420258871934  0.49688204003982156  0.10592435667151529  1.0000
  C   C55       1.0  0.14861943386974014  0.7988737562091828  0.9000826316181115  1.0000
  C   C56       1.0  0.04874249310169898  0.7019154244884619  0.08260703514272182  1.0000
  I   I1        1.0  0.9452693011274391  0.6936791549239559  0.5321214639897746  1.0000
  I   I2        1.0  0.13476802217736158  0.6174239549402004  0.27706403452489764  1.0000
  I   I3        1.0  0.20449297414167228  0.5145553343594003  0.5180638358980046  1.0000
  I   I4        1.0  0.003213304207641061  0.14365607847280165  0.8435378118061079  1.0000
  N   N1        1.0  0.09630895781319283  0.3072195481826085  0.003927670319484386  1.0000
  N   N2        1.0  0.9028853447499826  0.34230784734800324  0.08457993608959669  1.0000
  N   N3        1.0  0.9810150277173265  0.539558489306387  0.8310763054309119  1.0000
  N   N4        1.0  0.8381581315215243  0.39340042771971884  0.10161003097712028  1.0000
  N   N5        1.0  0.02532430730167336  0.47066979349289556  0.8355355568623181  1.0000
  N   N6        1.0  0.8873619261658947  0.6656323412535202  0.9248458229532512  1.0000
  N   N7        1.0  0.0473391555806444  0.2497483083227223  0.11681691793242516  1.0000
  N   N8        1.0  0.23039896297756712  0.6887710131314364  0.691665820130268  1.0000
  N   N9        1.0  0.8604586378271577  0.4309652354097651  0.27109926393296035  1.0000
  N   N10       1.0  0.11665829135290551  0.4660472784415647  0.08317872906692261  1.0000
  N   N11       1.0  0.0939894281613648  0.699400918770941  0.9300288854395189  1.0000
  N   N12       1.0  0.03227918763931845  0.6395081358009095  0.042834830650498534  1.0000
  N   N13       1.0  0.16340075148739447  0.520087559328431  0.9711169951259108  1.0000
  N   N14       1.0  0.1731153269154929  0.7491956063222388  0.6920261891125676  1.0000
  N   N15       1.0  0.8925822287578242  0.352130259400937  0.29603640387762187  1.0000
  N   N16       1.0  0.8271100076823714  0.6048092688318291  0.038336303032536774  1.0000
  F   F1        1.0  0.1953627844384371  0.9116998151980057  0.5743126634868571  1.0000
  F   F2        1.0  0.7725001895778545  0.4762548216340931  0.6960086099375571  1.0000
  F   F3        1.0  0.07230663430841837  0.4073756296947622  0.44575832439662816  1.0000
  F   F4        1.0  0.27406521549109203  0.38429842010477705  0.2559314718045157  1.0000
  F   F5        1.0  0.09282971908085368  0.9895257979639354  0.7921802533993941  1.0000
  F   F6        1.0  0.6521086632157563  0.353158544893148  0.1758049853252357  1.0000
  F   F7        1.0  0.3947051632534484  0.7050076957026408  0.5681667386250523  1.0000
