data_image0
_chemical_formula_structural       Mo8H40C40N8O28
_chemical_formula_sum              "Mo8 H40 C40 N8 O28"
_cell_length_a       3.743355079995074
_cell_length_b       17.175261194718555
_cell_length_c       19.93192536017715
_cell_angle_alpha    90.00023827170226
_cell_angle_beta     89.99956248878199
_cell_angle_gamma    96.41962285571627

_space_group_name_H-M_alt    "P 1"
_space_group_IT_number       1

loop_
  _space_group_symop_operation_xyz
  'x, y, z'

loop_
  _atom_site_type_symbol
  _atom_site_label
  _atom_site_symmetry_multiplicity
  _atom_site_fract_x
  _atom_site_fract_y
  _atom_site_fract_z
  _atom_site_occupancy
  Mo  Mo1       1.0  0.30651714565420474  0.5413449504551835  0.703059769895894  1.0000
  Mo  Mo2       1.0  0.19350852261430887  0.9586524067489536  0.203059722618832  1.0000
  Mo  Mo3       1.0  0.6934393042147491  0.4586621722387746  0.2969420347399208  1.0000
  Mo  Mo4       1.0  0.8065454249951004  0.0413408139652844  0.7969390716772364  1.0000
  Mo  Mo5       1.0  0.7940089495242332  0.5814076204157813  0.9759819511674618  1.0000
  Mo  Mo6       1.0  0.7059980670333132  0.9185931260718405  0.4759812420876201  1.0000
  Mo  Mo7       1.0  0.20598013567356324  0.41858959934515366  0.024020355135341696  1.0000
  Mo  Mo8       1.0  0.2940160707231741  0.0814117429876333  0.5240170505496307  1.0000
  H   H1        1.0  0.3347603409829816  0.516433711694617  0.5439867639775001  1.0000
  H   H2        1.0  0.1652876040329617  0.9835630481803506  0.0439848383659509  1.0000
  H   H3        1.0  0.6651605084492972  0.4835716001788982  0.45601704751098987  1.0000
  H   H4        1.0  0.8348244591229134  0.016434359634636995  0.9560144576041336  1.0000
  H   H5        1.0  0.1961784135302906  0.5842451423459848  0.43603403964971926  1.0000
  H   H6        1.0  0.30388061452070775  0.9157526051269613  0.9360319097076155  1.0000
  H   H7        1.0  0.803765232985512  0.41576313169525747  0.5639697718279135  1.0000
  H   H8        1.0  0.6962314486351672  0.08424480268802628  0.0639673862624619  1.0000
  H   H9        1.0  0.018946899153114243  0.7223221305107896  0.4448830287660711  1.0000
  H   H10       1.0  0.4811034797058298  0.7776750534042947  0.9448841709085086  1.0000
  H   H11       1.0  0.9810462788507691  0.27768914657293914  0.5551167690204295  1.0000
  H   H12       1.0  0.5189587701259057  0.22231876546705107  0.05511462338274949  1.0000
  H   H13       1.0  0.036537770525420385  0.7869039588463733  0.5552036325349476  1.0000
  H   H14       1.0  0.4634818727209549  0.7130904604273596  0.055202330375266194  1.0000
  H   H15       1.0  0.9634569531832967  0.2131049787592332  0.4447976703693399  1.0000
  H   H16       1.0  0.5365540608701521  0.28689863450609465  0.9447939553878156  1.0000
  H   H17       1.0  0.144758126803005  0.8409420104893286  0.6435142376004137  1.0000
  H   H18       1.0  0.3552286467074879  0.6590527090361887  0.1435103879272575  1.0000
  H   H19       1.0  0.8551876292470836  0.15906509586041295  0.3564920824120462  1.0000
  H   H20       1.0  0.6447977208318462  0.3409387131155128  0.8564869012620873  1.0000
  H   H21       1.0  0.21753469133597048  0.8941121246616887  0.7594724712325912  1.0000
  H   H22       1.0  0.2824095443776784  0.6058818191522944  0.2594685355318305  1.0000
  H   H23       1.0  0.7823713812220419  0.10589023731768782  0.24053585563022037  1.0000
  H   H24       1.0  0.7175689833192891  0.3941101153011104  0.7405277502769109  1.0000
  H   H25       1.0  0.3744414151298443  0.8064159791434165  0.8518691989751587  1.0000
  H   H26       1.0  0.12551341128514792  0.6935801039921543  0.3518662987077476  1.0000
  H   H27       1.0  0.6254605744022682  0.1935834492831034  0.1481376227622917  1.0000
  H   H28       1.0  0.8744814389417498  0.30641244088215547  0.6481294853828456  1.0000
  H   H29       1.0  0.4311888192102985  0.6652437984124263  0.826367106610824  1.0000
  H   H30       1.0  0.0688296235859199  0.8347546226306832  0.3263652901446505  1.0000
  H   H31       1.0  0.5687733955697495  0.33475864940667327  0.1736341963049242  1.0000
  H   H32       1.0  0.9312109569588854  0.16523857763245078  0.673628487084052  1.0000
  H   H33       1.0  0.5432446193906203  0.5048278824016987  0.8524961798189424  1.0000
  H   H34       1.0  0.9567687839068029  0.9951700418678087  0.35249488649505867  1.0000
  H   H35       1.0  0.4567191410942685  0.4951722259392782  0.147506628214586  1.0000
  H   H36       1.0  0.04325731137998191  0.004831918172286  0.6475039078362456  1.0000
  H   H37       1.0  0.9604507228982513  0.5047182460666662  0.8518978489573922  1.0000
  H   H38       1.0  0.5395627038340365  0.9952796758659588  0.351897647958772  1.0000
  H   H39       1.0  0.03951571107823072  0.4952818663566844  0.14810194882818448  1.0000
  H   H40       1.0  0.4604607180496599  0.004722280082937399  0.6480996412513774  1.0000
  C   C1        1.0  0.27710919107639154  0.5771685282303167  0.5431219686728781  1.0000
  C   C2        1.0  0.22294202511969993  0.9228294041372821  0.04312024730261749  1.0000
  C   C3        1.0  0.7228315000822575  0.4228391558303385  0.4568818428057924  1.0000
  C   C4        1.0  0.7771587804763627  0.07716681553804247  0.9568780452579586  1.0000
  C   C5        1.0  0.19550510286596537  0.6146542340255366  0.4840414985150117  1.0000
  C   C6        1.0  0.3045324833463496  0.885341914826192  0.9840397612390956  1.0000
  C   C7        1.0  0.8044406532529679  0.3853528723173412  0.5159613095436981  1.0000
  C   C8        1.0  0.6955436975171239  0.11465309626915142  0.015958029629068397  1.0000
  C   C9        1.0  0.10175507196174041  0.6908468237982461  0.48854603179572104  1.0000
  C   C10       1.0  0.3982799461107406  0.8091499244709865  0.9885463995744459  1.0000
  C   C11       1.0  0.8982179823912093  0.3091614952060056  0.5114537659997608  1.0000
  C   C12       1.0  0.6017831495241879  0.1908456520744082  0.0114508895963041  1.0000
  C   C13       1.0  0.11076094340445052  0.7278197139621128  0.5505832490022087  1.0000
  C   C14       1.0  0.3892787226943213  0.7721770594371761  0.05058226187578899  1.0000
  C   C15       1.0  0.8892171758596062  0.2721880273292712  0.4494180539116995  1.0000
  C   C16       1.0  0.6107912655696239  0.22781618580073368  0.9494135221629064  1.0000
  C   C17       1.0  0.20889914438981094  0.6876310386077548  0.6073538405084306  1.0000
  C   C18       1.0  0.2911326673742565  0.8123653626503327  0.10735162996820688  1.0000
  C   C19       1.0  0.791065889626033  0.3123772681356414  0.3926479641234123  1.0000
  C   C20       1.0  0.7089287367526323  0.18762669853715147  0.8926436523667787  1.0000
  C   C21       1.0  0.24080518603255294  0.7239053748325971  0.6742365330334222  1.0000
  C   C22       1.0  0.2592100727388101  0.7760900956590929  0.17423373698189687  1.0000
  C   C23       1.0  0.7591450711778691  0.2760999820098107  0.32576627501899214  1.0000
  C   C24       1.0  0.7408385280644298  0.2239031168727408  0.8257620470718618  1.0000
  C   C25       1.0  0.20255963111686265  0.8029895562812184  0.6849080229761455  1.0000
  C   C26       1.0  0.297425237700658  0.6970047391717459  0.18490489170111593  1.0000
  C   C27       1.0  0.7973820419270011  0.1970146165137052  0.31509578849559006  1.0000
  C   C28       1.0  0.7025960649177277  0.3029872606938113  0.8150913940774842  1.0000
  C   C29       1.0  0.2465751913543316  0.8329342503086822  0.7495686323767641  1.0000
  C   C30       1.0  0.253399686115614  0.6670614574400843  0.24956646034576116  1.0000
  C   C31       1.0  0.7533528325921849  0.1670693161535937  0.2504356808112291  1.0000
  C   C32       1.0  0.7466168334670511  0.33293170603557337  0.7504308288536449  1.0000
  C   C33       1.0  0.3323245677015336  0.7839043048054535  0.8012970547626848  1.0000
  C   C34       1.0  0.16764828187090336  0.7160916051618926  0.3012946766332972  1.0000
  C   C35       1.0  0.6675892432886882  0.21609748354049432  0.19870826184755688  1.0000
  C   C36       1.0  0.8323575440010772  0.28390154195876954  0.6987016091582843  1.0000
  C   C37       1.0  0.36543143120984206  0.7056219513975178  0.7872831933260257  1.0000
  C   C38       1.0  0.13458024157928616  0.794375718698511  0.28728063858734737  1.0000
  C   C39       1.0  0.6345236089969647  0.29438224183869716  0.21272061813629506  1.0000
  C   C40       1.0  0.8654659677159203  0.20561807563738907  0.7127151454691399  1.0000
  N   N1        1.0  0.2806021732681856  0.6123280073814286  0.6032928339917588  1.0000
  N   N2        1.0  0.21943007961623812  0.8876689638942493  0.103290992586345  1.0000
  N   N3        1.0  0.7193435828507475  0.3876790989614491  0.39670997406695097  1.0000
  N   N4        1.0  0.7806452555128801  0.11232428952017412  0.8967047914485775  1.0000
  N   N5        1.0  0.3184166573380979  0.6763231232676858  0.7251145692339234  1.0000
  N   N6        1.0  0.18160814635801617  0.8236743201501753  0.2251125538351174  1.0000
  N   N7        1.0  0.6815392286718944  0.32368282764258527  0.27488773710788184  1.0000
  N   N8        1.0  0.81844875666755  0.1763194905387664  0.774883230213838  1.0000
  O   O1        1.0  0.7895202813499792  0.5638785207311228  0.6975798170278579  1.0000
  O   O2        1.0  0.7105179091651834  0.9361188265478046  0.19757715705321738  1.0000
  O   O3        1.0  0.21043377696177862  0.43612918377180426  0.3024244961490722  1.0000
  O   O4        1.0  0.28954293102407297  0.06387206286384378  0.8024226406491832  1.0000
  O   O5        1.0  0.234910684987625  0.456948846318177  0.655650301751784  1.0000
  O   O6        1.0  0.2651342477459337  0.043048409311055  0.15565118426628996  1.0000
  O   O7        1.0  0.7650487202974857  0.543058866350485  0.34434849263691797  1.0000
  O   O8        1.0  0.7349236371845079  0.9569418901102008  0.8443435963603747  1.0000
  O   O9        1.0  0.2570814907194361  0.5134003974258903  0.7883335041827235  1.0000
  O   O10       1.0  0.24294533563713142  0.9865955436365328  0.2883349914280727  1.0000
  O   O11       1.0  0.7428810059950165  0.4866026362845658  0.21166729702618878  1.0000
  O   O12       1.0  0.7570998917236977  0.013401761970008898  0.7116633011737432  1.0000
  O   O13       1.0  0.27432607508742285  0.5459424806626529  0.9737486531470193  1.0000
  O   O14       1.0  0.22568152495815524  0.9540570942498977  0.47374854400171523  1.0000
  O   O15       1.0  0.725662728195637  0.45405415320496445  0.0262531514472713  1.0000
  O   O16       1.0  0.7743328947130691  0.0459483607028872  0.5262502503440558  1.0000
  O   O17       1.0  0.8130717408249026  0.6218171298817622  0.054648035579376086  1.0000
  O   O18       1.0  0.6869301238744397  0.8781813509070415  0.5546454357774664  1.0000
  O   O19       1.0  0.18691621664513747  0.37817774631278667  0.9453557758430974  1.0000
  O   O20       1.0  0.3130786670168746  0.1218235099759113  0.4453528568635574  1.0000
  O   O21       1.0  0.8307241028297909  0.6620201994519164  0.9249558890417475  1.0000
  O   O22       1.0  0.6692926524824188  0.8379797739334335  0.4249544436177998  1.0000
  O   O23       1.0  0.16926793770548443  0.33797761029157414  0.07504742067537509  1.0000
  O   O24       1.0  0.33072415871649957  0.1620250992133165  0.5750433473098936  1.0000
  O   O25       1.0  0.7510479580883994  0.5012664536821062  0.8831167512380629  1.0000
  O   O26       1.0  0.7489680459005325  0.9987339379508167  0.38311676797516714  1.0000
  O   O27       1.0  0.24892354078935605  0.49873308102935715  0.11688505337362187  1.0000
  O   O28       1.0  0.2510567855961483  0.0012709474607178002  0.6168810229468702  1.0000
