data_image0
_chemical_formula_structural       Zr6H56C80N12O32
_chemical_formula_sum              "Zr6 H56 C80 N12 O32"
_cell_length_a       18.33080864857666
_cell_length_b       22.522373795447624
_cell_length_c       22.543515163779592
_cell_angle_alpha    93.68960140124132
_cell_angle_beta     90.04364943096289
_cell_angle_gamma    90.06738956683837

_space_group_name_H-M_alt    "P 1"
_space_group_IT_number       1

loop_
  _space_group_symop_operation_xyz
  'x, y, z'

loop_
  _atom_site_type_symbol
  _atom_site_label
  _atom_site_symmetry_multiplicity
  _atom_site_fract_x
  _atom_site_fract_y
  _atom_site_fract_z
  _atom_site_occupancy
  Zr  Zr1       1.0  0.994749710077201  0.011555814780002997  0.9144856013471878  1.0000
  Zr  Zr2       1.0  0.9951969700515377  0.9049041684249063  0.02853427366633101  1.0000
  Zr  Zr3       1.0  0.9937937765916441  0.13335745021950626  0.025158400246617398  1.0000
  Zr  Zr4       1.0  0.994207096942972  0.029149495996897194  0.1374767138349782  1.0000
  Zr  Zr5       1.0  0.8606736936411818  0.018911908670531805  0.0264393505625691  1.0000
  Zr  Zr6       1.0  0.12818804764437164  0.0204026338539478  0.027494082146560597  1.0000
  H   H1        1.0  0.10322755129986658  0.9298525715474708  0.9366547405094037  1.0000
  H   H2        1.0  0.8896707219530313  0.9344570003227229  0.11771583452563307  1.0000
  H   H3        1.0  0.10136370753306068  0.11167643102079687  0.11821840361858449  1.0000
  H   H4        1.0  0.8860041779942519  0.10335019940753652  0.9403236480047564  1.0000
  H   H5        1.0  0.9434233068849023  0.8198365926754221  0.09025259479839319  1.0000
  H   H6        1.0  0.0474897576514834  0.9758019590275279  0.23093789390248526  1.0000
  H   H7        1.0  0.9544556311785752  0.11544320857182558  0.2167792831164945  1.0000
  H   H8        1.0  0.9925845771756983  0.16034701591632228  0.148695183502106  1.0000
  H   H9        1.0  0.0364654495865153  0.20471236231901455  0.9430574599384797  1.0000
  H   H10       1.0  0.9963581105008217  0.13287701006278496  0.8932089184735544  1.0000
  H   H11       1.0  0.9544870466163643  0.9256660647679452  0.8354089871112294  1.0000
  H   H12       1.0  0.9930923205756983  0.879663072486238  0.904543619148562  1.0000
  H   H13       1.0  0.03387002367731641  0.21614755780846204  0.1194581415012408  1.0000
  H   H14       1.0  0.9511923126656255  0.09968977684147261  0.8379877513081622  1.0000
  H   H15       1.0  0.033085251949856294  0.8232814451821112  0.9336473714490408  1.0000
  H   H16       1.0  0.9621371363514938  0.9798100473479037  0.24640764964665607  1.0000
  H   H17       1.0  0.4191373918634368  0.1892573231471317  0.0451312660118219  1.0000
  H   H18       1.0  0.2921299498766601  0.346051533149044  0.021403937362151702  1.0000
  H   H19       1.0  0.1776308058666416  0.2848642222968394  0.019232905534515503  1.0000
  H   H20       1.0  0.3050009278426841  0.12807851203079682  0.0424590227862254  1.0000
  H   H21       1.0  0.6980338477207367  0.3427921547804331  0.0246152203493963  1.0000
  H   H22       1.0  0.565120756563168  0.18764475710396056  0.04165782417636169  1.0000
  H   H23       1.0  0.6771750401229468  0.1244228272199663  0.04102786733083259  1.0000
  H   H24       1.0  0.8105102200602373  0.27927603088946995  0.024566548193455207  1.0000
  H   H25       1.0  0.28837912827408724  0.6966653569518612  0.0377120722322104  1.0000
  H   H26       1.0  0.4215959173355656  0.8485708587024589  0.00680196518487011  1.0000
  H   H27       1.0  0.3104776675778496  0.9132040398540938  0.009396296175751223  1.0000
  H   H28       1.0  0.17667880007224568  0.7615932610303559  0.039608082639361414  1.0000
  H   H29       1.0  0.6964297194036035  0.6968998892708385  0.025229586067489207  1.0000
  H   H30       1.0  0.5611356317150608  0.8508302000957001  0.0110940865389892  1.0000
  H   H31       1.0  0.6722962915751153  0.9155541184175887  0.011421606447527212  1.0000
  H   H32       1.0  0.8080161072800536  0.7616906761074276  0.02404574254821061  1.0000
  H   H33       1.0  0.61178240248433  0.4642692049227505  0.023596378708717197  1.0000
  H   H34       1.0  0.37772369696252645  0.46326223640676983  0.03211325721494521  1.0000
  H   H35       1.0  0.3765674621865854  0.5745293098132578  0.030431210555818215  1.0000
  H   H36       1.0  0.6106260973768726  0.5755919706329137  0.021888781208346596  1.0000
  H   H37       1.0  0.42675993761521613  0.0311026349737134  0.196005385529439  1.0000
  H   H38       1.0  0.29416012522090534  0.0179164552113704  0.3515871340002192  1.0000
  H   H39       1.0  0.1817108678396124  0.016967793758880103  0.28834874745749056  1.0000
  H   H40       1.0  0.31448082535224126  0.029343108710030208  0.13271537307117137  1.0000
  H   H41       1.0  0.8140023875960125  0.022967420364025798  0.2910115424454601  1.0000
  H   H42       1.0  0.6821204242967552  0.043876225419566595  0.1362295931301531  1.0000
  H   H43       1.0  0.5695465329666831  0.04195367664322448  0.19878982452303262  1.0000
  H   H44       1.0  0.7012309596390267  0.0200886140830434  0.35344707042457196  1.0000
  H   H45       1.0  0.42377675416400956  0.011615382176522396  0.8596123415412648  1.0000
  H   H46       1.0  0.2905055295098578  0.022488951942818896  0.7039211128528676  1.0000
  H   H47       1.0  0.17812818125045027  0.02415030273940739  0.7676570442199804  1.0000
  H   H48       1.0  0.311848685876157  0.013673583318684698  0.9229448850552231  1.0000
  H   H49       1.0  0.697438370925262  0.0183376305574328  0.7011381662770687  1.0000
  H   H50       1.0  0.5683407417175985  0.0012388384038075995  0.8579651179273924  1.0000
  H   H51       1.0  0.6821268882250138  0.9993776140935468  0.9191857803560523  1.0000
  H   H52       1.0  0.811544688781332  0.0159198703168926  0.7623734982497934  1.0000
  H   H53       1.0  0.6115987011579305  0.012990522708925294  0.5838512543150428  1.0000
  H   H54       1.0  0.37783966766838967  0.0248706943082269  0.5830911531974435  1.0000
  H   H55       1.0  0.37909057429764914  0.0270822134419291  0.4719114713950033  1.0000
  H   H56       1.0  0.6129683434884542  0.0156603090689629  0.47276696902446247  1.0000
  C   C1        1.0  0.49434922839306944  0.017217112434913407  0.6553967208849298  1.0000
  C   C2        1.0  0.4324278177239193  0.0158410998387737  0.7426744523510393  1.0000
  C   C3        1.0  0.5569447709416836  0.012676891405668298  0.7419711650208569  1.0000
  C   C4        1.0  0.49681946136368543  0.023106698879416902  0.40041596360782705  1.0000
  C   C5        1.0  0.5598133962012568  0.027754394107809294  0.3140364526037017  1.0000
  C   C6        1.0  0.43541792145299496  0.025386359040304295  0.312934581829623  1.0000
  C   C7        1.0  0.4929133988523944  0.6471298531667101  0.024679501065300303  1.0000
  C   C8        1.0  0.5543204930831465  0.7344610121494313  0.02028011113652181  1.0000
  C   C9        1.0  0.4298426360108961  0.7337270031159308  0.022189534523846505  1.0000
  C   C10       1.0  0.49493772086992743  0.3917273358153323  0.0292771595721177  1.0000
  C   C11       1.0  0.4318257679732369  0.3051376639221033  0.0327262493960134  1.0000
  C   C12       1.0  0.5563127947099388  0.3042658296126675  0.032450472625051  1.0000
  C   C13       1.0  0.8187919536971292  0.009129084844090599  0.8847511374364172  1.0000
  C   C14       1.0  0.1732836755785598  0.8819058216239313  0.02643372478870991  1.0000
  C   C15       1.0  0.8114751458766631  0.8830138663541192  0.020939040499371217  1.0000
  C   C16       1.0  0.17330586690542296  0.0192711834502788  0.8895624609763074  1.0000
  C   C17       1.0  0.16939046544489136  0.162403323190226  0.0275219770892932  1.0000
  C   C18       1.0  0.8190989898508291  0.031661106978283705  0.16890925266617524  1.0000
  C   C19       1.0  0.1763122131507373  0.02297586807657129  0.1662594457740738  1.0000
  C   C20       1.0  0.8153913553487868  0.15744512095101726  0.030914634434161297  1.0000
  C   C21       1.0  0.3660095433232229  0.2096683068687426  0.0395213802026646  1.0000
  C   C22       1.0  0.3626100136251297  0.271191291736045  0.0330896758706913  1.0000
  C   C23       1.0  0.2943441434912586  0.29827894149734385  0.026252236060003004  1.0000
  C   C24       1.0  0.2306941414857562  0.26417679785725307  0.0250137234212247  1.0000
  C   C25       1.0  0.23461716630330187  0.2025834707962275  0.0303817584802957  1.0000
  C   C26       1.0  0.3028986003704901  0.1758736192994874  0.03807708579581259  1.0000
  C   C27       1.0  0.693932917597337  0.29493891425397584  0.0285133718209991  1.0000
  C   C28       1.0  0.6245109161749623  0.2690395722751404  0.0331453476524288  1.0000
  C   C29       1.0  0.6190547015557399  0.2072914910262823  0.038054012267053794  1.0000
  C   C30       1.0  0.6811448243874522  0.1723251874949128  0.0378418857553626  1.0000
  C   C31       1.0  0.7505251400698043  0.19802941009956498  0.032928494355282084  1.0000
  C   C32       1.0  0.7564823239970622  0.25966783690528666  0.0285256123942261  1.0000
  C   C33       1.0  0.2926586476927397  0.7440465919962377  0.031146500343119506  1.0000
  C   C34       1.0  0.36176878214609326  0.7689220873688426  0.022246646061304894  1.0000
  C   C35       1.0  0.36775845015758074  0.8300625973713094  0.0139521136794656  1.0000
  C   C36       1.0  0.30640033476711886  0.8657348720495361  0.015324713423453293  1.0000
  C   C37       1.0  0.23743294051048736  0.8410632537399323  0.024613894798591204  1.0000
  C   C38       1.0  0.23070034977300216  0.7799890961126579  0.03215671559782862  1.0000
  C   C39       1.0  0.6916953870484902  0.7447891279755865  0.021896972018694824  1.0000
  C   C40       1.0  0.6220030547750071  0.7701617975337526  0.018511122876098796  1.0000
  C   C41       1.0  0.6154755544051296  0.8318832269171209  0.013980424154709696  1.0000
  C   C42       1.0  0.676958881007522  0.8676300408998044  0.014087854147256008  1.0000
  C   C43       1.0  0.746593694313553  0.8425039384843772  0.01827580716429372  1.0000
  C   C44       1.0  0.753584852863085  0.7807844002706545  0.021487296368206905  1.0000
  C   C45       1.0  0.5606568199939871  0.4888909550344492  0.025085706266111195  1.0000
  C   C46       1.0  0.49481673223655775  0.457197740270125  0.027879158915609995  1.0000
  C   C47       1.0  0.4283447958913698  0.4883601461653981  0.029831266720584906  1.0000
  C   C48       1.0  0.4277056386347907  0.5499114802014305  0.02898073463702391  1.0000
  C   C49       1.0  0.4935685633436507  0.5816146586291353  0.026133382079748906  1.0000
  C   C50       1.0  0.5600268699810156  0.5504815450007071  0.024203642141095792  1.0000
  C   C51       1.0  0.37280956575532537  0.027929069400172996  0.21564913839097946  1.0000
  C   C52       1.0  0.367344631470587  0.024659778916955602  0.2775260226000782  1.0000
  C   C53       1.0  0.2980862390501855  0.020514290132552997  0.3035996699363607  1.0000
  C   C54       1.0  0.23557261426034867  0.0197075930617814  0.26827720849167486  1.0000
  C   C55       1.0  0.24134223597691565  0.022813641519967086  0.20653438768945884  1.0000
  C   C56       1.0  0.31066909564594164  0.02694576950947441  0.18067053550357304  1.0000
  C   C57       1.0  0.7602458682013162  0.027156372717264805  0.270990662637466  1.0000
  C   C58       1.0  0.7546565428256784  0.03330485227473191  0.20965577988346948  1.0000
  C   C59       1.0  0.6855714692030972  0.039084206447157  0.18386366089049488  1.0000
  C   C60       1.0  0.6233690288810505  0.0379068774908689  0.2184320601523595  1.0000
  C   C61       1.0  0.6284151858952639  0.0306012034958485  0.2797193661050557  1.0000
  C   C62       1.0  0.6975318284990024  0.0256330315646878  0.3058882370489329  1.0000
  C   C63       1.0  0.3697995596721171  0.014386772963184996  0.8399003379527057  1.0000
  C   C64       1.0  0.36423807943970127  0.016890187945819  0.7779236851928315  1.0000
  C   C65       1.0  0.2947603744578728  0.0205391935496024  0.7519700540458343  1.0000
  C   C66       1.0  0.23226072443723206  0.021554476966272804  0.7873625714920393  1.0000
  C   C67       1.0  0.2383025411028115  0.019101183774075995  0.8491490648598372  1.0000
  C   C68       1.0  0.3077788844979707  0.015565606578270797  0.8749505932017527  1.0000
  C   C69       1.0  0.6946419443020202  0.0139036153969485  0.7489191357177487  1.0000
  C   C70       1.0  0.6258875480142264  0.010120232912434798  0.7759856923296127  1.0000
  C   C71       1.0  0.6218526749047939  0.004315933749083502  0.8375440532066205  1.0000
  C   C72       1.0  0.6847628375255184  0.0032376106754128  0.8713816012415379  1.0000
  C   C73       1.0  0.7535351287461436  0.007799346177797899  0.8446461316393437  1.0000
  C   C74       1.0  0.7580741426257731  0.012633889265842399  0.7830542725952013  1.0000
  C   C75       1.0  0.5610992891427671  0.016187958547689604  0.5588115294767204  1.0000
  C   C76       1.0  0.4946746222058066  0.018829984995448995  0.5899852298807886  1.0000
  C   C77       1.0  0.4289357352214154  0.0227984252689311  0.5584318639436532  1.0000
  C   C78       1.0  0.42963842416236275  0.0240259491085695  0.4969366763248501  1.0000
  C   C79       1.0  0.49607671575154194  0.0214524039994259  0.4657888466842195  1.0000
  C   C80       1.0  0.5618330339619318  0.017580471252060196  0.4973735062643456  1.0000
  N   N1        1.0  0.42923627997418373  0.018046120815810696  0.6832359197921035  1.0000
  N   N2        1.0  0.49492256541186214  0.012817318182065702  0.77354829522573  1.0000
  N   N3        1.0  0.5596663574624826  0.014914808890836198  0.6826439550910876  1.0000
  N   N4        1.0  0.5623609787007098  0.0248065985623995  0.37332695988946796  1.0000
  N   N5        1.0  0.497890430525814  0.0282500895586253  0.2822933625645234  1.0000
  N   N6        1.0  0.4318606202379556  0.023107646400326597  0.3722698967845517  1.0000
  N   N7        1.0  0.5579373268250762  0.6750658137423072  0.022845413887509405  1.0000
  N   N8        1.0  0.49179875740583145  0.7651281796745478  0.0194058080817285  1.0000
  N   N9        1.0  0.42731604012633534  0.6743287560618468  0.025016403242446507  1.0000
  N   N10       1.0  0.42946272525421136  0.36446006784668583  0.0302493912495052  1.0000
  N   N11       1.0  0.49366140988843915  0.2734197160093004  0.0344703704381999  1.0000
  N   N12       1.0  0.5598939950114641  0.3636782424132008  0.029705047192784703  1.0000
  O   O1        1.0  0.8833660039570217  0.009738753332250398  0.862894284626634  1.0000
  O   O2        1.0  0.8036096203019408  0.0107597598286517  0.939916067221162  1.0000
  O   O3        1.0  0.1092769319267148  0.8601300077219919  0.023228013671669615  1.0000
  O   O4        1.0  0.1891826056513679  0.9373748794672353  0.030314622396929326  1.0000
  O   O5        1.0  0.8750953875337186  0.8614973386324394  0.017971229405198103  1.0000
  O   O6        1.0  0.7961858118551316  0.9387978034617174  0.027765508774422198  1.0000
  O   O7        1.0  0.10905561370380919  0.018912371198794596  0.8684709478028977  1.0000
  O   O8        1.0  0.18951623196554826  0.018604144799795098  0.9449019499220909  1.0000
  O   O9        1.0  0.995291702294324  0.9298251999586709  0.8629853511131954  1.0000
  O   O10       1.0  0.9951069024272031  0.09607934674306051  0.8617375455974422  1.0000
  O   O11       1.0  0.9922330060800846  0.8505778036384227  0.9391079057930937  1.0000
  O   O12       1.0  0.9893240706162201  0.8402639030942608  0.0847288468819016  1.0000
  O   O13       1.0  0.9380131072537381  0.9696245313456017  0.9802473380141163  1.0000
  O   O14       1.0  0.07073589452533469  0.9537068962503881  0.9623692215590224  1.0000
  O   O15       1.0  0.10466922607577088  0.18427882760482103  0.0275872570547477  1.0000
  O   O16       1.0  0.18458823582746928  0.10730259416671827  0.025845165006479896  1.0000
  O   O17       1.0  0.8838637271927893  0.03243801516882171  0.19069134268627858  1.0000
  O   O18       1.0  0.8037983889084614  0.028381400671634093  0.11389326504416179  1.0000
  O   O19       1.0  0.11180602478994221  0.020150830930205598  0.1875320216309078  1.0000
  O   O20       1.0  0.1909698229760863  0.027603249041312894  0.11149468492010328  1.0000
  O   O21       1.0  0.8796758752867503  0.17872192923731942  0.0317891106991297  1.0000
  O   O22       1.0  0.7993077138260957  0.1018651384027436  0.0271501183895992  1.0000
  O   O23       1.0  0.991973052534291  0.18983414665495962  0.11384671480884379  1.0000
  O   O24       1.0  0.9949842318756268  0.17798696679529505  0.9454211533142853  1.0000
  O   O25       1.0  0.9962122175400053  0.11139466287143306  0.19020754100765194  1.0000
  O   O26       1.0  0.9977403195007352  0.9665731951357801  0.2163578766759287  1.0000
  O   O27       1.0  0.0694190266107242  0.08796571545435938  0.0917916858983148  1.0000
  O   O28       1.0  0.937319577038096  0.07025182788743219  0.07396596333548898  1.0000
  O   O29       1.0  0.050085066336421805  0.0647110300460767  0.9810107990503384  1.0000
  O   O30       1.0  0.9220356435856444  0.9577297147515083  0.09430262333273728  1.0000
  O   O31       1.0  0.9191203672273858  0.079754362549096  0.9627024203548301  1.0000
  O   O32       1.0  0.052426125108375694  0.9743298153365813  0.075648923124696  1.0000
