data_image0
_chemical_formula_structural       Zn2H16C29N2O13
_chemical_formula_sum              "Zn2 H16 C29 N2 O13"
_cell_length_a       9.986962771040005
_cell_length_b       11.129562950371334
_cell_length_c       15.298252577136799
_cell_angle_alpha    89.87456539331589
_cell_angle_beta     93.85905906795738
_cell_angle_gamma    93.99572446605426

_space_group_name_H-M_alt    "P 1"
_space_group_IT_number       1

loop_
  _space_group_symop_operation_xyz
  'x, y, z'

loop_
  _atom_site_type_symbol
  _atom_site_label
  _atom_site_symmetry_multiplicity
  _atom_site_fract_x
  _atom_site_fract_y
  _atom_site_fract_z
  _atom_site_occupancy
  Zn  Zn1       1.0  0.6353668326325985  0.4967174794823066  0.5097930861032013  1.0000
  Zn  Zn2       1.0  0.3580583771264542  0.47716095324167895  0.4983360809039113  1.0000
  H   H1        1.0  0.6029906030739126  0.08687617126388857  0.4774946474936997  1.0000
  H   H2        1.0  0.8289318682576835  0.4191593346531304  0.9365943029843964  1.0000
  H   H3        1.0  0.2997447535365366  0.08878595939793849  0.5016044294862285  1.0000
  H   H4        1.0  0.6961321972172667  0.42518816870796167  0.7201785191904406  1.0000
  H   H5        1.0  0.016373162123052513  0.3577333431428399  0.6305190942001107  1.0000
  H   H6        1.0  0.18473316996536934  0.5285461740438321  0.3425190794379703  1.0000
  H   H7        1.0  0.1193159793793441  0.5236080825936112  0.8366681767261286  1.0000
  H   H8        1.0  0.8888473890839348  0.4632777292006052  0.17622956092007772  1.0000
  H   H9        1.0  0.29507654036461156  0.8673163204359325  0.47737280064674087  1.0000
  H   H10       1.0  0.5920729373614647  0.8933255887205147  0.5473362777108124  1.0000
  H   H11       1.0  0.8579492562852878  0.3543007775095433  0.4557373073086311  1.0000
  H   H12       1.0  0.8926627803637286  0.5670659504588683  0.5710846615809617  1.0000
  H   H13       1.0  0.29101427836468463  0.5184389465625046  0.7748387684164444  1.0000
  H   H14       1.0  0.18157329718624732  0.5704083175650111  0.07463006052618941  1.0000
  H   H15       1.0  0.3041825355233668  0.5497363936607016  0.21763759333364874  1.0000
  H   H16       1.0  0.7191579580861852  0.472895265724155  0.23755364057473832  1.0000
  C   C1        1.0  0.4865624444259423  0.7177937609597433  0.5188760409671787  1.0000
  C   C2        1.0  0.3946072730009432  0.5308446201370174  0.18563657290160054  1.0000
  C   C3        1.0  0.5123249141285128  0.5097463222029431  0.23586311531946796  1.0000
  C   C4        1.0  0.5118268701281463  0.5071309060150992  0.33372183267631783  1.0000
  C   C5        1.0  0.6294871084929523  0.48693714549889217  0.19531025618287157  1.0000
  C   C6        1.0  0.3947567109332083  0.04688784215476009  0.4963334861526435  1.0000
  C   C7        1.0  0.5055466302732298  0.12133016817337249  0.4875845164663205  1.0000
  C   C8        1.0  0.39082883005860214  0.9164667850526125  0.49732621934769844  1.0000
  C   C9        1.0  0.49506763226061407  0.8508973592053476  0.5228574484981864  1.0000
  C   C10       1.0  0.9097803913840179  0.4265281270033156  0.4963005040428286  1.0000
  C   C11       1.0  0.057471568024780616  0.4232453820787966  0.5190407184300414  1.0000
  C   C12       1.0  0.6190601099419552  0.45859328593524396  0.9170328905490097  1.0000
  C   C13       1.0  0.5030479265354442  0.2540061386898742  0.4910357796648627  1.0000
  C   C14       1.0  0.48681239147053645  0.46892860131841735  0.6770777733355617  1.0000
  C   C15       1.0  0.6138701740127103  0.44991866894742566  0.8241621310588132  1.0000
  C   C16       1.0  0.49332288196470836  0.4721795823513659  0.7743085119710786  1.0000
  C   C17       1.0  0.37990979401837416  0.5009238707516559  0.8167210309782578  1.0000
  C   C18       1.0  0.3797058836991808  0.5091493018634097  0.9079528788226912  1.0000
  C   C19       1.0  0.5020238804656926  0.4886892741745823  0.9588174760803769  1.0000
  C   C20       1.0  0.10230984877227908  0.49843520178214357  0.3835715719737537  1.0000
  C   C21       1.0  0.13288980684892948  0.5593845960869926  0.9051484969471845  1.0000
  C   C22       1.0  0.878569261371055  0.4340458345001466  0.1063027337027123  1.0000
  C   C23       1.0  0.26370480624331794  0.5407193951823216  0.9527171874667746  1.0000
  C   C24       1.0  0.27134647784642846  0.5495171720912494  0.042386173786368914  1.0000
  C   C25       1.0  0.39108074953706756  0.5275905539223658  0.09405857998945072  1.0000
  C   C26       1.0  0.5086999259371224  0.4988095574750914  0.05186172958315891  1.0000
  C   C27       1.0  0.6305549263447359  0.47955465934433744  0.10351509848756993  1.0000
  C   C28       1.0  0.7473188084912292  0.4503103260975718  0.05856885608707781  1.0000
  C   C29       1.0  0.7391492679371793  0.44001338579658267  0.9685822773433588  1.0000
  N   N1        1.0  0.8396289868096715  0.5017763834075024  0.5331750090367606  1.0000
  N   N2        1.0  0.15004224265954486  0.4603684307739328  0.46771603690856284  1.0000
  O   O1        1.0  0.5972134028436357  0.6684259384193253  0.5372924223268002  1.0000
  O   O2        1.0  0.09479512274042891  0.38231127892262134  0.5978431409149751  1.0000
  O   O3        1.0  0.982623636624893  0.49555264099140567  0.3593891203680642  1.0000
  O   O4        1.0  0.04068680429487162  0.6085979515930191  0.9362698850959108  1.0000
  O   O5        1.0  0.9748238315735447  0.3927460445893728  0.0736069824097854  1.0000
  O   O6        1.0  0.37336912443277  0.661886814601182  0.49733762067268134  1.0000
  O   O7        1.0  0.6243113148704251  0.524683586225656  0.3776958520389969  1.0000
  O   O8        1.0  0.39795076794050727  0.48566513385390636  0.365976306902951  1.0000
  O   O9        1.0  0.6162098972428607  0.3140573265829332  0.48513700274391186  1.0000
  O   O10       1.0  0.390923620373897  0.29917023578905594  0.5005370730950036  1.0000
  O   O11       1.0  0.5970003281581027  0.4488407847897945  0.6409821695344391  1.0000
  O   O12       1.0  0.3770893634679878  0.4864259628189414  0.6341394882310638  1.0000
  O   O13       1.0  0.7242499100122756  0.42134704212790547  0.785470503386428  1.0000
