data_image0
_chemical_formula_structural       Mn3H28C24N2O22
_chemical_formula_sum              "Mn3 H28 C24 N2 O22"
_cell_length_a       7.553958565028624
_cell_length_b       8.259786110106628
_cell_length_c       13.034042531561429
_cell_angle_alpha    93.84767616076573
_cell_angle_beta     99.7480226131856
_cell_angle_gamma    113.61841477743631

_space_group_name_H-M_alt    "P 1"
_space_group_IT_number       1

loop_
  _space_group_symop_operation_xyz
  'x, y, z'

loop_
  _atom_site_type_symbol
  _atom_site_label
  _atom_site_symmetry_multiplicity
  _atom_site_fract_x
  _atom_site_fract_y
  _atom_site_fract_z
  _atom_site_occupancy
  Mn  Mn1       1.0  0.500046034368886  0.999957325089483  8.729981307451054e-05  1.0000
  Mn  Mn2       1.0  0.8881030696175857  0.6477831851041246  0.1871876491736302  1.0000
  Mn  Mn3       1.0  0.11186549711882074  0.3521782846225109  0.8127700910079981  1.0000
  H   H1        1.0  0.6114121239000383  0.8425164465681052  0.6475047666537533  1.0000
  H   H2        1.0  0.38860669336963133  0.15752569764209312  0.352496169051193  1.0000
  H   H3        1.0  0.9459900114741304  0.2170775803203568  0.5852108177252049  1.0000
  H   H4        1.0  0.05403802852278971  0.7829690476871108  0.4147497733047274  1.0000
  H   H5        1.0  0.5290111796847016  0.7986719042185585  0.3116498030301145  1.0000
  H   H6        1.0  0.47101012322474395  0.20131921815881532  0.688354965768319  1.0000
  H   H7        1.0  0.2050573705638997  0.44343037750427083  0.11075713594937749  1.0000
  H   H8        1.0  0.7951698912926234  0.5566006317417234  0.8892452689583334  1.0000
  H   H9        1.0  0.4363002908246828  0.5536190267638333  0.1968782375180211  1.0000
  H   H10       1.0  0.5638760650422655  0.4465394115668034  0.8031442125744662  1.0000
  H   H11       1.0  0.9690837365603784  0.28875486089975066  0.3172057223269035  1.0000
  H   H12       1.0  0.030851823911604036  0.7113093036769343  0.6827568900066509  1.0000
  H   H13       1.0  0.11055103714717521  0.22090514740908423  0.24478921461289357  1.0000
  H   H14       1.0  0.889341038161611  0.7789877084901848  0.755246635285495  1.0000
  H   H15       1.0  0.11712078446547038  0.39436009069902417  0.4555266041062467  1.0000
  H   H16       1.0  0.8829318613280461  0.6056320403848758  0.5444852003417608  1.0000
  H   H17       1.0  0.7398458747745739  0.7563220010859555  0.9955896814569414  1.0000
  H   H18       1.0  0.2599669773434671  0.24356174221716034  0.0043987207429836  1.0000
  H   H19       1.0  0.5821198640149704  0.6724286224634284  0.05876190663859399  1.0000
  H   H20       1.0  0.41766958465998283  0.32727843923088085  0.9411719024075751  1.0000
  H   H21       1.0  0.8583281667369108  0.9351129055735187  0.3062345571246752  1.0000
  H   H22       1.0  0.14152039952877976  0.0648722489414197  0.6936727689176081  1.0000
  H   H23       1.0  0.8258834837225991  0.9607378718446143  0.18562606514010582  1.0000
  H   H24       1.0  0.17403890373543618  0.0392583659030663  0.8142860322488161  1.0000
  H   H25       1.0  0.2648766786764014  0.004517770107405299  0.1267925419778209  1.0000
  H   H26       1.0  0.7351358271308259  0.9954510726087521  0.8733072343770801  1.0000
  H   H27       1.0  0.4306955562865795  0.20731083892349034  0.1629593536183478  1.0000
  H   H28       1.0  0.5692761396371896  0.7926620659297259  0.8371095909608287  1.0000
  C   C1        1.0  0.3572281991501853  0.6107366090018403  0.5594969739033786  1.0000
  C   C2        1.0  0.6428017221002875  0.38928653959926157  0.4405028821871255  1.0000
  C   C3        1.0  0.5262708781841142  0.7706175990120486  0.5700002641799671  1.0000
  C   C4        1.0  0.4737615314628485  0.2294135840635363  0.4300001247780543  1.0000
  C   C5        1.0  0.5856546652898232  0.8347327970343416  0.479325429987881  1.0000
  C   C6        1.0  0.41437073480449993  0.16528371666182548  0.5206752716550581  1.0000
  C   C7        1.0  0.47694819729002114  0.742036158303357  0.3795027277762273  1.0000
  C   C8        1.0  0.5230851207751499  0.2579547792067061  0.6205017128616177  1.0000
  C   C9        1.0  0.3028036375243062  0.584101758564721  0.3675107124609767  1.0000
  C   C10       1.0  0.6972446081630821  0.4158783294849116  0.6325002256079699  1.0000
  C   C11       1.0  0.30017300714156653  0.538715000309857  0.6571686642772291  1.0000
  C   C12       1.0  0.6998627096147348  0.46131738388653803  0.34282672970049083  1.0000
  C   C13       1.0  0.7636007774316625  0.004526795885631401  0.48731679733205624  1.0000
  C   C14       1.0  0.23641394144367928  0.995489254514034  0.5126505842949456  1.0000
  C   C15       1.0  0.2861660231847338  0.5478282477436095  0.1791628362682687  1.0000
  C   C16       1.0  0.7139499164824912  0.45219797376026355  0.8208542507165362  1.0000
  C   C17       1.0  0.29696742836627277  0.7189845671132035  0.1393639384122594  1.0000
  C   C18       1.0  0.702965736845485  0.2810401435598279  0.8607144420395797  1.0000
  C   C19       1.0  0.04322934945169981  0.3167618464080277  0.2507838191479053  1.0000
  C   C20       1.0  0.9567800588337081  0.6832237516394388  0.7492034424938581  1.0000
  C   C21       1.0  0.8804938583450908  0.2747143554955543  0.15280420631004432  1.0000
  C   C22       1.0  0.11959608002711516  0.7253691130245912  0.8471639246274307  1.0000
  C   C23       1.0  0.24655995867724567  0.518751480889975  0.4598065603714332  1.0000
  C   C24       1.0  0.7534783968046455  0.48125287885064694  0.5402011611568085  1.0000
  N   N1        1.0  0.18953943931315118  0.5006090987232384  0.2668838447985564  1.0000
  N   N2        1.0  0.8105738560163263  0.49932697727553704  0.7331244439665595  1.0000
  O   O1        1.0  0.13458863411835156  0.40151971193968455  0.6503118825797571  1.0000
  O   O2        1.0  0.865430396416585  0.5985425248709718  0.3496859426926378  1.0000
  O   O3        1.0  0.41437799043859513  0.6121094004478425  0.7459621244860415  1.0000
  O   O4        1.0  0.5856853667337988  0.38791050985992115  0.2540348550655835  1.0000
  O   O5        1.0  0.8251938618120748  0.10266656129707744  0.5815662630267866  1.0000
  O   O6        1.0  0.17485159412951393  0.8973772087147439  0.4183990549609433  1.0000
  O   O7        1.0  0.8481937020892119  0.0537703541827241  0.4137330748786212  1.0000
  O   O8        1.0  0.15177037513190342  0.9462126567602951  0.5862234327595814  1.0000
  O   O9        1.0  0.7794596179504938  0.1089319312147126  0.11551284679464403  1.0000
  O   O10       1.0  0.22056557133132068  0.8911808247614206  0.8843891600748819  1.0000
  O   O11       1.0  0.8498132230047801  0.3989385715176611  0.11346188865842778  1.0000
  O   O12       1.0  0.15036835170582927  0.6012250908301482  0.8865566677455661  1.0000
  O   O13       1.0  0.17542639497170856  0.7854181948679725  0.1544134126794461  1.0000
  O   O14       1.0  0.824529801209316  0.21456418579568748  0.8457908744634182  1.0000
  O   O15       1.0  0.4334740150508623  0.7867983219693288  0.0896044421917708  1.0000
  O   O16       1.0  0.5663396680904073  0.21331555871077515  0.9104051558307302  1.0000
  O   O17       1.0  0.700610601223687  0.6624378393608767  0.041064326055860106  1.0000
  O   O18       1.0  0.2992544660507975  0.33740855169820355  0.9589080883417793  1.0000
  O   O19       1.0  0.8633387724736963  0.8870035852741864  0.2352846174511356  1.0000
  O   O20       1.0  0.13647401933371842  0.11294044173460092  0.7646222591202942  1.0000
  O   O21       1.0  0.3429838847265714  0.11685080832582881  0.1007034681777981  1.0000
  O   O22       1.0  0.6570274957518835  0.8830786149317192  0.8993710270659035  1.0000
