data_image0
_chemical_formula_structural       Cd2H42C44S2N6O12
_chemical_formula_sum              "Cd2 H42 C44 S2 N6 O12"
_cell_length_a       4.957510361232047
_cell_length_b       12.459353839036723
_cell_length_c       18.315507575826356
_cell_angle_alpha    93.07913261268229
_cell_angle_beta     90.00392715544116
_cell_angle_gamma    101.44762502952068

_space_group_name_H-M_alt    "P 1"
_space_group_IT_number       1

loop_
  _space_group_symop_operation_xyz
  'x, y, z'

loop_
  _atom_site_type_symbol
  _atom_site_label
  _atom_site_symmetry_multiplicity
  _atom_site_fract_x
  _atom_site_fract_y
  _atom_site_fract_z
  _atom_site_occupancy
  Cd  Cd1       1.0  0.8756044821555804  0.7538351151848843  0.6511461042901698  1.0000
  Cd  Cd2       1.0  0.12197497135948507  0.24605078256520585  0.34881550563176217  1.0000
  H   H1        1.0  0.004158595329570944  0.4148631879195435  0.7337541761409624  1.0000
  H   H2        1.0  0.5890129854214762  0.5852221697948677  0.26622245630915126  1.0000
  H   H3        1.0  0.5633585583563699  0.5059043137091805  0.6783043548856182  1.0000
  H   H4        1.0  0.057232977568347075  0.49394870209676606  0.3215940938407015  1.0000
  H   H5        1.0  0.35896567581405486  0.5180319135433251  0.5565726953295778  1.0000
  H   H6        1.0  0.8410424123764882  0.48188712379824467  0.4433478054380088  1.0000
  H   H7        1.0  0.034937395623863644  0.44724360163611715  0.5849284025132275  1.0000
  H   H8        1.0  0.587631513792914  0.552699413204806  0.4150105053173475  1.0000
  H   H9        1.0  0.25269843648661794  0.2820915825282526  0.6075184931958615  1.0000
  H   H10       1.0  0.9704338541695489  0.7177743530673766  0.3923085434532466  1.0000
  H   H11       1.0  0.5680910221666194  0.35557832037167  0.5752507003831083  1.0000
  H   H12       1.0  0.2122635185651021  0.6442652815280283  0.4247034963062147  1.0000
  H   H13       1.0  0.046922064062151374  0.44470234843937095  0.9150737111586621  1.0000
  H   H14       1.0  0.6026759584170093  0.5556030449042167  0.08471991002372896  1.0000
  H   H15       1.0  0.1285014592793771  0.5971046195811736  0.010050654255031988  1.0000
  H   H16       1.0  0.5320779056155371  0.40301095512697305  0.989870393453408  1.0000
  H   H17       1.0  0.8808881297159983  0.7393252936342448  0.904304622801234  1.0000
  H   H18       1.0  0.1416913416887837  0.26067274904237087  0.09596164216621617  1.0000
  H   H19       1.0  0.8013913552170847  0.586627448297321  0.8093318873991533  1.0000
  H   H20       1.0  0.21501284686638655  0.4136477361824191  0.19073868700780133  1.0000
  H   H21       1.0  0.397284868700403  0.7619222837665305  0.06265684670312768  1.0000
  H   H22       1.0  0.6351405257869585  0.237906626530922  0.9376262147491159  1.0000
  H   H23       1.0  0.624055304369513  0.8487986633281678  0.004814764849534488  1.0000
  H   H24       1.0  0.7751509492611248  0.1511149857928373  0.9955534729438823  1.0000
  H   H25       1.0  0.7492256911129258  0.7555739750157425  0.058929373899687165  1.0000
  H   H26       1.0  0.9933348630257937  0.2440135570101631  0.941225327556573  1.0000
  H   H27       1.0  0.27414363102703726  0.7476610000881224  0.7920531257596221  1.0000
  H   H28       1.0  0.526471774977324  0.2523051054342104  0.20813508487356805  1.0000
  H   H29       1.0  0.5090692481764307  0.8678424809740974  0.8961519869889611  1.0000
  H   H30       1.0  0.6422860879502181  0.1322354015068044  0.10410258978964747  1.0000
  H   H31       1.0  0.4279992264984499  0.0619108436513045  0.9118438912546052  1.0000
  H   H32       1.0  0.36724314212893444  0.9382585280835086  0.08811315725728966  1.0000
  H   H33       1.0  0.12992616676655186  0.1259961246890882  0.8224712072017366  1.0000
  H   H34       1.0  0.004489955892800841  0.8740711656621368  0.17728916789621238  1.0000
  H   H35       1.0  0.8942942556773658  0.17211736460490107  0.7476893493977738  1.0000
  H   H36       1.0  0.7222959403846829  0.827838059388597  0.2521746955591837  1.0000
  H   H37       1.0  0.5873192816546009  0.21771263593507226  0.6537396661315567  1.0000
  H   H38       1.0  0.3700546064307346  0.7822986803505502  0.34619233385673437  1.0000
  H   H39       1.0  0.3773047314061343  0.074210660615087  0.5574941702006626  1.0000
  H   H40       1.0  0.30416137477744337  0.9257296772684923  0.4425762270926227  1.0000
  H   H41       1.0  0.49102592207508894  0.8858074768290506  0.561646426886895  1.0000
  H   H42       1.0  0.6065615843670996  0.11401009035792951  0.43850688257256815  1.0000
  C   C1        1.0  0.24817395686699228  0.6041633552107301  0.6855935786991123  1.0000
  C   C2        1.0  0.6440187271763804  0.39573224492836095  0.3143564818959206  1.0000
  C   C3        1.0  0.3391483990415338  0.494445617464379  0.671650675972266  1.0000
  C   C4        1.0  0.8444919729683419  0.5054438871385188  0.3282674922235954  1.0000
  C   C5        1.0  0.2581494622349538  0.45437714054834544  0.5921959442178986  1.0000
  C   C6        1.0  0.8037077660966002  0.5455442005046293  0.4077217097695111  1.0000
  C   C7        1.0  0.34255002700690795  0.3461476503779792  0.5706503280165264  1.0000
  C   C8        1.0  0.9961546654204554  0.6537592112466868  0.42923280423627114  1.0000
  C   C9        1.0  0.2643246396810071  0.3032958677386048  0.4927114476261636  1.0000
  C   C10       1.0  0.9607353735398404  0.6967626017444175  0.5071467191306878  1.0000
  C   C11       1.0  0.421394092315289  0.5055480181956965  0.8576592350461636  1.0000
  C   C12       1.0  0.916346865756921  0.494787897983599  0.14222821938171384  1.0000
  C   C13       1.0  0.2289775698767045  0.5095824446733559  0.912973981363379  1.0000
  C   C14       1.0  0.7199519482769502  0.49071846746958403  0.08688452010671448  1.0000
  C   C15       1.0  0.2762400567066051  0.5956907323335939  0.9660871336319513  1.0000
  C   C16       1.0  0.6812486183590494  0.40451003720779966  0.033844744894089694  1.0000
  C   C17       1.0  0.512807880660901  0.6785747025265961  0.9647823618869463  1.0000
  C   C18       1.0  0.8347028053566631  0.32149601143080997  0.035308354161337284  1.0000
  C   C19       1.0  0.6964209943378774  0.6751415655565295  0.9067559221578774  1.0000
  C   C20       1.0  0.021650558090577483  0.3249812717826046  0.09336630796525468  1.0000
  C   C21       1.0  0.6537529627889993  0.5894562891370325  0.8532368865277601  1.0000
  C   C22       1.0  0.06475303945045856  0.41082158914014144  0.14677530702991956  1.0000
  C   C23       1.0  0.5726643271123493  0.7660293797123501  0.025621541946492195  1.0000
  C   C24       1.0  0.8065742017079243  0.23379940269845179  0.9746145316854746  1.0000
  C   C25       1.0  0.24610888768507502  0.8317459804453832  0.8012539063310979  1.0000
  C   C26       1.0  0.4146068350357409  0.1682144455940673  0.19885962312601885  1.0000
  C   C27       1.0  0.3754505217401912  0.8992566784619457  0.8592401427328225  1.0000
  C   C28       1.0  0.4769500211745808  0.10076006863089051  0.1408903589315997  1.0000
  C   C29       1.0  0.3300605961336061  0.0060657333304732  0.867447885077297  1.0000
  C   C30       1.0  0.32486348229352296  0.9940109919051706  0.13254538735581176  1.0000
  C   C31       1.0  0.16075958891956077  0.04193610506496979  0.8175677314313315  1.0000
  C   C32       1.0  0.1193738035095961  0.9580886862343122  0.18231092227850346  1.0000
  C   C33       1.0  0.03874392575522723  0.9695418284203681  0.7600994613446727  1.0000
  C   C34       1.0  0.06951727654503509  0.0303786849760215  0.23984199184535968  1.0000
  C   C35       1.0  0.858868810432746  0.0034903493542728006  0.7044943754565408  1.0000
  C   C36       1.0  0.8557740645114646  0.9963871640078138  0.29545234690300487  1.0000
  C   C37       1.0  0.8040464308880285  0.10963028658896685  0.7061123962559746  1.0000
  C   C38       1.0  0.694743517008561  0.890310609325553  0.293810069129151  1.0000
  C   C39       1.0  0.6308075879813585  0.1354516922019968  0.6528079810866672  1.0000
  C   C40       1.0  0.4959922321875964  0.864507424470311  0.3471662703873973  1.0000
  C   C41       1.0  0.5141216803041572  0.055592867527380505  0.5996212490051959  1.0000
  C   C42       1.0  0.4595079404156834  0.9443125747519261  0.4004527832593324  1.0000
  C   C43       1.0  0.579800970270888  0.9517882585560001  0.6013171093111678  1.0000
  C   C44       1.0  0.6290800922246972  0.048028890546269985  0.3987968239816197  1.0000
  S   S1        1.0  0.37236616026294206  0.38929812194023583  0.7947103754244222  1.0000
  S   S2        1.0  0.9827296082151733  0.610903127316206  0.20528093446492324  1.0000
  N   N1        1.0  0.2069265114979685  0.41271079811703254  0.7225403629035652  1.0000
  N   N2        1.0  0.7938820061914524  0.5871985813204645  0.27739156661620956  1.0000
  N   N3        1.0  0.08217271294201801  0.8659341405139995  0.7531605741658465  1.0000
  N   N4        1.0  0.2163591420770814  0.13396159337333557  0.24686692211648872  1.0000
  N   N5        1.0  0.7482501035440023  0.9269751733784163  0.6522420722357366  1.0000
  N   N6        1.0  0.8219650920920784  0.0728289275356246  0.3478065159923034  1.0000
  O   O1        1.0  0.19286712315729906  0.30157850566615707  0.8303712235582805  1.0000
  O   O2        1.0  0.8902553498748701  0.69861044029642  0.16973611142789474  1.0000
  O   O3        1.0  0.641937966059693  0.3738486530720165  0.7715146230568732  1.0000
  O   O4        1.0  0.26774784261411355  0.6264921711611818  0.22849348846129655  1.0000
  O   O5        1.0  0.00387313783404852  0.6007632831194483  0.7084635611064838  1.0000
  O   O6        1.0  0.4031231029794426  0.3991216930668386  0.29145863357845053  1.0000
  O   O7        1.0  0.40632963969535735  0.692851451783987  0.6696444121733689  1.0000
  O   O8        1.0  0.7136246343301877  0.30704026505934917  0.3303409433144963  1.0000
  O   O9        1.0  0.27507907276571325  0.20449631342309962  0.4734920756626406  1.0000
  O   O10       1.0  0.06966891028759638  0.7956123071270012  0.526296906001228  1.0000
  O   O11       1.0  0.19252930763477138  0.3687406794223164  0.44848387673608403  1.0000
  O   O12       1.0  0.8239849459034899  0.6313065732913685  0.5514358045236847  1.0000
