data_image0
_chemical_formula_structural       Zn8H24C96O26F24
_chemical_formula_sum              "Zn8 H24 C96 O26 F24"
_cell_length_a       28.29633730851096
_cell_length_b       28.296521766353994
_cell_length_c       28.294258927583225
_cell_angle_alpha    119.99673281156929
_cell_angle_beta     90.00059920963993
_cell_angle_gamma    59.99306961986813

_space_group_name_H-M_alt    "P 1"
_space_group_IT_number       1

loop_
  _space_group_symop_operation_xyz
  'x, y, z'

loop_
  _atom_site_type_symbol
  _atom_site_label
  _atom_site_symmetry_multiplicity
  _atom_site_fract_x
  _atom_site_fract_y
  _atom_site_fract_z
  _atom_site_occupancy
  Zn  Zn1       1.0  0.5283926273354709  0.05679437295388108  0.028377136474716767  1.0000
  Zn  Zn2       1.0  0.5284413307931929  0.94323666136119  0.9147820669857792  1.0000
  Zn  Zn3       1.0  0.4148730092469037  0.05675690311284141  0.028324017158311763  1.0000
  Zn  Zn4       1.0  0.5284005085146148  0.9432374843123408  0.028350487223782774  1.0000
  Zn  Zn5       1.0  0.9715165975434489  0.9432642263695071  0.47168102165723985  1.0000
  Zn  Zn6       1.0  0.08509956095472399  0.9431975964856532  0.4716033743857294  1.0000
  Zn  Zn7       1.0  0.9715484792117408  0.05677904235570686  0.5851747202276132  1.0000
  Zn  Zn8       1.0  0.9715323009766693  0.05677410749426303  0.4716257714707837  1.0000
  H   H1        1.0  0.8053247764972866  0.0766360341079563  0.3054071340517553  1.0000
  H   H2        1.0  0.8053512066539384  0.9232596240824901  0.3053526239797931  1.0000
  H   H3        1.0  0.6945907678756953  0.07664807406773366  0.19465335948785165  1.0000
  H   H4        1.0  0.694551054887384  0.9233225640126289  0.19464308145931833  1.0000
  H   H5        1.0  0.2712277259265861  0.9233352202891747  0.6179119390794979  1.0000
  H   H6        1.0  0.11790657562040259  0.07675525737990793  0.7713112249861354  1.0000
  H   H7        1.0  0.382033594641058  0.923357799429709  0.7286652351232874  1.0000
  H   H8        1.0  0.2287130359909782  0.07672023455551603  0.8820444970989668  1.0000
  H   H9        1.0  0.2711396206501535  0.6107530007496107  0.305497221405318  1.0000
  H   H10       1.0  0.1177891232374932  0.6107660457760032  0.30551307663280636  1.0000
  H   H11       1.0  0.3819201105695313  0.38929241062130854  0.19479572074157395  1.0000
  H   H12       1.0  0.22862867998918546  0.3891874114807121  0.1947016206889813  1.0000
  H   H13       1.0  0.8054453352385736  0.38921754783358126  0.6179505627697635  1.0000
  H   H14       1.0  0.805398085627516  0.38926405159211425  0.771326324384532  1.0000
  H   H15       1.0  0.6945709587225508  0.6107385846766816  0.7287130846348547  1.0000
  H   H16       1.0  0.6945806026006593  0.6107970941504487  0.8820962701661801  1.0000
  H   H17       1.0  0.8054145170994147  0.0767750920582838  0.7714152868405363  1.0000
  H   H18       1.0  0.8053324073973517  0.92346140653467  0.6181418713249156  1.0000
  H   H19       1.0  0.6946008370195643  0.07684127057505184  0.8822107559367537  1.0000
  H   H20       1.0  0.6947088408518383  0.9234777198962191  0.7288026990185941  1.0000
  H   H21       1.0  0.2712374726466677  0.9235108688653992  0.30552755213255284  1.0000
  H   H22       1.0  0.11785522230304936  0.07683989244379318  0.30550817291992166  1.0000
  H   H23       1.0  0.3820299400434448  0.9233948618245833  0.19462005765961982  1.0000
  H   H24       1.0  0.22867852230000096  0.07678607602380787  0.1946207297414659  1.0000
  C   C1        1.0  0.5904715241942213  8.558853331663308e-05  0.9095932658533101  1.0000
  C   C2        1.0  0.4096012773756712  9.958896150426812e-06  0.90948205207593  1.0000
  C   C3        1.0  0.40954447068499894  0.18088687357474947  0.09042887027521827  1.0000
  C   C4        1.0  0.40956126880914917  1.907667341067753e-05  0.09039618204645454  1.0000
  C   C5        1.0  0.5904599005557641  0.9999807805956776  0.09040371917548395  1.0000
  C   C6        1.0  0.5904879705823377  0.8191286109927204  0.9095308785440964  1.0000
  C   C7        1.0  0.09028974840553862  0.8191111230116945  0.4096605649962159  1.0000
  C   C8        1.0  0.0903379411333773  0.999991557132837  0.5904830223376935  1.0000
  C   C9        1.0  0.9095107421086086  4.3686898933781885e-05  0.5905251712570275  1.0000
  C   C10       1.0  0.9094334919577847  0.18089099476347284  0.5904939108315401  1.0000
  C   C11       1.0  0.9094115046533986  1.633701982210946e-05  0.4096540993556985  1.0000
  C   C12       1.0  0.09037511984036677  2.955813010886289e-05  0.4095833082790961  1.0000
  C   C13       1.0  0.8720085672664909  0.9999789314097284  0.37216184914554884  1.0000
  C   C14       1.0  0.8528753692520326  0.0420338433781921  0.352995063583151  1.0000
  C   C15       1.0  0.818282031652096  0.04282278975437473  0.3183527623903898  1.0000
  C   C16       1.0  0.8005037153345924  0.9999566428791763  0.30056973707912243  1.0000
  C   C17       1.0  0.8182924938746579  0.9570708660028441  0.3183360652306533  1.0000
  C   C18       1.0  0.8528942519644358  0.9578763663402226  0.3529683377886389  1.0000
  C   C19       1.0  0.7651940893039608  0.9999696546356062  0.265254890542131  1.0000
  C   C20       1.0  0.7347083675939812  0.9999714949745947  0.23477786835192677  1.0000
  C   C21       1.0  0.699391804653061  0.999983094758292  0.19947066664975208  1.0000
  C   C22       1.0  0.6816357856775214  0.042848143345743314  0.181685027327127  1.0000
  C   C23       1.0  0.6470231747272166  0.04206208115988359  0.14706183944142742  1.0000
  C   C24       1.0  0.6278705883284204  0.9999987486946433  0.12788928069945624  1.0000
  C   C25       1.0  0.6469995806633475  0.9579371230259991  0.1470521441717095  1.0000
  C   C26       1.0  0.6816058488327457  0.9571223771785211  0.18168257661336193  1.0000
  C   C27       1.0  0.12780355943966978  1.5393434331735894e-05  0.6279192814341599  1.0000
  C   C28       1.0  0.1890269748479839  0.9579502569280502  0.6049923156113692  1.0000
  C   C29       1.0  0.2244681126458303  0.9571554720592059  0.6387902449073763  1.0000
  C   C30       1.0  0.19939528801607068  4.826552520837866e-05  0.6994464178908402  1.0000
  C   C31       1.0  0.13874053049977417  0.042931360822812716  0.7245500554401332  1.0000
  C   C32       1.0  0.10490933176958361  0.042116151266547656  0.6891432397895798  1.0000
  C   C33       1.0  0.23472728491710618  4.160983552742148e-05  0.7347410106068466  1.0000
  C   C34       1.0  0.26521629839676564  4.7190049435970244e-05  0.7652207481881489  1.0000
  C   C35       1.0  0.30054219388024717  4.2656035944226477e-05  0.800522856591968  1.0000
  C   C36       1.0  0.36119550514507653  0.9571594334998251  0.7754209996336813  1.0000
  C   C37       1.0  0.39502709591720014  0.9579442522223397  0.8108253062394654  1.0000
  C   C38       1.0  0.3721322931626434  1.722062422218898e-05  0.8720470349013069  1.0000
  C   C39       1.0  0.31090668910541563  0.04209071116329687  0.8949765227777318  1.0000
  C   C40       1.0  0.27546937533320914  0.04290245752426344  0.8611768875560769  1.0000
  C   C41       1.0  0.12773604909089187  0.7442126515963777  0.3722299383560852  1.0000
  C   C42       1.0  0.18895966439082929  0.7058978938755655  0.3530696511409416  1.0000
  C   C43       1.0  0.22437848493135693  0.6366613968742314  0.3184482356500169  1.0000
  C   C44       1.0  0.19928184931772822  0.6011126255525594  0.3006871741090508  1.0000
  C   C45       1.0  0.13862623620772763  0.6366828733496346  0.3184646883577783  1.0000
  C   C46       1.0  0.1048121821566143  0.7059176871125384  0.3530843379605172  1.0000
  C   C47       1.0  0.23461175421710592  0.5304788458447047  0.2653652705494024  1.0000
  C   C48       1.0  0.2651033235308163  0.46952200600342286  0.2348892678909777  1.0000
  C   C49       1.0  0.300444338597906  0.39888857790612053  0.19956932999092913  1.0000
  C   C50       1.0  0.36109561128021983  0.3633589698275729  0.1817986258671881  1.0000
  C   C51       1.0  0.3949458880637451  0.29412132184393863  0.14715688690115059  1.0000
  C   C52       1.0  0.372065483839485  0.25578323471085423  0.12795015156290643  1.0000
  C   C53       1.0  0.31084140728778925  0.2940605338058048  0.1471010083176339  1.0000
  C   C54       1.0  0.2753865030917241  0.3632970382070011  0.18174932257625895  1.0000
  C   C55       1.0  0.8720689788293826  0.2557908665624352  0.627936754406562  1.0000
  C   C56       1.0  0.8529693181767684  0.29408868031369184  0.6050123157535411  1.0000
  C   C57       1.0  0.8183684620238834  0.3633249992160681  0.6388156638331352  1.0000
  C   C58       1.0  0.8005797081465148  0.3988972434140407  0.6994689283815134  1.0000
  C   C59       1.0  0.8183483789113739  0.3633451673472333  0.7245692660453996  1.0000
  C   C60       1.0  0.8529448741697718  0.29410947607433224  0.689159301097817  1.0000
  C   C61       1.0  0.7652529914126803  0.46952112720243366  0.7347756276234279  1.0000
  C   C62       1.0  0.7347435214721755  0.5304889256903847  0.7652691783952862  1.0000
  C   C63       1.0  0.6994113923958736  0.6011128105166816  0.8005784631436299  1.0000
  C   C64       1.0  0.6816280520050737  0.636658881288319  0.7754719447384844  1.0000
  C   C65       1.0  0.6470148951529069  0.7058956352208907  0.8108763065477335  1.0000
  C   C66       1.0  0.6278768602124885  0.7442273221247715  0.8720989995400642  1.0000
  C   C67       1.0  0.6470160741053378  0.705931268890509  0.895028766600781  1.0000
  C   C68       1.0  0.6816293862009888  0.636693181379634  0.8612331072876315  1.0000
  C   C69       1.0  0.8720906504126873  5.678399639179982e-05  0.6279930951084153  1.0000
  C   C70       1.0  0.852972200674486  0.04214418550796498  0.6892120032811633  1.0000
  C   C71       1.0  0.8183639029628864  0.042974076697291155  0.7246597382978665  1.0000
  C   C72       1.0  0.8005670746978382  0.00012678078829950806  0.6995899987419634  1.0000
  C   C73       1.0  0.8183132601606785  0.9572405196528557  0.6389462452781555  1.0000
  C   C74       1.0  0.8529327540256727  0.9580009140619404  0.6050959774743205  1.0000
  C   C75       1.0  0.7652527236641546  0.00015885402257237506  0.7349268201338647  1.0000
  C   C76       1.0  0.734772038323257  0.00017467875987591048  0.7654148778404702  1.0000
  C   C77       1.0  0.6994585403483883  0.0001643441869347257  0.8007091453212568  1.0000
  C   C78       1.0  0.6816565603058748  0.04303458539465749  0.8613599083570874  1.0000
  C   C79       1.0  0.6470412466817094  0.04220633814106366  0.8951445051095986  1.0000
  C   C80       1.0  0.6279192770171138  0.00011136127684319631  0.8721803775714035  1.0000
  C   C81       1.0  0.647097979851857  0.9580457314018884  0.810957383689157  1.0000
  C   C82       1.0  0.681716095558677  0.9572709687311798  0.7755690969408849  1.0000
  C   C83       1.0  0.1278268076975735  0.00011151903743208449  0.37220005442761556  1.0000
  C   C84       1.0  0.18905704632789605  0.9580847348347205  0.3530643230853131  1.0000
  C   C85       1.0  0.22447497415115678  0.9572982148314964  0.31845211259131667  1.0000
  C   C86       1.0  0.1993855651866455  0.0001708563918114252  0.3006662051477349  1.0000
  C   C87       1.0  0.1387236335291817  0.043021431418892954  0.3184484491272102  1.0000
  C   C88       1.0  0.10491457551290036  0.04219132248227447  0.35305145131209775  1.0000
  C   C89       1.0  0.23470355097287407  0.00015291761918951848  0.2653271605904735  1.0000
  C   C90       1.0  0.2651882850634451  0.00013214394846976303  0.23482020975603038  1.0000
  C   C91       1.0  0.300506331477564  0.00010890431097717535  0.19947792424849808  1.0000
  C   C92       1.0  0.36116513107896936  0.9572051939660963  0.18166875748840278  1.0000
  C   C93       1.0  0.39499362773526775  0.9579791104578418  0.1470290024817589  1.0000
  C   C94       1.0  0.37210139907681844  3.7127602475031356e-05  0.12786076869912216  1.0000
  C   C95       1.0  0.31087629476260764  0.042123152693548535  0.14702774288875986  1.0000
  C   C96       1.0  0.27543816074673094  0.04295950398459057  0.18166757831298233  1.0000
  O   O1        1.0  0.5000362508849676  0.9999987797652772  0.9999430807370187  1.0000
  O   O2        1.0  0.576062599551463  0.040214497167283696  0.9641304529128332  1.0000
  O   O3        1.0  0.46413902734838086  0.9598717240679163  0.8837324181188252  1.0000
  O   O4        1.0  0.3838113908873098  0.1520872179318857  0.07600096670141453  1.0000
  O   O5        1.0  0.5760997407582382  0.9599334868273738  0.8838092934196452  1.0000
  O   O6        1.0  0.4640756170619582  0.15213663607011083  0.07605216091683788  1.0000
  O   O7        1.0  0.3838410271131709  0.04013653405928585  0.9640159769050243  1.0000
  O   O8        1.0  0.3838102637153753  0.040157065683594215  0.07599728658258435  1.0000
  O   O9        1.0  0.5760811442749231  0.9598304338020608  0.07600679159820328  1.0000
  O   O10       1.0  0.464095615692564  0.9598757540568882  0.07602717675456483  1.0000
  O   O11       1.0  0.5760612889313066  0.04014596840810461  0.07603566285804668  1.0000
  O   O12       1.0  0.5761322459374157  0.847902613955895  0.8837695148470387  1.0000
  O   O13       1.0  0.576088848923611  0.8478988382556095  0.9640649402105411  1.0000
  O   O14       1.0  0.999930635021208  0.9999999655641073  0.5000133084978488  1.0000
  O   O15       1.0  0.03575325467627979  0.8479076552299742  0.42405922843411775  1.0000
  O   O16       1.0  0.11608817272977494  0.9598379991530661  0.5359474378999564  1.0000
  O   O17       1.0  0.923907584551941  0.040176217909341005  0.6162480137503225  1.0000
  O   O18       1.0  0.11605157530739518  0.8478768458483897  0.4240173091925001  1.0000
  O   O19       1.0  0.9238759568922532  0.9598962828044646  0.5359981057346065  1.0000
  O   O20       1.0  0.03580425353516875  0.040142739814598254  0.6162540202005218  1.0000
  O   O21       1.0  0.9238103588532953  0.1521184017693142  0.6162553358266791  1.0000
  O   O22       1.0  0.9237980866193497  0.040156787270752926  0.4240389601853424  1.0000
  O   O23       1.0  0.9237956055003307  0.152107345272576  0.5359593989607704  1.0000
  O   O24       1.0  0.9237792778247282  0.9598970960741863  0.42406925066725176  1.0000
  O   O25       1.0  0.11614742367154908  0.9598380749801475  0.4239283730566115  1.0000
  O   O26       1.0  0.03583416736497475  0.04015296527017393  0.4239571359134473  1.0000
  F   F1        1.0  0.8680716856415457  0.08465103545346862  0.36819384318329895  1.0000
  F   F2        1.0  0.8680971012654553  0.9152375542750304  0.3681472404087318  1.0000
  F   F3        1.0  0.6318456481357373  0.08468039197752816  0.13186326844294868  1.0000
  F   F4        1.0  0.6317920328604033  0.9153323014527216  0.13186000118365382  1.0000
  F   F5        1.0  0.21643453953623737  0.9153167201591613  0.5471687384278071  1.0000
  F   F6        1.0  0.04709393283862808  0.08476212186829443  0.7165942711137417  1.0000
  F   F7        1.0  0.4528446657144654  0.9153170109151458  0.783385178774175  1.0000
  F   F8        1.0  0.28348725716375606  0.08471400178825653  0.9527974789235926  1.0000
  F   F9        1.0  0.21638399474979067  0.7362868048932468  0.368266545716196  1.0000
  F   F10       1.0  0.04699256225401178  0.7363064321459446  0.36827954626053144  1.0000
  F   F11       1.0  0.4527620950549718  0.2637597889927432  0.1319894759835733  1.0000
  F   F12       1.0  0.2834416247819078  0.26364405401249497  0.13188310053668315  1.0000
  F   F13       1.0  0.8681882579524256  0.26368341802891127  0.5471915217045551  1.0000
  F   F14       1.0  0.8681357753837137  0.2637310729343976  0.7165985339410452  1.0000
  F   F15       1.0  0.6318081176417111  0.7362729808180503  0.7834356335838492  1.0000
  F   F16       1.0  0.6318202685464344  0.736330519792339  0.9528486909497356  1.0000
  F   F17       1.0  0.8681958404520316  0.0847368890951825  0.7166029303992545  1.0000
  F   F18       1.0  0.8681063464201201  0.9153715536525693  0.5472831403114496  1.0000
  F   F19       1.0  0.6318186325822381  0.08482369235107236  0.9529667863604273  1.0000
  F   F20       1.0  0.6319341004429687  0.9154053079811314  0.7834950309492185  1.0000
  F   F21       1.0  0.2165045568834145  0.9154802652843299  0.3682786945017115  1.0000
  F   F22       1.0  0.04709340616113879  0.08482361009372846  0.36825273321289836  1.0000
  F   F23       1.0  0.45281280817989983  0.9153280938284494  0.13182299665488265  1.0000
  F   F24       1.0  0.2834517794274944  0.08474140074448393  0.13182465533711246  1.0000
