data_image0
_chemical_formula_structural       Ag4H40C48N20O12F16
_chemical_formula_sum              "Ag4 H40 C48 N20 O12 F16"
_cell_length_a       6.348690708
_cell_length_b       9.162643864429231
_cell_length_c       25.1946
_cell_angle_alpha    90.0
_cell_angle_beta     90.0
_cell_angle_gamma    100.56661526939156

_space_group_name_H-M_alt    "P 1"
_space_group_IT_number       1

loop_
  _space_group_symop_operation_xyz
  'x, y, z'

loop_
  _atom_site_type_symbol
  _atom_site_label
  _atom_site_symmetry_multiplicity
  _atom_site_fract_x
  _atom_site_fract_y
  _atom_site_fract_z
  _atom_site_occupancy
  Ag  Ag1       1.0  0.8646719731210981  0.49878503092269  0.6626479483698873  1.0000
  Ag  Ag2       1.0  0.13532664876037606  0.001212354410761  0.16265032983258007  1.0000
  Ag  Ag3       1.0  0.1353278387708912  0.5012130703881965  0.3373520516301127  1.0000
  Ag  Ag4       1.0  0.864665181500847  0.9987912979734331  0.8373508608987661  1.0000
  H   H1        1.0  0.4309460272064741  0.3162080093492037  0.6917910980924518  1.0000
  H   H2        1.0  0.5690586013593376  0.1837882657695857  0.19179070118200056  1.0000
  H   H3        1.0  0.5690538906766777  0.6837845408883679  0.3082089019075482  1.0000
  H   H4        1.0  0.43094377313379784  0.8162076151119775  0.8082065204448554  1.0000
  H   H5        1.0  0.1693624261984752  0.3487550623765188  0.701091106824478  1.0000
  H   H6        1.0  0.8306396397662043  0.1512434331715937  0.2010915037349292  1.0000
  H   H7        1.0  0.8306374916846765  0.651237487861053  0.2989092900859731  1.0000
  H   H8        1.0  0.16935889082522243  0.8487557783539543  0.7989069086232732  1.0000
  H   H9        1.0  0.7103488036452748  0.5784584759169746  0.5499495923729681  1.0000
  H   H10       1.0  0.2896593802509742  0.921543672015332  0.0499503861938635  1.0000
  H   H11       1.0  0.2896553338119716  0.421544066252558  0.4500535829106269  1.0000
  H   H12       1.0  0.7103421946051328  0.0784610905835237  0.9500496138061363  1.0000
  H   H13       1.0  0.08860959710668939  0.6902704149430007  0.5740682527208207  1.0000
  H   H14       1.0  0.9113959423433899  0.8097217410573448  0.0740694434521671  1.0000
  H   H15       1.0  0.9113931772049497  0.3097210250799094  0.4259333349209768  1.0000
  H   H16       1.0  0.08860426936711722  0.19027191939488827  0.9259277781746889  1.0000
  H   H17       1.0  0.7709169315243616  0.9649575061530129  0.3434739983964831  1.0000
  H   H18       1.0  0.2290783575211677  0.5350435315646322  0.8434743953069344  1.0000
  H   H19       1.0  0.22908789957875095  0.0350417053725351  0.6565248108721703  1.0000
  H   H20       1.0  0.7709157415138463  0.46495679017557723  0.1565228263199288  1.0000
  H   H21       1.0  0.7550317938949791  0.1555399639130215  0.3331666309447243  1.0000
  H   H22       1.0  0.24497243485232195  0.3444607520644141  0.8331670278551755  1.0000
  H   H23       1.0  0.24497146208020845  0.8444592476125266  0.6668333690552755  1.0000
  H   H24       1.0  0.7550348528607673  0.6555417901051186  0.16683257523437325  1.0000
  H   H25       1.0  0.6075302196210188  0.0142429438971021  0.2917744278535892  1.0000
  H   H26       1.0  0.39247371529893377  0.4857566618656719  0.7917756185849355  1.0000
  H   H27       1.0  0.39247461148209345  0.9857562676284458  0.7082255721464107  1.0000
  H   H28       1.0  0.6075321032773929  0.5142403292305531  0.20822557214641074  1.0000
  H   H29       1.0  0.2133180061333491  0.0299780162997578  0.31663650147253714  1.0000
  H   H30       1.0  0.7866723402900107  0.4700238098923392  0.816636104562086  1.0000
  H   H31       1.0  0.7866818057586473  0.9700200850111286  0.6833642923483578  1.0000
  H   H32       1.0  0.21331673953388736  0.5299754016332017  0.1833634985274628  1.0000
  H   H33       1.0  0.3655610273727916  0.20356340932677594  0.33738618592872877  1.0000
  H   H34       1.0  0.6344358073984467  0.2964450781532975  0.8373861859287288  1.0000
  H   H35       1.0  0.6344431100844545  0.7964391328427567  0.6626146078921664  1.0000
  H   H36       1.0  0.3655556230442657  0.7035630150895427  0.16261460789216636  1.0000
  H   H37       1.0  0.18908899125945317  0.0945092435208181  0.3828629944511945  1.0000
  H   H38       1.0  0.8109168126157726  0.4054914724566174  0.8828629944511944  1.0000
  H   H39       1.0  0.8109209650459379  0.9054855271460767  0.6171374024592565  1.0000
  H   H40       1.0  0.18908516205885215  0.5945088492835922  0.11713779936970779  1.0000
  C   C1        1.0  0.34190819984465304  0.46429843288108696  0.6398244068173327  1.0000
  C   C2        1.0  0.6580998728043568  0.035698952452357  0.1398255975486791  1.0000
  C   C3        1.0  0.6580916120473432  0.5356996684297926  0.36017638700356247  1.0000
  C   C4        1.0  0.34190220786142334  0.9642958182145377  0.8601732117199745  1.0000
  C   C5        1.0  0.5578786821919763  0.5694801699464449  0.5707794527398704  1.0000
  C   C6        1.0  0.4421241886658081  0.9305197575565388  0.0707790558294263  1.0000
  C   C7        1.0  0.4421195545720949  0.4305179313644416  0.429221737991476  1.0000
  C   C8        1.0  0.5578739421071078  0.0694838948276555  0.9292193565287832  1.0000
  C   C9        1.0  0.39874366474987266  0.6438157028464673  0.5516416216173283  1.0000
  C   C10       1.0  0.6012659064381083  0.8561797837978702  0.051642812348674696  1.0000
  C   C11       1.0  0.6012627414811648  0.3561835086790808  0.4483591722035668  1.0000
  C   C12       1.0  0.3987379371917825  0.1438216481570009  0.9483579814722204  1.0000
  C   C13       1.0  0.2141955006960217  0.6275743725580014  0.5831888579298763  1.0000
  C   C14       1.0  0.7858074761529253  0.8724200038716674  0.0831884610194251  1.0000
  C   C15       1.0  0.785807167624462  0.37242261853821645  0.4168123328014701  1.0000
  C   C16       1.0  0.21419431068550673  0.1275736565805659  0.916809554428333  1.0000
  C   C17       1.0  0.4225891448187583  0.7357836650062737  0.5035991839521188  1.0000
  C   C18       1.0  0.5774092944826137  0.7642173727113715  0.0035975963103212  1.0000
  C   C19       1.0  0.5774141111564293  0.26421554651927437  0.49640200677922747  1.0000
  C   C20       1.0  0.4225828296059646  0.23578738988748427  0.996400816047881  1.0000
  C   C21       1.0  0.6157591348305262  0.8271498908193492  0.4885800925595163  1.0000
  C   C22       1.0  0.38423201648593874  0.6728533673276189  0.9885789018281697  1.0000
  C   C23       1.0  0.3842400894067596  0.1728459900622141  0.5114210981718301  1.0000
  C   C24       1.0  0.6157575450015004  0.3271536157005599  0.0114195105300325  1.0000
  C   C25       1.0  0.6341732477043892  0.9187059633395974  0.444402371936846  1.0000
  C   C26       1.0  0.3658163284841578  0.5812972948073707  0.9444023719368457  1.0000
  C   C27       1.0  0.36582242645854995  0.08129435840061208  0.5555980249736052  1.0000
  C   C28       1.0  0.6341767830776349  0.418705247362162  0.055597628063154  1.0000
  C   C29       1.0  0.45983961669733026  0.9269248824814085  0.4101982170782604  1.0000
  C   C30       1.0  0.540154978702333  0.5730794858802213  0.9101994078096068  1.0000
  C   C31       1.0  0.5401649205784267  0.073073218829478  0.5898017829217395  1.0000
  C   C32       1.0  0.4598381328594599  0.4269230562893114  0.08980098910083707  1.0000
  C   C33       1.0  0.2663324587232695  0.8325111174215039  0.424742603573783  1.0000
  C   C34       1.0  0.7336666742239686  0.6674865896521495  0.9247433973946783  1.0000
  C   C35       1.0  0.7336734658442198  0.1674803226014063  0.5752554118739752  1.0000
  C   C36       1.0  0.26633215019480627  0.33251373208806  0.0752573964262169  1.0000
  C   C37       1.0  0.2502791772214792  0.7426858695591037  0.4693477967500995  1.0000
  C   C38       1.0  0.749724974936875  0.7573129477292113  0.9693489874814459  1.0000
  C   C39       1.0  0.7497250662269295  0.2573111215371142  0.5306514094290051  1.0000
  C   C40       1.0  0.2502709930534124  0.2426884842256598  0.0306502186976587  1.0000
  C   C41       1.0  0.6641815288172523  0.0411390042955091  0.332539115524753  1.0000
  C   C42       1.0  0.33582299375740393  0.45886282189658795  0.8325403062560994  1.0000
  C   C43       1.0  0.3358248774137849  0.958860207230039  0.6674604875647958  1.0000
  C   C44       1.0  0.6641830126551156  0.5411408304876062  0.16746009065434458  1.0000
  C   C45       1.0  0.3010036683794867  0.0894633178826325  0.3502143316424977  1.0000
  C   C46       1.0  0.6989970102934607  0.4105418389534492  0.8502155223738441  1.0000
  C   C47       1.0  0.6990014565509812  0.9105370038575771  0.6497852714470581  1.0000
  C   C48       1.0  0.3010026956073731  0.589461813430745  0.14978566835750226  1.0000
  N   N1        1.0  0.18179815533184754  0.5382886890212717  0.6255959610392735  1.0000
  N   N2        1.0  0.8182063966450173  0.9617056874084041  0.1255951672183713  1.0000
  N   N3        1.0  0.8182042191612879  0.4617071918602917  0.3744056266025239  1.0000
  N   N4        1.0  0.18179352123813436  0.0382868628291746  0.8744024513189359  1.0000
  N   N5        1.0  0.30829721648546393  0.3665407012596447  0.679446786216097  1.0000
  N   N6        1.0  0.6917095748629762  0.1334577942884678  0.1794455954847436  1.0000
  N   N7        1.0  0.6917011262697629  0.6334518489779342  0.3205551983361515  1.0000
  N   N8        1.0  0.30829338728486283  0.8665403070224187  0.8205528168734588  1.0000
  N   N9        1.0  0.5356900079809607  0.48651604869439063  0.6147118827050234  1.0000
  N   N10       1.0  0.4643143267575027  0.0134791162097372  0.11471108888412827  1.0000
  N   N11       1.0  0.4643098039110356  0.5134820526164957  0.385289704936774  1.0000
  N   N12       1.0  0.535683322351865  0.9865167646718263  0.885287323474081  1.0000
  N   N13       1.0  0.479272321829349  0.022539578065242  0.36797924952172417  1.0000
  N   N14       1.0  0.5207230438051269  0.4774633583415167  0.8679812340739659  1.0000
  N   N15       1.0  0.520728771363217  0.9774574130309829  0.6320199566573805  1.0000
  N   N16       1.0  0.4792753807951371  0.5225414042573391  0.1320191628364782  1.0000
  N   N17       1.0  0.7840386794580709  0.7113711548064643  0.7556555769887224  1.0000
  N   N18       1.0  0.21595602193274743  0.7886276624818578  0.255657164630513  1.0000
  N   N19       1.0  0.21596260157068065  0.2886324975777299  0.24434402610083333  1.0000
  N   N20       1.0  0.7840393584028361  0.2113715490436903  0.7443428353694868  1.0000
  O   O1        1.0  0.6691776270524132  0.6080001778546134  0.7292927849618565  1.0000
  O   O2        1.0  0.33081667451990177  0.8920030802923548  0.2292951664245493  1.0000
  O   O3        1.0  0.3308236539763456  0.3920034745295807  0.2707064212172483  1.0000
  O   O4        1.0  0.6691785998245265  0.1080016823065009  0.7707060243067969  1.0000
  O   O5        1.0  0.6969326831788083  0.7700659835500899  0.793710160113676  1.0000
  O   O6        1.0  0.3030642869858013  0.7299295030942474  0.2937097632032248  1.0000
  O   O7        1.0  0.3030685978499505  0.2299376688341042  0.2062890460654287  1.0000
  O   O8        1.0  0.6969314931682933  0.2700652675726545  0.7062886491549776  1.0000
  O   O9        1.0  0.9788811022089592  0.7545462927918436  0.7445805847284745  1.0000
  O   O10       1.0  0.021112317881296954  0.74545363471114  0.24458256928071614  1.0000
  O   O11       1.0  0.0211195911650961  0.24545513916302747  0.25541941527152545  1.0000
  O   O12       1.0  0.9788846375822048  0.254545576814408  0.7554170338088326  1.0000
  F   F1        1.0  0.7903153889163691  0.8369364330637125  0.5206052090527321  1.0000
  F   F2        1.0  0.20968796360496367  0.6630712659419016  0.020607987425876193  1.0000
  F   F3        1.0  0.2096894421867432  0.1630627784618355  0.4793932033054702  1.0000
  F   F4        1.0  0.7903116363047147  0.3369379375156001  0.9793920125741238  1.0000
  F   F5        1.0  0.8228121497556417  0.0137777639537831  0.4366840513443364  1.0000
  F   F6        1.0  0.1771823343967824  0.4862218418089909  0.9366860358965781  1.0000
  F   F7        1.0  0.1771898249189832  0.9862225577864264  0.5633191239392588  1.0000
  F   F8        1.0  0.8228026895430887  0.513791802507157  0.0633131702825196  1.0000
  F   F9        1.0  0.09106638515621773  0.82144116702802  0.39295285497686183  1.0000
  F   F10       1.0  0.9089219915767971  0.6785754136948867  0.8929504735141691  1.0000
  F   F11       1.0  0.9089334267357787  0.17855693428285946  0.607046748112694  1.0000
  F   F12       1.0  0.091075045731742  0.3214360101919382  0.1070515110380796  1.0000
  F   F13       1.0  0.05987016321416413  0.649021499395964  0.4773999190302688  1.0000
  F   F14       1.0  0.940127582441342  0.8509828689656658  0.9773995221198175  1.0000
  F   F15       1.0  0.9401274617490785  0.350992144920184  0.5226004778801823  1.0000
  F   F16       1.0  0.059864353811043707  0.1490152323452207  0.0226012717010775  1.0000
