data_image0
_chemical_formula_structural       Zn8H24C88O42F16
_chemical_formula_sum              "Zn8 H24 C88 O42 F16"
_cell_length_a       23.68107512474852
_cell_length_b       23.68300557322228
_cell_length_c       23.680966718500898
_cell_angle_alpha    65.76829163654368
_cell_angle_beta     72.86319279855807
_cell_angle_gamma    107.14923617655487

_space_group_name_H-M_alt    "P 1"
_space_group_IT_number       1

loop_
  _space_group_symop_operation_xyz
  'x, y, z'

loop_
  _atom_site_type_symbol
  _atom_site_label
  _atom_site_symmetry_multiplicity
  _atom_site_fract_x
  _atom_site_fract_y
  _atom_site_fract_z
  _atom_site_occupancy
  Zn  Zn1       1.0  0.05679774434558763  0.9563585842047078  0.4846217828542549  1.0000
  Zn  Zn2       1.0  0.05680839058177871  0.10043435888610469  0.4585786446383438  1.0000
  Zn  Zn3       1.0  0.9431861171551293  0.9846047219292161  0.45636842350468493  1.0000
  Zn  Zn4       1.0  0.9432002642311876  0.9585827711401935  0.6004363900040559  1.0000
  Zn  Zn5       1.0  0.9409760161954352  0.5414075895076493  0.015388940915002485  1.0000
  Zn  Zn6       1.0  0.0590255252679413  0.5153852940501553  0.04142691692803161  1.0000
  Zn  Zn7       1.0  0.9409817069778867  0.39956285183569673  0.04362981420240431  1.0000
  Zn  Zn8       1.0  0.05901269837008275  0.5436324623230249  0.8995670659651867  1.0000
  H   H1        1.0  0.9333198923732772  0.7272960507759197  0.16021630565634828  1.0000
  H   H2        1.0  0.06667796537215774  0.6602260039412898  0.2273401766742466  1.0000
  H   H3        1.0  0.9133234864986693  0.8129924926465153  0.2970627342598462  1.0000
  H   H4        1.0  0.08666795642464838  0.7970690944832485  0.3130187318128109  1.0000
  H   H5        1.0  0.06669231795763152  0.40643547549941417  0.7060182203268114  1.0000
  H   H6        1.0  0.9333172285364885  0.2060038344318756  0.9064590247854626  1.0000
  H   H7        1.0  0.08667925546780002  0.2895940240960044  0.6003391024895278  1.0000
  H   H8        1.0  0.9133069922706909  0.10032844212237534  0.7895820552538668  1.0000
  H   H9        1.0  0.6100801762066581  0.39967251618078603  0.18699811772894762  1.0000
  H   H10       1.0  0.610068432789234  0.2103995891009163  0.20292172900961708  1.0000
  H   H11       1.0  0.3875394325129521  0.2939937823062167  0.27266434691777164  1.0000
  H   H12       1.0  0.38754491472347047  0.0935567351542376  0.33974306531020915  1.0000
  H   H13       1.0  0.3899437647982253  0.6869925851458518  0.8996751710811424  1.0000
  H   H14       1.0  0.38990331303991616  0.7029126110558578  0.710407912661232  1.0000
  H   H15       1.0  0.6124725703371042  0.7726685717918187  0.7939943005881106  1.0000
  H   H16       1.0  0.6124406855660711  0.839762155861344  0.5935513373902808  1.0000
  H   H17       1.0  0.8378164544605298  0.7387824053833825  0.8076464350308684  1.0000
  H   H18       1.0  0.04642811570361273  0.6454914418804877  0.6923299920565926  1.0000
  H   H19       1.0  0.9535538528198019  0.7612027779267336  0.9009726843698829  1.0000
  H   H20       1.0  0.16217315229427956  0.8545189675326841  0.5990601535039631  1.0000
  H   H21       1.0  0.837819529179562  0.09904946463250748  0.35448492337383913  1.0000
  H   H22       1.0  0.04644228786842334  0.40094309991840055  0.26124329337301333  1.0000
  H   H23       1.0  0.9535600673760387  0.19236867911974545  0.145451743317949  1.0000
  H   H24       1.0  0.16217950478726814  0.3076511004952423  0.23880105955961992  1.0000
  C   C1        1.0  0.17877324952537071  0.08938333006462781  0.41059948807704677  1.0000
  C   C2        1.0  0.9999947556932228  0.1371898026835441  0.36277571001956943  1.0000
  C   C3        1.0  0.999974796173305  0.9094215265093766  0.4094744790843452  1.0000
  C   C4        1.0  0.8212207831964167  0.9106085093030317  0.5893847264587607  1.0000
  C   C5        1.0  5.488359086353604e-06  0.8627966242676733  0.6372130550017657  1.0000
  C   C6        1.0  1.119530821111031e-05  0.09055936950321102  0.5905397710903275  1.0000
  C   C7        1.0  0.9999941771085263  0.5893647850900622  0.08940978224050156  1.0000
  C   C8        1.0  1.4120310780240518e-05  0.36280011342090296  0.13720982978480836  1.0000
  C   C9        1.0  0.8188949191117134  0.4094422268291425  0.090541920209013  1.0000
  C   C10       1.0  4.854678557899794e-06  0.4106122180622905  0.9106139695515127  1.0000
  C   C11       1.0  0.9999802002276682  0.6372007168849975  0.8628019255370849  1.0000
  C   C12       1.0  0.1811015805230414  0.5905455791187678  0.90946260907549  1.0000
  C   C13       1.0  0.9999950520087283  0.804517614154925  0.6954855011198549  1.0000
  C   C14       1.0  0.9999889584922741  0.6954753907242974  0.8045275888378782  1.0000
  C   C15       1.0  0.9575613771901105  0.7781576038954013  0.7660095576448783  1.0000
  C   C16       1.0  0.04415723572848427  0.7235679610583505  0.7340004820088453  1.0000
  C   C17       1.0  0.9558213336612202  0.7218349468874837  0.8205958648207812  1.0000
  C   C18       1.0  0.04243037220426544  0.7764268977066352  0.6794125228600195  1.0000
  C   C19       1.0  0.9999915535339524  0.19546973714477633  0.3045184474154541  1.0000
  C   C20       1.0  0.9999991899659479  0.30451868313458147  0.19548585909736005  1.0000
  C   C21       1.0  0.9575624842809417  0.1794093976086517  0.27641073684733186  1.0000
  C   C22       1.0  0.0441656448108603  0.320578288557158  0.22185658897324603  1.0000
  C   C23       1.0  0.955830039533936  0.23399720086798956  0.22356228330272643  1.0000
  C   C24       1.0  0.0424320923428071  0.26599244228402347  0.27817306424601174  1.0000
  C   C25       1.0  1.8803946347583474e-06  0.62687603582485  0.12690713733196196  1.0000
  C   C26       1.0  0.9634876892545493  0.6643315535274256  0.12739347827447026  1.0000
  C   C27       1.0  0.9624992144763739  0.6993012344333636  0.16202785550044776  1.0000
  C   C28       1.0  3.094941654180898e-06  0.6984878857578211  0.19849647921937222  1.0000
  C   C29       1.0  0.03750049286917102  0.6620199555486226  0.19933488694856288  1.0000
  C   C30       1.0  0.03651675750023749  0.62737813847383  0.16436933524187214  1.0000
  C   C31       1.0  2.8401494987755018e-06  0.7340281697314808  0.23402197818352738  1.0000
  C   C32       1.0  1.809975744841932e-07  0.7646858452332455  0.26469029532313465  1.0000
  C   C33       1.0  0.9999953459854541  0.8002359881593081  0.300249505483187  1.0000
  C   C34       1.0  0.9515731538919213  0.8227082354910636  0.3134723142132928  1.0000
  C   C35       1.0  0.9524327107663525  0.8572917862587772  0.34854400939379826  1.0000
  C   C36       1.0  0.9999850057602803  0.8719167927805602  0.3719610446613616  1.0000
  C   C37       1.0  0.04754374246383728  0.8485162810439347  0.3573416002653432  1.0000
  C   C38       1.0  0.04840999485286127  0.8134598721961412  0.32274148238114  1.0000
  C   C39       1.0  7.155914936249363e-06  0.3731042017699621  0.8731130860137811  1.0000
  C   C40       1.0  0.03653023388709904  0.4091119048186869  0.7991466406965274  1.0000
  C   C41       1.0  0.03751374350024869  0.3754611305937133  0.7631925710281069  1.0000
  C   C42       1.0  1.448559444830498e-06  0.3015005466367526  0.8015179818879334  1.0000
  C   C43       1.0  0.9625033595126455  0.2631794658214803  0.8754821938535928  1.0000
  C   C44       1.0  0.9634916675975022  0.2991376115388818  0.9091287795768324  1.0000
  C   C45       1.0  0.9999966346377106  0.2659704953628929  0.765984044055863  1.0000
  C   C46       1.0  0.9999888260094353  0.23530440544136155  0.7353168357562085  1.0000
  C   C47       1.0  0.999994828489932  0.19975382930859814  0.6997599855498394  1.0000
  C   C48       1.0  0.04841970127400693  0.2349467180053324  0.6288649239933762  1.0000
  C   C49       1.0  0.04755501827256838  0.19902238165698796  0.5951357288416832  1.0000
  C   C50       1.0  0.9999995072473881  0.12807104152091153  0.6280492457881338  1.0000
  C   C51       1.0  0.9524400720668212  0.09514148803908971  0.6990010933456506  1.0000
  C   C52       1.0  0.9515781661096557  0.12886136725116176  0.734938324945368  1.0000
  C   C53       1.0  0.7438761493260133  0.37193604034334293  0.1280560885419249  1.0000
  C   C54       1.0  0.7058488223703635  0.4048636914706167  0.1426828443916931  1.0000
  C   C55       1.0  0.6361940479586823  0.3711382379240718  0.1772734064657442  1.0000
  C   C56       1.0  0.600483259612844  0.3002407623061317  0.19975181318811508  1.0000
  C   C57       1.0  0.6361870394677497  0.26505017761268596  0.18652593462311978  1.0000
  C   C58       1.0  0.7058411975162643  0.30098000646295026  0.15146236809952282  1.0000
  C   C59       1.0  0.5293757364702216  0.26468536432258816  0.2353063820598679  1.0000
  C   C60       1.0  0.46804085816725677  0.23402430085343456  0.2659694681539833  1.0000
  C   C61       1.0  0.3969771076129405  0.19849345040224625  0.3014955930868056  1.0000
  C   C62       1.0  0.36133261504134856  0.23681688858093253  0.300659742935082  1.0000
  C   C63       1.0  0.2917266059157911  0.20085918749272488  0.33562895759128963  1.0000
  C   C64       1.0  0.2537809173094558  0.12689105279949328  0.37308505755096644  1.0000
  C   C65       1.0  0.29173658423291476  0.09088185880516163  0.3725811702068215  1.0000
  C   C66       1.0  0.3613421821569034  0.12453326849464466  0.33794559410593206  1.0000
  C   C67       1.0  0.25611788241417344  0.6280450244325593  0.871955272048311  1.0000
  C   C68       1.0  0.2941590277245681  0.6426757561482433  0.9048791930269148  1.0000
  C   C69       1.0  0.36381277449165594  0.6772727867808257  0.8711454772981073  1.0000
  C   C70       1.0  0.3995079751967269  0.699746543072216  0.800249843644693  1.0000
  C   C71       1.0  0.36379233226983854  0.6865281921703003  0.7650581830995975  1.0000
  C   C72       1.0  0.2941365943613833  0.6514560908405259  0.8009936322295418  1.0000
  C   C73       1.0  0.4706189127198005  0.735302784443512  0.7646884262037549  1.0000
  C   C74       1.0  0.5319480643692177  0.7659685923172223  0.7340318938348248  1.0000
  C   C75       1.0  0.6030147007582303  0.8015019135590509  0.6984933547244768  1.0000
  C   C76       1.0  0.6386662741047431  0.8006717784923935  0.7368163259822326  1.0000
  C   C77       1.0  0.7082702108575349  0.8356401242523859  0.7008621324840761  1.0000
  C   C78       1.0  0.7462132257989466  0.8731036005663597  0.6268912333704865  1.0000
  C   C79       1.0  0.708248760504589  0.8726009578359568  0.5908803966681545  1.0000
  C   C80       1.0  0.6386452540970708  0.8379648885824195  0.6245303928861008  1.0000
  C   C81       1.0  0.9184392184664322  0.8135467558657866  0.7855187827158757  1.0000
  C   C82       1.0  0.09904833068745247  0.7039444146660403  0.7145038459645863  1.0000
  C   C83       1.0  0.9009227651977842  0.6864460096572034  0.8951051029588444  1.0000
  C   C84       1.0  0.08155315305165102  0.7960437870005067  0.604903782189112  1.0000
  C   C85       1.0  0.9184342321935051  0.10490394115413461  0.2960090160929455  1.0000
  C   C86       1.0  0.09907153607452564  0.39508282414483636  0.18648469627910913  1.0000
  C   C87       1.0  0.9009377679097028  0.2145064716583179  0.20393103104867547  1.0000
  C   C88       1.0  0.0815559538300548  0.2854780635376031  0.3135767607871571  1.0000
  O   O1        1.0  2.570967440137179e-07  0.9999977882385594  0.5000011605459066  1.0000
  O   O2        1.0  0.1499378564623441  0.030852280690105285  0.4167481839517252  1.0000
  O   O3        1.0  0.051317828664231534  0.15360987000433823  0.37186400370649153  1.0000
  O   O4        1.0  0.9750027833567714  0.9512697978832777  0.39666779849004313  1.0000
  O   O5        1.0  0.14995310764733466  0.11908528627375156  0.43328403014239575  1.0000
  O   O6        1.0  0.024946427029789345  0.8966151463180906  0.4513332927785072  1.0000
  O   O7        1.0  0.9486731385537795  0.07679059669749211  0.39766291640617624  1.0000
  O   O8        1.0  0.8500395896779984  0.9167548902430486  0.5308523743753993  1.0000
  O   O9        1.0  0.9486837313643052  0.8718769886081148  0.6536374034504749  1.0000
  O   O10       1.0  0.8500516519082739  0.9332884647598334  0.6190900784593653  1.0000
  O   O11       1.0  0.051324489018256404  0.8976882850207917  0.5768156165498012  1.0000
  O   O12       1.0  0.024981916885380418  0.1283288511541798  0.5237148074410031  1.0000
  O   O13       1.0  0.9750466702720147  0.023741185265968915  0.6283114998583984  1.0000
  O   O14       1.0  2.977214991874738e-07  0.49999790443975933  3.125147010331602e-06  1.0000
  O   O15       1.0  0.9476025597914061  0.566672215569021  0.0832688444820773  1.0000
  O   O16       1.0  0.02553327983453367  0.4231977210352653  0.1281321916362756  1.0000
  O   O17       1.0  0.8479499759671968  0.3716754768923068  0.10334057389396623  1.0000
  O   O18       1.0  0.052383943447615954  0.5832297684550838  0.06672606805283005  1.0000
  O   O19       1.0  0.8479441353033579  0.4762624394114355  0.04868443951234265  1.0000
  O   O20       1.0  0.9744963457353891  0.34637445968010633  0.10231443771757397  1.0000
  O   O21       1.0  0.9476213595688634  0.38091234568818777  0.9691356455646133  1.0000
  O   O22       1.0  0.025490366024449533  0.6023093783309721  0.8463781932992731  1.0000
  O   O23       1.0  0.0523886592070752  0.469143435991235  0.8809129345029307  1.0000
  O   O24       1.0  0.9744746411479641  0.6281197369329805  0.9232029590828575  1.0000
  O   O25       1.0  0.1520552161407523  0.5486936304070795  0.9762870153936165  1.0000
  O   O26       1.0  0.1520444438651652  0.6033527681551973  0.8716932923336886  1.0000
  O   O27       1.0  0.8512067625243847  0.7804058026921014  0.8103549980664227  1.0000
  O   O28       1.0  0.9457785663891731  0.8663042471877348  0.7846789848561074  1.0000
  O   O29       1.0  0.09075252029375497  0.6615707129154415  0.6896489097234736  1.0000
  O   O30       1.0  0.15096601456385636  0.73042394725411  0.7153695684189927  1.0000
  O   O31       1.0  0.9092200244925764  0.7195814078206482  0.9292009354342882  1.0000
  O   O32       1.0  0.8489987702820232  0.6336864381457803  0.920520909386866  1.0000
  O   O33       1.0  0.14878089998214267  0.8384240435794653  0.570821328429645  1.0000
  O   O34       1.0  0.054210686258116536  0.7695505308957281  0.5794682775400019  1.0000
  O   O35       1.0  0.8512040172171425  0.07081430575495061  0.33838678490978685  1.0000
  O   O36       1.0  0.9457777539795131  0.07947993404292937  0.26951462562506395  1.0000
  O   O37       1.0  0.09077732091260063  0.42917236367232897  0.21962642239460453  1.0000
  O   O38       1.0  0.15099158754137695  0.4205067370892055  0.13372438403987985  1.0000
  O   O39       1.0  0.9092292574820676  0.18966348510158337  0.16154293162933447  1.0000
  O   O40       1.0  0.8490194444327701  0.21535158388423536  0.2304223769809114  1.0000
  O   O41       1.0  0.14878449071545682  0.3103378773387036  0.2804369810195767  1.0000
  O   O42       1.0  0.054212067449874744  0.2846121407255424  0.36635742523800024  1.0000
  F   F1        1.0  0.9286527220459035  0.6687355586293222  0.09100360228646318  1.0000
  F   F2        1.0  0.07134483919318783  0.590988529572549  0.16880083369881754  1.0000
  F   F3        1.0  0.9035978293785193  0.8756922111203805  0.36188427713593546  1.0000
  F   F4        1.0  0.09636201560743987  0.8618453371766323  0.37577474764940194  1.0000
  F   F5        1.0  0.07138023288332099  0.48033057898920356  0.7598967156493972  1.0000
  F   F6        1.0  0.9286615491974363  0.25989112574053785  0.980346633956373  1.0000
  F   F7        1.0  0.09638753406967739  0.2345041455684722  0.527905542290057  1.0000
  F   F8        1.0  0.9036058569868575  0.02791242447948858  0.7344620624462481  1.0000
  F   F9        1.0  0.73760141458137  0.4720981434736801  0.12427342717597166  1.0000
  F   F10       1.0  0.737591173880958  0.26549956056496893  0.138112969367647  1.0000
  F   F11       1.0  0.2597542954889533  0.24010129562906  0.3312088689881493  1.0000
  F   F12       1.0  0.25977221456174965  0.01966364063722642  0.4089550485146419  1.0000
  F   F13       1.0  0.2624254249860982  0.6242585114552526  0.9721214218509859  1.0000
  F   F14       1.0  0.26237170204588983  0.6381049154511587  0.7655169236935749  1.0000
  F   F15       1.0  0.740254306792764  0.8312190586635995  0.7401019926671639  1.0000
  F   F16       1.0  0.7402144724184939  0.9089925498404132  0.5196597417336476  1.0000
