data_image0
_chemical_formula_structural       Fe3H42C30N12
_chemical_formula_sum              "Fe3 H42 C30 N12"
_cell_length_a       8.367916411262634
_cell_length_b       8.366152967021147
_cell_length_c       13.071485534915164
_cell_angle_alpha    90.00247285754722
_cell_angle_beta     90.01511906737558
_cell_angle_gamma    119.9931626145415

_space_group_name_H-M_alt    "P 1"
_space_group_IT_number       1

loop_
  _space_group_symop_operation_xyz
  'x, y, z'

loop_
  _atom_site_type_symbol
  _atom_site_label
  _atom_site_symmetry_multiplicity
  _atom_site_fract_x
  _atom_site_fract_y
  _atom_site_fract_z
  _atom_site_occupancy
  Fe  Fe1       1.0  4.096340550323e-05  0.4734309187059722  0.6666905709540103  1.0000
  Fe  Fe2       1.0  0.526879366495244  0.5266328613488866  0.9998693913446957  1.0000
  Fe  Fe3       1.0  0.4732100574491654  0.9997957115434702  0.33342000528929117  1.0000
  H   H1        1.0  0.015307815428663175  0.12626840420600158  0.5792103690562911  1.0000
  H   H2        1.0  0.8736710880459028  0.8891348431535633  0.9126397646282385  1.0000
  H   H3        1.0  0.11034082995012537  0.9858065714301816  0.2465038168118383  1.0000
  H   H4        1.0  0.1265243483763427  0.015598525160221775  0.420825373218932  1.0000
  H   H5        1.0  0.8895486233782676  0.875315058157156  0.086579476560722  1.0000
  H   H6        1.0  0.9846734880831037  0.11079381632177396  0.7543059101992283  1.0000
  H   H7        1.0  0.7929082149724779  0.927294622890436  0.4162644733430199  1.0000
  H   H8        1.0  0.07256456606917534  0.8659292418276581  0.7496866064659713  1.0000
  H   H9        1.0  0.1341033516635193  0.2054651534537797  0.082200724535852  1.0000
  H   H10       1.0  0.9275620377095846  0.793338348780196  0.5837178626797765  1.0000
  H   H11       1.0  0.8661016713170399  0.07128813212047182  0.2509554434953358  1.0000
  H   H12       1.0  0.20715606398945138  0.134454828876585  0.9172387912989279  1.0000
  H   H13       1.0  0.3656513550871452  0.08854314528868194  0.6198186419970355  1.0000
  H   H14       1.0  0.911352676609148  0.2770170602854731  0.9529909919669494  1.0000
  H   H15       1.0  0.7225801529213455  0.6343447209206233  0.2862195007595574  1.0000
  H   H16       1.0  0.0884961370704715  0.36565263909756135  0.3801269793811811  1.0000
  H   H17       1.0  0.27714474474734624  0.9114579044937442  0.0471325108650831  1.0000
  H   H18       1.0  0.6343908157966851  0.7227448047013497  0.7136834356518449  1.0000
  H   H19       1.0  0.36543228647764886  0.30064832317914636  0.6266142187869335  1.0000
  H   H20       1.0  0.6992439684313965  0.06470939529179993  0.9596954295016432  1.0000
  H   H21       1.0  0.9348818164533056  0.6345615431750246  0.2930354617448714  1.0000
  H   H22       1.0  0.30057684393398176  0.36540987554654686  0.3733882200783754  1.0000
  H   H23       1.0  0.06490445739519406  0.6993017454632025  0.04041612336150279  1.0000
  H   H24       1.0  0.6346711849080007  0.9351040032305845  0.7068210847543952  1.0000
  H   H25       1.0  0.5315333863164399  0.2736356016213151  0.6960469335964916  1.0000
  H   H26       1.0  0.7263171644519275  0.2577662190023347  0.029205536735631196  1.0000
  H   H27       1.0  0.741882979641595  0.4686610286220798  0.36258429164687556  1.0000
  H   H28       1.0  0.2735488721987238  0.531440738417082  0.3039187070137999  1.0000
  H   H29       1.0  0.2578595609584439  0.7264394055556878  0.9708198155465836  1.0000
  H   H30       1.0  0.4685544243710708  0.7419447250806924  0.6374006097816078  1.0000
  H   H31       1.0  0.5054455769191151  0.29020557829456095  0.461482479242285  1.0000
  H   H32       1.0  0.709772688599102  0.21552179000266847  0.7946200069253706  1.0000
  H   H33       1.0  0.7840225454361658  0.4939853188457945  0.1279951280815226  1.0000
  H   H34       1.0  0.290195307724197  0.5055619405325372  0.5384883537394813  1.0000
  H   H35       1.0  0.21603208375376665  0.7099199818173785  0.205419482832923  1.0000
  H   H36       1.0  0.4944828301375566  0.7846248217480749  0.8719681690142878  1.0000
  H   H37       1.0  0.6773284962791878  0.4621740413990735  0.5397827809770419  1.0000
  H   H38       1.0  0.5378227222801468  0.2153229947164731  0.8729209688429408  1.0000
  H   H39       1.0  0.7845031596054783  0.32246425422576414  0.20640162513240057  1.0000
  H   H40       1.0  0.4621133220447149  0.6773916455683207  0.4602104296016023  1.0000
  H   H41       1.0  0.21554259520358707  0.537855232863123  0.1270395768456254  1.0000
  H   H42       1.0  0.322745570675785  0.7848458496247233  0.7936205456338215  1.0000
  C   C1        1.0  0.8991239129497046  0.12981363325160075  0.544900395503312  1.0000
  C   C2        1.0  0.8702819417088181  0.7694724996624203  0.8783241938483215  1.0000
  C   C3        1.0  0.2302763301434538  0.10119524838395925  0.2118307805356423  1.0000
  C   C4        1.0  0.12988007039580646  0.8992766174829114  0.45510412578299503  1.0000
  C   C5        1.0  0.7697252861130435  0.8708876913304805  0.1213136113176816  1.0000
  C   C6        1.0  0.10083342342873892  0.2305982944939799  0.7885709292216488  1.0000
  C   C7        1.0  0.6982666196023715  0.22070900484307998  0.518739211467576  1.0000
  C   C8        1.0  0.7794305680247788  0.47772131697739434  0.8520055762146582  1.0000
  C   C9        1.0  0.5219685258784635  0.3013866783805311  0.1853738653088541  1.0000
  C   C10       1.0  0.22060707580293118  0.6982603267511392  0.48127741648623606  1.0000
  C   C11       1.0  0.4780608705060699  0.7794164719324569  0.147912803991268  1.0000
  C   C12       1.0  0.3017088448519445  0.5223895126093367  0.8146701101588435  1.0000
  C   C13       1.0  0.7906834218104992  0.033152862389570686  0.46313482670632317  1.0000
  C   C14       1.0  0.9668676093111727  0.7577613480785172  0.7965274182923708  1.0000
  C   C15       1.0  0.24217002556474654  0.20859776628566348  0.1295098112625936  1.0000
  C   C16       1.0  0.03329129708877331  0.7909234835223772  0.5368693968313636  1.0000
  C   C17       1.0  0.7579545029823078  0.9664069872145971  0.2036871371707321  1.0000
  C   C18       1.0  0.20931170167306584  0.24245572086707767  0.8703261425727931  1.0000
  C   C19       1.0  0.454360840441126  0.2389983621435903  0.6241314949004675  1.0000
  C   C20       1.0  0.7609334018148741  0.21529152849593894  0.9572860282285376  1.0000
  C   C21       1.0  0.7843241436167148  0.5456229042232082  0.2906147275084265  1.0000
  C   C22       1.0  0.238929567065199  0.45433942957052403  0.3758392041629222  1.0000
  C   C23       1.0  0.21547430360215716  0.7610280435081478  0.0427729835165138  1.0000
  C   C24       1.0  0.5457012845072311  0.7845324725395527  0.7093283971626789  1.0000
  C   C25       1.0  0.5853067457023329  0.31201157077761366  0.5321272621654742  1.0000
  C   C26       1.0  0.687970717726692  0.2734264543251967  0.8653140704176677  1.0000
  C   C27       1.0  0.726197660091067  0.4143521433742236  0.1987117748116631  1.0000
  C   C28       1.0  0.31197448301825387  0.585373306187499  0.46785281367751  1.0000
  C   C29       1.0  0.2737991533954585  0.6880682874897274  0.1346746452276903  1.0000
  C   C30       1.0  0.4147113485152829  0.7266574759188273  0.8012869350814071  1.0000
  N   N1        1.0  0.8404565876599648  0.24835909148453783  0.5802756159481177  1.0000
  N   N2        1.0  0.7518896499884207  0.5922228027478837  0.9136236960496616  1.0000
  N   N3        1.0  0.4073296776475459  0.15999005450993306  0.2473230291119393  1.0000
  N   N4        1.0  0.2482288556024841  0.840405821412233  0.4197363119371502  1.0000
  N   N5        1.0  0.592596716855823  0.7526592136806443  0.0858824974850236  1.0000
  N   N6        1.0  0.15949232037517896  0.40777243551421083  0.7531508555906399  1.0000
  N   N7        1.0  0.6651692062676133  0.0926572911786323  0.4457773543722539  1.0000
  N   N8        1.0  0.9074228940011226  0.5727586521228575  0.7790696228952001  1.0000
  N   N9        1.0  0.4270739262967425  0.3337626819239786  0.11203185425179639  1.0000
  N   N10       1.0  0.09266971970733809  0.665294669301467  0.5542563132686311  1.0000
  N   N11       1.0  0.5730660399396185  0.906692972010717  0.2212493925518544  1.0000
  N   N12       1.0  0.3348327219777546  0.42748746132340193  0.8876296365445028  1.0000
