data_image0
_chemical_formula_structural       H24Pb2C34N6O10F2
_chemical_formula_sum              "H24 Pb2 C34 N6 O10 F2"
_cell_length_a       6.5490979613555895
_cell_length_b       8.356859868753011
_cell_length_c       16.07432669215481
_cell_angle_alpha    84.72984207026956
_cell_angle_beta     84.59199857925155
_cell_angle_gamma    83.21421841461863

_space_group_name_H-M_alt    "P 1"
_space_group_IT_number       1

loop_
  _space_group_symop_operation_xyz
  'x, y, z'

loop_
  _atom_site_type_symbol
  _atom_site_label
  _atom_site_symmetry_multiplicity
  _atom_site_fract_x
  _atom_site_fract_y
  _atom_site_fract_z
  _atom_site_occupancy
  H   H1        1.0  0.32618246851176746  0.2988474412074922  0.05592453158327968  1.0000
  H   H2        1.0  0.6737613997275533  0.7010889557579106  0.9441012894451575  1.0000
  H   H3        1.0  0.1851671348262656  0.0351447451732767  0.055037995426239696  1.0000
  H   H4        1.0  0.8147850380977247  0.964775947786741  0.9449963569009512  1.0000
  H   H5        1.0  0.3533583477982348  0.792382679151615  0.13887398514026467  1.0000
  H   H6        1.0  0.6466962770381243  0.20754016135276032  0.8611351656136816  1.0000
  H   H7        1.0  0.6612822515049571  0.8237409733170723  0.21316828804661003  1.0000
  H   H8        1.0  0.33878588417664446  0.17625068580674957  0.7868201988552668  1.0000
  H   H9        1.0  0.9005034549288953  0.8600936538405508  0.2739319199996685  1.0000
  H   H10       1.0  0.09951272510723193  0.13990785633625083  0.7260823509690154  1.0000
  H   H11       1.0  0.20051302735394935  0.9229224297492494  0.34396802468170046  1.0000
  H   H12       1.0  0.7994382922288994  0.07710468091752183  0.6560748719908316  1.0000
  H   H13       1.0  0.3046721275206395  0.20725374083472306  0.32324942391456796  1.0000
  H   H14       1.0  0.6953652863309757  0.7927270410893641  0.6767227337961045  1.0000
  H   H15       1.0  0.09491647105753033  0.4154311505012346  0.23752594996633283  1.0000
  H   H16       1.0  0.9050528498913197  0.5845764854475065  0.7624867170780403  1.0000
  H   H17       1.0  0.7079629132667408  0.7289378447857899  0.41468302663403006  1.0000
  H   H18       1.0  0.2920378895664584  0.27110831889721254  0.5852985595132196  1.0000
  H   H19       1.0  0.17471484736695694  0.8081152124750588  0.5905504696348344  1.0000
  H   H20       1.0  0.8252981677542123  0.1919648050636411  0.4094389537288662  1.0000
  H   H21       1.0  0.9738566572044436  0.6581697533143825  0.5047389226405483  1.0000
  H   H22       1.0  0.0261406826316062  0.3419127085060225  0.4952497412859812  1.0000
  H   H23       1.0  0.14288423622316065  0.543842177405672  0.3733490608114849  1.0000
  H   H24       1.0  0.8571022959964696  0.4562185559153421  0.6266435643835065  1.0000
  Pb  Pb1       1.0  0.6837986857700997  0.4807601690497805  0.13316860494536795  1.0000
  Pb  Pb2       1.0  0.3161912758413978  0.5191978830602435  0.8668506553240078  1.0000
  C   C1        1.0  0.3966343422096799  0.190322103404057  0.08960939249695339  1.0000
  C   C2        1.0  0.6033540459608915  0.8096250000970003  0.9103880647881011  1.0000
  C   C3        1.0  0.31871763934135094  0.04239293971852481  0.08947524392375066  1.0000
  C   C4        1.0  0.6812757859343891  0.9575288243627185  0.9105400486037423  1.0000
  C   C5        1.0  0.4135839235441665  0.909127823533595  0.13527713147664133  1.0000
  C   C6        1.0  0.5864706596246165  0.0907840289572874  0.8646989612246258  1.0000
  C   C7        1.0  0.5844943302976235  0.9270250786222718  0.17763569698279713  1.0000
  C   C8        1.0  0.41553871291117167  0.07292068795692332  0.8223476634544082  1.0000
  C   C9        1.0  0.6547537585162004  0.07928753483968622  0.17498935467833115  1.0000
  C   C10       1.0  0.3452612793239993  0.9206776458058884  0.8250055751626417  1.0000
  C   C11       1.0  0.8349214864652978  0.106493968865955  0.21929966047402155  1.0000
  C   C12       1.0  0.16507931322294675  0.893496629932315  0.7806964479512642  1.0000
  C   C13       1.0  0.9448321623234932  0.9825950046624783  0.2673993806977605  1.0000
  C   C14       1.0  0.0551417270873813  0.0174017494703023  0.7326155059191137  1.0000
  C   C15       1.0  0.11424725040949112  0.0177962257157915  0.3061220416936122  1.0000
  C   C16       1.0  0.8857930670251265  0.9821857875802209  0.6938586538746063  1.0000
  C   C17       1.0  0.17223560418287326  0.1740872110150562  0.29555586346128837  1.0000
  C   C18       1.0  0.8277455882368159  0.8259010653776003  0.7044585320712853  1.0000
  C   C19       1.0  0.05563085880034892  0.2914323712711706  0.2474290090131674  1.0000
  C   C20       1.0  0.9444067606851192  0.708558149137076  0.7525638189803059  1.0000
  C   C21       1.0  0.5412176931409507  0.5628175841210135  0.30741611823720655  1.0000
  C   C22       1.0  0.4588069256957682  0.4372116808042393  0.6925871464158389  1.0000
  C   C23       1.0  0.4361360440614064  0.6270463021345949  0.38679131803725386  1.0000
  C   C24       1.0  0.5638640950349512  0.3730047403841469  0.6132031207481745  1.0000
  C   C25       1.0  0.5478911727952394  0.7122132741834762  0.4346135713030462  1.0000
  C   C26       1.0  0.45210763108909197  0.2878474087468704  0.5653704963249168  1.0000
  C   C27       1.0  0.4497726369076247  0.7743055559951699  0.5067081904902293  1.0000
  C   C28       1.0  0.5502414745295782  0.22574422200275276  0.49327706216669726  1.0000
  C   C29       1.0  0.24508519443211443  0.756960930827418  0.5334205143753364  1.0000
  C   C30       1.0  0.7549190802802386  0.24310458653697256  0.4665662180362347  1.0000
  C   C31       1.0  0.1347150371412482  0.6728928069802295  0.484865025298454  1.0000
  C   C32       1.0  0.8652886392911868  0.32719929433615386  0.5151173268543445  1.0000
  C   C33       1.0  0.22888967506111876  0.6078505116861026  0.41197891112921775  1.0000
  C   C34       1.0  0.7711030269868075  0.39222106820406566  0.5880067279048402  1.0000
  N   N1        1.0  0.558945336998498  0.2081686290979547  0.1315793129473448  1.0000
  N   N2        1.0  0.44102464334146424  0.7917785449348073  0.8684294256695606  1.0000
  N   N3        1.0  0.8911713219023127  0.25809306718254993  0.21112199541090598  1.0000
  N   N4        1.0  0.10880410275082403  0.7419037001104698  0.7888978083320877  1.0000
  N   N5        1.0  0.13012865701798404  0.6406400262592554  0.05266279667323907  1.0000
  N   N6        1.0  0.8698007389193807  0.35935677887506756  0.9473426028869837  1.0000
  O   O1        1.0  0.44028804381152753  0.4797844053270878  0.2657136299034234  1.0000
  O   O2        1.0  0.5597510803987475  0.5202508264159604  0.7342738553342513  1.0000
  O   O3        1.0  0.7227663993482665  0.5976743970455516  0.28373250266218963  1.0000
  O   O4        1.0  0.2772777918175251  0.4022907869944987  0.7162799676624302  1.0000
  O   O5        1.0  0.32068596780980857  0.5862264478395288  0.04235853485261027  1.0000
  O   O6        1.0  0.6792393914211701  0.4137329338687223  0.9576612822309936  1.0000
  O   O7        1.0  0.0297573270479674  0.6785408760125976  0.9884834359149648  1.0000
  O   O8        1.0  0.9702162598207524  0.321469118542268  0.011513399381797688  1.0000
  O   O9        1.0  0.04379222786207042  0.6551526895867852  0.12552251383468155  1.0000
  O   O10       1.0  0.9561581478206095  0.3448477188382172  0.8744875015815622  1.0000
  F   F1        1.0  0.5597870838576001  0.8564507162592251  0.5537254056290306  1.0000
  F   F2        1.0  0.44025570671554703  0.14355792146130852  0.4462650979850053  1.0000
