data_image0
_chemical_formula_structural       Na4H16C12S4O22
_chemical_formula_sum              "Na4 H16 C12 S4 O22"
_cell_length_a       7.002789280464123
_cell_length_b       9.225680391871279
_cell_length_c       10.475983101155489
_cell_angle_alpha    68.46482091116845
_cell_angle_beta     76.89291198612031
_cell_angle_gamma    67.81455148053496

_space_group_name_H-M_alt    "P 1"
_space_group_IT_number       1

loop_
  _space_group_symop_operation_xyz
  'x, y, z'

loop_
  _atom_site_type_symbol
  _atom_site_label
  _atom_site_symmetry_multiplicity
  _atom_site_fract_x
  _atom_site_fract_y
  _atom_site_fract_z
  _atom_site_occupancy
  Na  Na1       1.0  0.7825910903963161  0.0484055746728274  0.326770345506695  1.0000
  Na  Na2       1.0  0.2174066427923335  0.9515937496707422  0.6732311470140575  1.0000
  Na  Na3       1.0  0.6042939185471712  0.7785318133192972  0.2328454996995789  1.0000
  Na  Na4       1.0  0.39570919220960116  0.22146871135384313  0.7671538199685701  1.0000
  H   H1        1.0  0.1400098934794939  0.43825860332218264  0.34157391698480677  1.0000
  H   H2        1.0  0.8599907794573055  0.561740702764105  0.6584271264264603  1.0000
  H   H3        1.0  0.2382234361117526  0.10367847069882428  0.07801812352937533  1.0000
  H   H4        1.0  0.7617742879695796  0.896320858402433  0.9219824142881169  1.0000
  H   H5        1.0  0.28501895101327784  0.5832337511225206  0.7473818507363108  1.0000
  H   H6        1.0  0.7149831826902754  0.4167655505928067  0.25261801341694934  1.0000
  H   H7        1.0  0.25997527709637325  0.8192998661963882  0.9500470210389979  1.0000
  H   H8        1.0  0.7400278331415747  0.1806969761037251  0.049952528271731494  1.0000
  H   H9        1.0  0.5840236430056506  0.3047432498919277  0.46014127358073875  1.0000
  H   H10       1.0  0.41597455620070894  0.69525853901127  0.5398574451180169  1.0000
  H   H11       1.0  0.8269872979683865  0.2478960936218613  0.46280355177955107  1.0000
  H   H12       1.0  0.17301234379008426  0.7521057004257442  0.5371920782546697  1.0000
  H   H13       1.0  0.7130795057067658  0.5229754617532623  0.5321175984126613  1.0000
  H   H14       1.0  0.2869255859595866  0.47702381218942236  0.4678837260376343  1.0000
  H   H15       1.0  0.7236845334451087  0.7037676448250423  0.49165087921067413  1.0000
  H   H16       1.0  0.27631661461672496  0.2962341210631863  0.5083483450818563  1.0000
  C   C1        1.0  0.1894019958322771  0.5938754816384204  0.13648289110322756  1.0000
  C   C2        1.0  0.8105991517107396  0.4061226018767883  0.8635165628318763  1.0000
  C   C3        1.0  0.18048341257506442  0.4462190777040291  0.23377983458739493  1.0000
  C   C4        1.0  0.8195206838234198  0.5537789827962097  0.7662201249414837  1.0000
  C   C5        1.0  0.22087766830870245  0.30846568259163826  0.19478312722510796  1.0000
  C   C6        1.0  0.7791215347540258  0.6915336326232903  0.8052181407409053  1.0000
  C   C7        1.0  0.25354090533587476  0.32109108470132247  0.05421422427594546  1.0000
  C   C8        1.0  0.7464558325849209  0.6789070261998091  0.9457859033233973  1.0000
  C   C9        1.0  0.2630326163603271  0.4710039956181191  0.9536124433507922  1.0000
  C   C10       1.0  0.7369636378469264  0.5289953426117789  0.04638831902144603  1.0000
  C   C11       1.0  0.23736952827371732  0.6069834126177653  0.9953824108970651  1.0000
  C   C12       1.0  0.762631153770414  0.39301588871083487  0.004619587217462113  1.0000
  S   S1        1.0  0.14677937456255555  0.7577594109205137  0.2003843525335753  1.0000
  S   S2        1.0  0.853218368252243  0.24224359103838827  0.7996178650478711  1.0000
  S   S3        1.0  0.2498287527246461  0.11749643167716071  0.324665662945371  1.0000
  S   S4        1.0  0.750170934570441  0.8825053385820212  0.675334740605166  1.0000
  O   O1        1.0  0.28063245494293193  0.19467229445871226  0.007090672921421508  1.0000
  O   O2        1.0  0.7193647495143835  0.8053319633750603  0.992906451213344  1.0000
  O   O3        1.0  0.3033785114618439  0.4723246576636696  0.8203085198460871  1.0000
  O   O4        1.0  0.6966197145476656  0.5276734345934527  0.17969329260503036  1.0000
  O   O5        1.0  0.2587084315692606  0.7472797655373925  0.8979715422276159  1.0000
  O   O6        1.0  0.7412976366314863  0.25271704899007824  0.10202946738014164  1.0000
  O   O7        1.0  0.9217742502272442  0.8408923387395574  0.21679017642430407  1.0000
  O   O8        1.0  0.07822545528249238  0.1591094220042564  0.7832121365327539  1.0000
  O   O9        1.0  0.23914127268015753  0.6821862804151593  0.3323139660067157  1.0000
  O   O10       1.0  0.7608598389523917  0.31781550450380536  0.6676814394727589  1.0000
  O   O11       1.0  0.2574960020411864  0.8648658824290295  0.0929233558592131  1.0000
  O   O12       1.0  0.7424997229159159  0.13513470691805196  0.9070732677696116  1.0000
  O   O13       1.0  0.18441334299092915  0.15631814929263746  0.45611079680595884  1.0000
  O   O14       1.0  0.8155873208385527  0.8436811615513307  0.5438892919020404  1.0000
  O   O15       1.0  0.4710372579175512  0.018398187788555696  0.311499402505703  1.0000
  O   O16       1.0  0.5289609407699913  0.9815999187416155  0.6884995458356258  1.0000
  O   O17       1.0  0.11871463085339676  0.042946831618309006  0.2975616206819965  1.0000
  O   O18       1.0  0.8812782181068213  0.9570537426822625  0.7024421349791511  1.0000
  O   O19       1.0  0.7204920388217176  0.27219454332863074  0.4045013154804309  1.0000
  O   O20       1.0  0.2795174442522138  0.7278047127434918  0.5954974258991044  1.0000
  O   O21       1.0  0.6633987453937491  0.6364841871231661  0.4687113963134523  1.0000
  O   O22       1.0  0.33660682191645447  0.36352122899447187  0.5312878793755331  1.0000
