data_image0
_chemical_formula_structural       Sm4H28C32O36
_chemical_formula_sum              "Sm4 H28 C32 O36"
_cell_length_a       8.330827483766143
_cell_length_b       8.728575398163505
_cell_length_c       14.3304408680913
_cell_angle_alpha    90.00032399098635
_cell_angle_beta     89.99968070238624
_cell_angle_gamma    103.6358572193902

_space_group_name_H-M_alt    "P 1"
_space_group_IT_number       1

loop_
  _space_group_symop_operation_xyz
  'x, y, z'

loop_
  _atom_site_type_symbol
  _atom_site_label
  _atom_site_symmetry_multiplicity
  _atom_site_fract_x
  _atom_site_fract_y
  _atom_site_fract_z
  _atom_site_occupancy
  Sm  Sm1       1.0  0.6340037372826404  0.5940574441643136  0.31271542752241993  1.0000
  Sm  Sm2       1.0  0.36599559468583465  0.9059437480950975  0.8127163688613732  1.0000
  Sm  Sm3       1.0  0.36599396419845925  0.40594216180169695  0.6872846141401965  1.0000
  Sm  Sm4       1.0  0.6340042223749197  0.09405468701181259  0.18728437061103875  1.0000
  H   H1        1.0  0.08040515269777161  0.11232209682868438  0.2934592832485521  1.0000
  H   H2        1.0  0.9195949041376896  0.3876767398308871  0.7934597630280604  1.0000
  H   H3        1.0  0.919593463026267  0.887676334259126  0.7065393627800772  1.0000
  H   H4        1.0  0.0804052000410778  0.6123228741496262  0.20653818518496078  1.0000
  H   H5        1.0  0.17829086248085704  0.4635319389085595  0.3473910781310536  1.0000
  H   H6        1.0  0.8217114678599773  0.03646849150335639  0.8473934563203328  1.0000
  H   H7        1.0  0.8217107301526385  0.5364688579646567  0.6526061722663599  1.0000
  H   H8        1.0  0.17828892342333805  0.9635323013639266  0.1526051897094902  1.0000
  H   H9        1.0  0.5624559550033867  0.12735694296051753  0.4249436663090904  1.0000
  H   H10       1.0  0.4375427998420563  0.37264170667003066  0.9249421675728156  1.0000
  H   H11       1.0  0.43754203358496113  0.8726438418896265  0.5750563753550892  1.0000
  H   H12       1.0  0.5624558158819825  0.6273567244177797  0.07505647845581359  1.0000
  H   H13       1.0  0.1364189568571064  0.9351603033276632  0.5486886266519662  1.0000
  H   H14       1.0  0.8635805845889026  0.5648412469660683  0.048688236202615094  1.0000
  H   H15       1.0  0.8635814344235231  0.06484048954224873  0.4513107171930954  1.0000
  H   H16       1.0  0.13642072092658006  0.43515837103354477  0.951311805454182  1.0000
  H   H17       1.0  0.6432612413171129  0.4138405387208479  0.497904101078447  1.0000
  H   H18       1.0  0.3567381517070772  0.08615866530873012  0.9979039705950681  1.0000
  H   H19       1.0  0.3567400642010626  0.5861590792761292  0.5020952427631116  1.0000
  H   H20       1.0  0.6432592626748602  0.9138397617652528  0.0020939776202694997  1.0000
  H   H21       1.0  0.64227269356568  0.5827436326514855  0.5303660607014393  1.0000
  H   H22       1.0  0.3577255008520127  0.9172565965320916  0.030366430578091293  1.0000
  H   H23       1.0  0.35772500791811984  0.4172559733118959  0.4696332831459387  1.0000
  H   H24       1.0  0.6422748904286096  0.08274419633782061  0.9696329132669702  1.0000
  H   H25       1.0  0.992446616344985  0.5981888119749925  0.40293259458552194  1.0000
  H   H26       1.0  0.007552646386123683  0.9018107070944624  0.9029353812415906  1.0000
  H   H27       1.0  0.007553774938337193  0.4018119808922833  0.5970660514443081  1.0000
  H   H28       1.0  0.9924468306623384  0.09819126064311941  0.09706256697650419  1.0000
  C   C1        1.0  0.3415853828436255  0.23857616430892392  0.315085767348144  1.0000
  C   C2        1.0  0.6584142199570453  0.2614216566064798  0.8150859608030032  1.0000
  C   C3        1.0  0.6584114044053139  0.7614246165247494  0.6849128786874985  1.0000
  C   C4        1.0  0.3415906895874343  0.7385779734319939  0.18491547647844436  1.0000
  C   C5        1.0  0.15983487400399812  0.22537021651875477  0.3136959911772763  1.0000
  C   C6        1.0  0.840165940870847  0.27462759792192065  0.8136956410650811  1.0000
  C   C7        1.0  0.840164028827289  0.7746293934531963  0.6863026548529234  1.0000
  C   C8        1.0  0.15983416330792014  0.7253720160585929  0.1863023071479404  1.0000
  C   C9        1.0  0.09602231448153024  0.35018340554197647  0.330471090109782  1.0000
  C   C10       1.0  0.903978658007354  0.14981571433784066  0.8304735922067223  1.0000
  C   C11       1.0  0.9039768754650768  0.6498173833062069  0.6695254624762725  1.0000
  C   C12       1.0  0.09602053192578815  0.8501850745235018  0.16952644945551748  1.0000
  C   C13       1.0  0.9172277907435813  0.3466599364257803  0.3233457574851428  1.0000
  C   C14       1.0  0.08277409805243251  0.1533426663686583  0.8233516311286805  1.0000
  C   C15       1.0  0.08277139919763953  0.6533408524276682  0.6766521907313816  1.0000
  C   C16       1.0  0.9172280687686228  0.8466604882991433  0.1766525974242441  1.0000
  C   C17       1.0  0.5348858340395851  0.8755678630651006  0.39430811978601105  1.0000
  C   C18       1.0  0.4651168121844621  0.6244304240983993  0.8943119568043797  1.0000
  C   C19       1.0  0.4651134088174517  0.12442821426301261  0.6056898284223138  1.0000
  C   C20       1.0  0.5348820906252743  0.37556918589460514  0.10569227174772067  1.0000
  C   C21       1.0  0.524095841335438  0.0099240871003659  0.4553040715235709  1.0000
  C   C22       1.0  0.4759035404873517  0.4900783282097052  0.9553028530835732  1.0000
  C   C23       1.0  0.4759009459054227  0.9900766937412088  0.544696667957794  1.0000
  C   C24       1.0  0.5240995405874076  0.5099236515693734  0.04469718857441049  1.0000
  C   C25       1.0  0.9738555726689669  0.8016712259554454  0.4396492218100575  1.0000
  C   C26       1.0  0.026147297804229194  0.6983297610009558  0.9396505492873715  1.0000
  C   C27       1.0  0.026146934196695813  0.19832839605010125  0.5603494242143228  1.0000
  C   C28       1.0  0.9738572717198724  0.30167340167609075  0.0603501901854742  1.0000
  C   C29       1.0  0.03529615684706762  0.9383868842774065  0.5010845383862161  1.0000
  C   C30       1.0  0.9647058676141856  0.5616131360587318  0.0010866003275254  1.0000
  C   C31       1.0  0.9647027459896055  0.06161272568927959  0.49891271201350657  1.0000
  C   C32       1.0  0.035300817486877585  0.4383888557618434  0.9989155347703542  1.0000
  O   O1        1.0  0.43411539909089925  0.3563197380824761  0.3578779440632474  1.0000
  O   O2        1.0  0.5658835333730535  0.14368193829297837  0.8578815208092152  1.0000
  O   O3        1.0  0.5658808139435508  0.6436786849829375  0.6421207019692687  1.0000
  O   O4        1.0  0.4341189205525496  0.8563223952615929  0.1421234055605041  1.0000
  O   O5        1.0  0.6819162562529968  0.5250420194669302  0.47918882533685536  1.0000
  O   O6        1.0  0.31808213077370345  0.9749568959603042  0.9791908575714956  1.0000
  O   O7        1.0  0.31808173234342974  0.47495876537531967  0.5208091228816158  1.0000
  O   O8        1.0  0.6819188876345309  0.025041543155168704  0.020809184083738295  1.0000
  O   O9        1.0  0.39360714626878496  0.1319613318318247  0.2730923740009672  1.0000
  O   O10       1.0  0.6063922064691952  0.3680338145185118  0.7730882186961451  1.0000
  O   O11       1.0  0.6063905552123218  0.868038274134186  0.7269076676616493  1.0000
  O   O12       1.0  0.3936054950119114  0.6319657914474986  0.2269118229664642  1.0000
  O   O13       1.0  0.8796188467873663  0.48007699779793  0.3345843626806441  1.0000
  O   O14       1.0  0.12038444369110121  0.019926872692614908  0.834595935075086  1.0000
  O   O15       1.0  0.1203800560546853  0.5199226121634837  0.6654114920886086  1.0000
  O   O16       1.0  0.8796183502414081  0.9800739282365427  0.1654131781794277  1.0000
  O   O17       1.0  0.8123135316979887  0.21914780413027302  0.3070677717801402  1.0000
  O   O18       1.0  0.18768550584945842  0.28085231006910055  0.8070709534755238  1.0000
  O   O19       1.0  0.1876841697777252  0.7808518018410026  0.6929336655129461  1.0000
  O   O20       1.0  0.8123179152348998  0.7191461370819355  0.19293257725201574  1.0000
  O   O21       1.0  0.4897756226273844  0.7340215341323103  0.42398184420353857  1.0000
  O   O22       1.0  0.5102234776332822  0.7659781437211353  0.9239839292813414  1.0000
  O   O23       1.0  0.5102208775116214  0.2659780678198658  0.5760174996457792  1.0000
  O   O24       1.0  0.4897739367324976  0.23402028336863617  0.0760182058254202  1.0000
  O   O25       1.0  0.5983175098497425  0.9037468341927235  0.3130000296774043  1.0000
  O   O26       1.0  0.40168811375505004  0.5962555591519134  0.8130004861169482  1.0000
  O   O27       1.0  0.40168316853543484  0.0962551375639578  0.6870000119844589  1.0000
  O   O28       1.0  0.5983089605930518  0.4037464005737945  0.18700025336598  1.0000
  O   O29       1.0  0.8552373628140375  0.7966516081840423  0.38605231042900096  1.0000
  O   O30       1.0  0.14476534714804506  0.7033466166876395  0.8860525729316038  1.0000
  O   O31       1.0  0.14476245424940973  0.2033468269202388  0.6139477312281656  1.0000
  O   O32       1.0  0.8552371597095388  0.29665300532580113  0.113948166538492  1.0000
  O   O33       1.0  0.052625864210462225  0.687672447207227  0.4468142895327817  1.0000
  O   O34       1.0  0.9473739740473947  0.8123262280147545  0.946817210916535  1.0000
  O   O35       1.0  0.9473757284230331  0.3123283496659894  0.5531829608646319  1.0000
  O   O36       1.0  0.052626130123293514  0.18767338597366026  0.05318283074220179  1.0000
