data_image0
_chemical_formula_structural       H32Pb4C28S4O20
_chemical_formula_sum              "H32 Pb4 C28 S4 O20"
_cell_length_a       8.285858293011199
_cell_length_b       8.799696834594137
_cell_length_c       13.307046843790463
_cell_angle_alpha    105.2322022301396
_cell_angle_beta     90.00016171153948
_cell_angle_gamma    90.0000504355054

_space_group_name_H-M_alt    "P 1"
_space_group_IT_number       1

loop_
  _space_group_symop_operation_xyz
  'x, y, z'

loop_
  _atom_site_type_symbol
  _atom_site_label
  _atom_site_symmetry_multiplicity
  _atom_site_fract_x
  _atom_site_fract_y
  _atom_site_fract_z
  _atom_site_occupancy
  H   H1        1.0  0.511259988357118  0.374788496759983  0.33940006673837797  1.0000
  H   H2        1.0  0.011260497983194302  0.1252153597196823  0.660599424532265  1.0000
  H   H3        1.0  0.4887405343406855  0.6252144756040465  0.6605993223915476  1.0000
  H   H4        1.0  0.9887400247118947  0.8747864440281887  0.33939900428006814  1.0000
  H   H5        1.0  0.5138186172084788  0.22630339057498358  0.3929491246476005  1.0000
  H   H6        1.0  0.013819021569311501  0.27369694601730277  0.6070489906438752  1.0000
  H   H7        1.0  0.4861806986110296  0.7736984131718996  0.6070493041635032  1.0000
  H   H8        1.0  0.986182707999305  0.7263025022435629  0.3929490172807136  1.0000
  H   H9        1.0  0.9470669329800643  0.08725482053439748  0.10996353495876582  1.0000
  H   H10       1.0  0.4470615080887583  0.412741528239593  0.8900338738404513  1.0000
  H   H11       1.0  0.052931175960125615  0.9127446368513219  0.890033723089019  1.0000
  H   H12       1.0  0.5529353939778757  0.5872543685295994  0.10996500249193991  1.0000
  H   H13       1.0  0.8563871935520383  0.5342605544358535  0.04680188270764063  1.0000
  H   H14       1.0  0.3563905522958848  0.9657389419410691  0.9531982127331204  1.0000
  H   H15       1.0  0.1436036741570916  0.46574114889779844  0.953204794698955  1.0000
  H   H16       1.0  0.6436135910282987  0.0342616658100994  0.0468015053846287  1.0000
  H   H17       1.0  0.8998629498476235  0.6679834287148197  0.23005631632045725  1.0000
  H   H18       1.0  0.39986656062681186  0.8320149433148386  0.7699451572471077  1.0000
  H   H19       1.0  0.10013757286269961  0.332012376778941  0.7699500587466519  1.0000
  H   H20       1.0  0.6001363758217907  0.16798566443533494  0.2300545608694051  1.0000
  H   H21       1.0  0.8026999496334852  0.11236139707484229  0.9370391923705412  1.0000
  H   H22       1.0  0.30269919926570316  0.3876358641328679  0.06296038154268761  1.0000
  H   H23       1.0  0.19729212494171833  0.8876391741550123  0.06296352522728203  1.0000
  H   H24       1.0  0.6973001165473462  0.6123624246376808  0.9370359161887479  1.0000
  H   H25       1.0  0.9918450801875381  0.1828251959081229  0.9092600908868462  1.0000
  H   H26       1.0  0.4918455973793883  0.3171747599014409  0.09073804073764082  1.0000
  H   H27       1.0  0.008148201262571299  0.8171765621945684  0.09074208728360134  1.0000
  H   H28       1.0  0.5081525115638712  0.6828282307162894  0.9092598486436145  1.0000
  H   H29       1.0  0.8168409300360153  0.2970751010921688  0.9078050935698272  1.0000
  H   H30       1.0  0.31684014110948777  0.20292219254904606  0.09219375936154253  1.0000
  H   H31       1.0  0.1831511445347758  0.7029243106493652  0.09219591383730832  1.0000
  H   H32       1.0  0.6831591747130901  0.7970831444298411  0.9078053007830321  1.0000
  Pb  Pb1       1.0  0.762034696534343  0.49992348723369406  0.5105464979022116  1.0000
  Pb  Pb2       1.0  0.2620379347984213  7.726757261390023e-05  0.4894513746465279  1.0000
  Pb  Pb3       1.0  0.23796461928516524  0.500078316513182  0.489451930908885  1.0000
  Pb  Pb4       1.0  0.7379613810224371  0.9999221624305789  0.5105481330217927  1.0000
  C   C1        1.0  0.9638259950301066  0.2912397258546093  0.23933520270898606  1.0000
  C   C2        1.0  0.4638258289194113  0.20875780090472773  0.7606647003996443  1.0000
  C   C3        1.0  0.0361745276754775  0.7087584716385181  0.7606685937546942  1.0000
  C   C4        1.0  0.5361759006515711  0.7912404513564509  0.23933459682665872  1.0000
  C   C5        1.0  0.9386623655140911  0.21520445982483946  0.1341247322308945  1.0000
  C   C6        1.0  0.43865671254373956  0.2847953626902325  0.8658770400957893  1.0000
  C   C7        1.0  0.06133574344001861  0.7847972891539996  0.8658781958175865  1.0000
  C   C8        1.0  0.5613438101540354  0.7152016935702648  0.13412354643099186  1.0000
  C   C9        1.0  0.9005997998695963  0.3001519550477312  0.06219740251770391  1.0000
  C   C10       1.0  0.4005980149804103  0.19984663612361686  0.9378033317301444  1.0000
  C   C11       1.0  0.09939710220826471  0.6998509808019548  0.9378049861009361  1.0000
  C   C12       1.0  0.5994013008390979  0.8001551676232592  0.06219509708095931  1.0000
  C   C13       1.0  0.8882681076093562  0.464115123296807  0.10031771155156832  1.0000
  C   C14       1.0  0.3882708254646658  0.03588111944996089  0.8996803269978457  1.0000
  C   C15       1.0  0.111727587587815  0.535881923831866  0.8996836248433839  1.0000
  C   C16       1.0  0.6117272834751761  0.9641159733199129  0.10031726003406045  1.0000
  C   C17       1.0  0.9148449862118185  0.5408178212014363  0.2044157277063761  1.0000
  C   C18       1.0  0.41484883105576403  0.9591794342876058  0.795582566534158  1.0000
  C   C19       1.0  0.0851519158558389  0.4591792533117598  0.7955833590705056  1.0000
  C   C20       1.0  0.585155312264  0.04082001397524239  0.2044154413928965  1.0000
  C   C21       1.0  0.9546864912478199  0.4576123058890004  0.2781009690258784  1.0000
  C   C22       1.0  0.45468720210520536  0.042387561296287415  0.7218993362998134  1.0000
  C   C23       1.0  0.0453164452068933  0.5423894522216559  0.7219012091544315  1.0000
  C   C24       1.0  0.5453133205888533  0.9576130647075802  0.2780988820680293  1.0000
  C   C25       1.0  0.8763158154563939  0.2194523678044362  0.9488197727436756  1.0000
  C   C26       1.0  0.3763149124651974  0.2805473610893117  0.05118112233522252  1.0000
  C   C27       1.0  0.1236774659998261  0.7805505406587372  0.05118486549056204  1.0000
  C   C28       1.0  0.623684403354986  0.7194532557857228  0.9488178459044931  1.0000
  S   S1        1.0  0.9937144086744141  0.1723684559915952  0.32537199737725336  1.0000
  S   S2        1.0  0.4937175831791194  0.3276267645414563  0.6746275459105036  1.0000
  S   S3        1.0  0.006288527771801  0.8276274316547328  0.6746276288344077  1.0000
  S   S4        1.0  0.5062841463935611  0.6723714785918771  0.32537250118890176  1.0000
  O   O1        1.0  0.15185366534677064  0.21529140203613648  0.3793275633734723  1.0000
  O   O2        1.0  0.651859175200528  0.28470675180026456  0.6206749122907028  1.0000
  O   O3        1.0  0.8481480642214905  0.7847056816088767  0.6206707735352381  1.0000
  O   O4        1.0  0.3481401406128484  0.7152879854825971  0.37932225385345936  1.0000
  O   O5        1.0  0.5094908467157637  0.34510019467501263  0.4063117669951524  1.0000
  O   O6        1.0  0.009492287309242899  0.1549013034017079  0.5936872997729452  1.0000
  O   O7        1.0  0.4905108828559221  0.654902786817864  0.5936868722629001  1.0000
  O   O8        1.0  0.9905106491386918  0.8451004912203146  0.40631187891495574  1.0000
  O   O9        1.0  0.8584250532116684  0.2076125347857811  0.4018554208308061  1.0000
  O   O10       1.0  0.35843146887558663  0.2923848547795059  0.5981412674486677  1.0000
  O   O11       1.0  0.14158150386299442  0.7923892598392187  0.5981437578607968  1.0000
  O   O12       1.0  0.6415702606991405  0.7076157438418277  0.4018592005397182  1.0000
  O   O13       1.0  0.9929007583459608  0.008015738296315104  0.2635953625966394  1.0000
  O   O14       1.0  0.49290798585310813  0.49198187289847095  0.7364016004294669  1.0000
  O   O15       1.0  0.0071009712243466  0.9919837008367052  0.7364033952010516  1.0000
  O   O16       1.0  0.5070973643429113  0.5080163884935303  0.26359694692743574  1.0000
  O   O17       1.0  0.9784959968111266  0.5329985231024992  0.3792290247501313  1.0000
  O   O18       1.0  0.4785002630974446  0.967001156266484  0.6207728199168869  1.0000
  O   O19       1.0  0.021508146526947804  0.4669984601382425  0.6207775607651698  1.0000
  O   O20       1.0  0.521500259597289  0.0329982828655417  0.37922593787957487  1.0000
