data_image0
_chemical_formula_structural       Mn4H64C96N8O16
_chemical_formula_sum              "Mn4 H64 C96 N8 O16"
_cell_length_a       9.712160629613892
_cell_length_b       16.16380033470466
_cell_length_c       19.623386949025203
_cell_angle_alpha    90.00003338774144
_cell_angle_beta     90.00017672365311
_cell_angle_gamma    91.40922892876486

_space_group_name_H-M_alt    "P 1"
_space_group_IT_number       1

loop_
  _space_group_symop_operation_xyz
  'x, y, z'

loop_
  _atom_site_type_symbol
  _atom_site_label
  _atom_site_symmetry_multiplicity
  _atom_site_fract_x
  _atom_site_fract_y
  _atom_site_fract_z
  _atom_site_occupancy
  Mn  Mn1       1.0  0.49997101682176764  0.4999948611368696  0.999996916462464  1.0000
  Mn  Mn2       1.0  0.5000138488225758  1.800601850700499e-06  0.5000047862386194  1.0000
  Mn  Mn3       1.0  7.443623324812457e-06  0.9999964104039735  0.4999957461774968  1.0000
  Mn  Mn4       1.0  0.999982903068485  0.500010863052914  5.712280604099998e-06  1.0000
  H   H1        1.0  0.8199081003070532  0.9287427441251096  0.7047858789794004  1.0000
  H   H2        1.0  0.7565929549516355  0.84000301088237  0.8039323054706455  1.0000
  H   H3        1.0  0.5324333679134199  0.6737468752280549  0.6693314835379025  1.0000
  H   H4        1.0  0.5870417215646171  0.7677014706217661  0.5722178301428185  1.0000
  H   H5        1.0  0.5612424067355734  0.6885520039637711  0.9744093227381255  1.0000
  H   H6        1.0  0.6075194420139313  0.7889321592725124  0.8800449349928311  1.0000
  H   H7        1.0  0.6041822530793227  0.5801553168506717  0.7420243715206708  1.0000
  H   H8        1.0  0.5479997709706552  0.4903934001607552  0.8418684401298221  1.0000
  H   H9        1.0  0.40142062596202527  0.37657304147180065  0.8144194250062496  1.0000
  H   H10       1.0  0.3412185292124618  0.28745627879684577  0.7149813785084118  1.0000
  H   H11       1.0  0.9513574364314294  0.22368020577994943  0.8092754350561362  1.0000
  H   H12       1.0  0.011797856626756704  0.31688309496657757  0.906617269902817  1.0000
  H   H13       1.0  0.262721995095319  0.06588670053908173  0.5822758421949245  1.0000
  H   H14       1.0  0.32157913647120756  0.15453163728087563  0.6818122396111119  1.0000
  H   H15       1.0  0.8905357677004205  0.2120129576898506  0.6955885901497465  1.0000
  H   H16       1.0  0.849757819889156  0.11801298652049041  0.595987996120101  1.0000
  H   H17       1.0  0.18009399190870573  0.57125954442283  0.20478651659781372  1.0000
  H   H18       1.0  0.2434072043737672  0.66000560005498  0.30393154764703917  1.0000
  H   H19       1.0  0.4675583703411306  0.8262574007367292  0.16932960586360923  1.0000
  H   H20       1.0  0.41295021957104444  0.7323002291152535  0.0722178684067813  1.0000
  H   H21       1.0  0.43875891993216243  0.811445605109462  0.4744099432937503  1.0000
  H   H22       1.0  0.3924771190729715  0.7110648132499122  0.38005053887726337  1.0000
  H   H23       1.0  0.39580828917183203  0.9198416156335653  0.2420270119909417  1.0000
  H   H24       1.0  0.4519981262529101  0.009610204576119902  0.3418674229938289  1.0000
  H   H25       1.0  0.5985772018769709  0.12343177640679669  0.31442071584500997  1.0000
  H   H26       1.0  0.6587839679237179  0.21255022621614472  0.2149827981646694  1.0000
  H   H27       1.0  0.04864014921674451  0.276322133015583  0.3092754524394862  1.0000
  H   H28       1.0  0.988204723067206  0.18312235756047102  0.40662019285201007  1.0000
  H   H29       1.0  0.737280164766844  0.43411348510818465  0.08227900358297548  1.0000
  H   H30       1.0  0.6784238645033511  0.3454711104577513  0.18181527441594614  1.0000
  H   H31       1.0  0.1094623347704768  0.2879917394216919  0.19559176179162555  1.0000
  H   H32       1.0  0.1502486985953553  0.3819890020328032  0.09598974059250757  1.0000
  H   H33       1.0  0.18009385601563824  0.071260768107237  0.29521320543164353  1.0000
  H   H34       1.0  0.24340633462225011  0.16000549927117902  0.19606728853548105  1.0000
  H   H35       1.0  0.4675675074134135  0.326256034633218  0.3306696392562997  1.0000
  H   H36       1.0  0.4129633206074034  0.23230199280777702  0.427782273462597  1.0000
  H   H37       1.0  0.43875095395711133  0.31144730793277375  0.0255902712615708  1.0000
  H   H38       1.0  0.392479061747487  0.2110670712841767  0.11995211103059226  1.0000
  H   H39       1.0  0.39582052231251214  0.41984570455528564  0.25797522248648613  1.0000
  H   H40       1.0  0.45199936144073416  0.5096132540734146  0.15813064427976534  1.0000
  H   H41       1.0  0.5985765015991262  0.6234342639366943  0.18557762101785605  1.0000
  H   H42       1.0  0.6587889369022263  0.7125514825756625  0.2850197442917945  1.0000
  H   H43       1.0  0.04863859102784571  0.776314108197866  0.19072925490475254  1.0000
  H   H44       1.0  0.9882018853075608  0.6831185938825612  0.09338283369822158  1.0000
  H   H45       1.0  0.7372815469657753  0.9341112113989778  0.4177201846399682  1.0000
  H   H46       1.0  0.6784256961545907  0.845469351590033  0.31818837358963487  1.0000
  H   H47       1.0  0.10945532621046544  0.787983912182881  0.30440998465566327  1.0000
  H   H48       1.0  0.15025173670971276  0.8819829718928248  0.4040100691030089  1.0000
  H   H49       1.0  0.8199030641562289  0.42873475328588734  0.7952151157876981  1.0000
  H   H50       1.0  0.7565904279380149  0.33999550268926987  0.6960670271642113  1.0000
  H   H51       1.0  0.5324250709017662  0.1737464043146488  0.8306684593414883  1.0000
  H   H52       1.0  0.5870348598020599  0.26769859428222276  0.9277786680104113  1.0000
  H   H53       1.0  0.5612454935947327  0.18855043464326832  0.5255896507135844  1.0000
  H   H54       1.0  0.6075211227649718  0.28893132410975403  0.6199500743174864  1.0000
  H   H55       1.0  0.6041865001129239  0.0801502400515659  0.7579741107963114  1.0000
  H   H56       1.0  0.5480003251215493  0.9903884073408448  0.658129623029424  1.0000
  H   H57       1.0  0.40142557350354485  0.8765692449975901  0.6855753109899608  1.0000
  H   H58       1.0  0.34121906940775665  0.7874538883890664  0.7850183246314157  1.0000
  H   H59       1.0  0.9513619118879436  0.7236826164973138  0.6907261799520297  1.0000
  H   H60       1.0  0.011806490795379399  0.8168810082623564  0.5933794011620035  1.0000
  H   H61       1.0  0.2627161769980119  0.5658845407056886  0.9177205904186961  1.0000
  H   H62       1.0  0.32157767274145505  0.6545274526593303  0.8181894155500088  1.0000
  H   H63       1.0  0.8905417311876819  0.7120123589173418  0.8044129281774202  1.0000
  H   H64       1.0  0.8497489861082316  0.6180127193518316  0.9040103630069819  1.0000
  C   C1        1.0  0.7446600307035212  0.9076337441802736  0.5724457682574522  1.0000
  C   C2        1.0  0.7067412841719474  0.8537171646050722  0.6324893894872473  1.0000
  C   C3        1.0  0.7538633174099305  0.8737823683628887  0.6981095999267593  1.0000
  C   C4        1.0  0.7185118924136448  0.823533939989325  0.753283524253362  1.0000
  C   C5        1.0  0.6411731396284354  0.74951273504427  0.7439175847942534  1.0000
  C   C6        1.0  0.5960990675603312  0.7293420448214434  0.6776506985194499  1.0000
  C   C7        1.0  0.626000392812486  0.7816533909785762  0.6230994968680931  1.0000
  C   C8        1.0  0.5708031316424993  0.6676857560152313  0.9217782479567372  1.0000
  C   C9        1.0  0.5978274953551123  0.7229869351711857  0.8689097308517049  1.0000
  C   C10       1.0  0.6101737610656529  0.6937094688824313  0.8016772014502391  1.0000
  C   C11       1.0  0.5930097261597354  0.6077738600746372  0.7923153815784045  1.0000
  C   C12       1.0  0.5641282997320759  0.5569609843273184  0.8478720172771896  1.0000
  C   C13       1.0  0.24967450066397842  0.4034940212331648  0.9277458285354281  1.0000
  C   C14       1.0  0.21075173387231422  0.3513482147274587  0.8669693276529454  1.0000
  C   C15       1.0  0.3027196531412245  0.34319910465825393  0.8124242750360364  1.0000
  C   C16       1.0  0.2691923444182933  0.29252903067744995  0.7573572924078673  1.0000
  C   C17       1.0  0.1427353829337861  0.24817478281034516  0.7552663151171257  1.0000
  C   C18       1.0  0.0498776614664393  0.2576388484412107  0.8095978466091933  1.0000
  C   C19       1.0  0.0834243398690191  0.3086957837017792  0.8646113217518514  1.0000
  C   C20       1.0  0.18299445258674757  0.09859368568807982  0.6093577602644797  1.0000
  C   C21       1.0  0.21522444516819664  0.14950047136112934  0.6643809167069958  1.0000
  C   C22       1.0  0.1109007415458407  0.19257112985046376  0.6975366934775094  1.0000
  C   C23       1.0  0.9762841141632849  0.18004146129778317  0.6726547884251557  1.0000
  C   C24       1.0  0.9525223622875815  0.1281087143339832  0.6172249805188698  1.0000
  C   C25       1.0  0.2553368977918069  0.59236601849895  0.07244499954644108  1.0000
  C   C26       1.0  0.2932652828329267  0.6462825044656172  0.13248564339619406  1.0000
  C   C27       1.0  0.24614567080461572  0.6262167072393511  0.19810628382134604  1.0000
  C   C28       1.0  0.2814893217407715  0.6764665515553573  0.25328232127854716  1.0000
  C   C29       1.0  0.3588188623442933  0.7504891319545594  0.2439195875944477  1.0000
  C   C30       1.0  0.403898318918678  0.770655335816308  0.17764972031602605  1.0000
  C   C31       1.0  0.374003847841287  0.7183438278122055  0.12309794165804526  1.0000
  C   C32       1.0  0.4292019231456266  0.8323111230624889  0.4217768246249206  1.0000
  C   C33       1.0  0.4021761953664722  0.7770099136820007  0.36890926235625426  1.0000
  C   C34       1.0  0.389825807706636  0.8062923350365879  0.3016802940102749  1.0000
  C   C35       1.0  0.40699260711784296  0.8922247936091026  0.29231700791914506  1.0000
  C   C36       1.0  0.43587269553418656  0.9430420812266077  0.3478737088561558  1.0000
  C   C37       1.0  0.7503183792879115  0.09650479124596252  0.42774580787370536  1.0000
  C   C38       1.0  0.7892542896208783  0.14865218874468408  0.36697295512025346  1.0000
  C   C39       1.0  0.6972831479629635  0.1568037742091022  0.3124282769174583  1.0000
  C   C40       1.0  0.7308068118837313  0.2074713740076034  0.2573598376798074  1.0000
  C   C41       1.0  0.8572595932530974  0.2518250664672692  0.255269069980379  1.0000
  C   C42       1.0  0.9501221406120096  0.24236531402052464  0.30959564147690327  1.0000
  C   C43       1.0  0.91658208774426  0.19130956681252798  0.36461057303664285  1.0000
  C   C44       1.0  0.8170076695515293  0.4014040492144773  0.10935695112435435  1.0000
  C   C45       1.0  0.7847765451292901  0.35050414950239883  0.16438258522062904  1.0000
  C   C46       1.0  0.8891002495862921  0.3074310456124251  0.19754053927404405  1.0000
  C   C47       1.0  0.023715795233023616  0.31996194582870885  0.17265325807179002  1.0000
  C   C48       1.0  0.0474792002420727  0.37189399287154146  0.11722197937604045  1.0000
  C   C49       1.0  0.2553372872929743  0.09236364672657522  0.427554844936864  1.0000
  C   C50       1.0  0.29326550091712994  0.14628255445180122  0.3675132620988108  1.0000
  C   C51       1.0  0.2461414104435704  0.12621738322881274  0.301891522869674  1.0000
  C   C52       1.0  0.2814911449194497  0.1764701746161066  0.24671810813875786  1.0000
  C   C53       1.0  0.3588237783945872  0.250492095806699  0.2560825188053285  1.0000
  C   C54       1.0  0.4039036554558635  0.27065835794636667  0.3223524626597153  1.0000
  C   C55       1.0  0.3740051541117709  0.2183438697869562  0.3769026451204737  1.0000
  C   C56       1.0  0.4291923386711005  0.3323141419859752  0.07822236523671927  1.0000
  C   C57       1.0  0.40217296087281806  0.2770110255719088  0.13109037274907817  1.0000
  C   C58       1.0  0.3898302524861492  0.30629401081419155  0.19832137336632624  1.0000
  C   C59       1.0  0.4069940254588857  0.39222652642362726  0.20768370283332863  1.0000
  C   C60       1.0  0.4358727327556338  0.44304378145310613  0.15212910551753103  1.0000
  C   C61       1.0  0.7503123740131487  0.5965016764313519  0.07225325586257719  1.0000
  C   C62       1.0  0.7892395695847868  0.6486511297039144  0.13302873755713304  1.0000
  C   C63       1.0  0.6972780839444682  0.6568032353654303  0.18757429977555518  1.0000
  C   C64       1.0  0.7308064736648775  0.7074739117175284  0.2426397536165935  1.0000
  C   C65       1.0  0.8572691877475197  0.7518231128606346  0.24473124050661701  1.0000
  C   C66       1.0  0.9501205279796924  0.7423566702780705  0.19040123779730314  1.0000
  C   C67       1.0  0.916572001890991  0.6913022421114192  0.13538674346173707  1.0000
  C   C68       1.0  0.8170122801040521  0.9014054147275062  0.3906413241492216  1.0000
  C   C69       1.0  0.7847802302886394  0.850498661589512  0.33561714851311547  1.0000
  C   C70       1.0  0.8890997670609622  0.8074274495312251  0.30246086214331297  1.0000
  C   C71       1.0  0.02371428482906169  0.8199565319801393  0.3273437863860024  1.0000
  C   C72       1.0  0.047483132238404814  0.8718879277902687  0.3827735942973545  1.0000
  C   C73       1.0  0.7446618679141038  0.407636305257661  0.9275551040539933  1.0000
  C   C74       1.0  0.7067364639419226  0.3537185332078677  0.8675134410141678  1.0000
  C   C75       1.0  0.7538527805730766  0.3737819046780614  0.8018917813939621  1.0000
  C   C76       1.0  0.718508867706973  0.32352896716415097  0.7467172727239768  1.0000
  C   C77       1.0  0.6411791699458151  0.24950453084625224  0.756081025599613  1.0000
  C   C78       1.0  0.596096018008879  0.2293433411736743  0.8223519120683701  1.0000
  C   C79       1.0  0.6259899319438276  0.28166043320161555  0.8769006331509743  1.0000
  C   C80       1.0  0.5708055762273574  0.16768486788699727  0.5782227693847232  1.0000
  C   C81       1.0  0.5978272943189752  0.22298737961791207  0.6310903316506395  1.0000
  C   C82       1.0  0.6101724341313073  0.19370380232308554  0.6983203191844678  1.0000
  C   C83       1.0  0.5930057918825896  0.1077731996699427  0.707684114872144  1.0000
  C   C84       1.0  0.564126784473423  0.05695651442507448  0.6521289427241539  1.0000
  C   C85       1.0  0.2496842389446599  0.9034943742410705  0.5722542957289602  1.0000
  C   C86       1.0  0.2107532621423047  0.8513444208449669  0.6330276580816159  1.0000
  C   C87       1.0  0.3027207084328083  0.8431978495690445  0.687571826686664  1.0000
  C   C88       1.0  0.26919725406149553  0.7925327243296322  0.7426407755210247  1.0000
  C   C89       1.0  0.14274210113802613  0.748175352566946  0.7447310336218604  1.0000
  C   C90       1.0  0.04987889187246709  0.757639451759452  0.6904044621257625  1.0000
  C   C91       1.0  0.083420844808451  0.8086933105125809  0.6353890209710327  1.0000
  C   C92       1.0  0.18298964844173327  0.5985933416919237  0.8906426428779138  1.0000
  C   C93       1.0  0.2152242778121973  0.649498141719384  0.83561904716943  1.0000
  C   C94       1.0  0.11090247342181672  0.6925693571542623  0.8024600739249974  1.0000
  C   C95       1.0  0.9762850800921898  0.6800409640323366  0.8273473551263845  1.0000
  C   C96       1.0  0.9525227036985058  0.6281089007217558  0.8827786338229086  1.0000
  N   N1        1.0  0.5536308905862697  0.5857644308382675  0.9118966409894325  1.0000
  N   N2        1.0  0.0539113855825306  0.08791250891905379  0.5853969651432677  1.0000
  N   N3        1.0  0.4463722014505366  0.9142343280066855  0.41190088407870445  1.0000
  N   N4        1.0  0.9460856510026548  0.4120877608111329  0.08539890315754657  1.0000
  N   N5        1.0  0.4463688513415818  0.4142372580099831  0.08810142422750288  1.0000
  N   N6        1.0  0.9460994091811515  0.9120859077856025  0.41460160967732657  1.0000
  N   N7        1.0  0.5536321596910129  0.08576109310654799  0.5880992195244799  1.0000
  N   N8        1.0  0.05390739536827032  0.5879078392471159  0.9146006908411193  1.0000
  O   O1        1.0  0.8630498409363342  0.9424004554082259  0.5745515157049039  1.0000
  O   O2        1.0  0.6567999726397461  0.9127852748737978  0.5245487726686306  1.0000
  O   O3        1.0  0.37393080984865884  0.431469642522984  0.9294250470821123  1.0000
  O   O4        1.0  0.15987621572791264  0.415176331361657  0.9735711859463761  1.0000
  O   O5        1.0  0.1369511105860113  0.5575980067693751  0.07454392890980437  1.0000
  O   O6        1.0  0.3432060142618525  0.5872155365548863  0.024549153423130594  1.0000
  O   O7        1.0  0.6260640332173963  0.0685279016182818  0.429425846329657  1.0000
  O   O8        1.0  0.840126474457506  0.08482546820463449  0.47356976690501523  1.0000
  O   O9        1.0  0.1369578156136981  0.05759739146265021  0.42545317426551316  1.0000
  O   O10       1.0  0.3432071791612756  0.08721877466153669  0.4754548981106834  1.0000
  O   O11       1.0  0.6260620793436119  0.5685241016136545  0.07056894135975969  1.0000
  O   O12       1.0  0.8401270644258645  0.5848184873816322  0.026433504020097597  1.0000
  O   O13       1.0  0.8630456502793677  0.44240496816289715  0.925457193881314  1.0000
  O   O14       1.0  0.6567832843498635  0.4127844590514726  0.9754484021895419  1.0000
  O   O15       1.0  0.37393868979394546  0.9314725011488606  0.5705757860614324  1.0000
  O   O16       1.0  0.1598671481845173  0.9151769368925146  0.5264344134597677  1.0000
