data_image0
_chemical_formula_structural       Co2H32C40N12O8
_chemical_formula_sum              "Co2 H32 C40 N12 O8"
_cell_length_a       8.927118888079102
_cell_length_b       9.999111490067696
_cell_length_c       12.561050599068146
_cell_angle_alpha    103.43934033079853
_cell_angle_beta     109.09664653999523
_cell_angle_gamma    103.6514107805597

_space_group_name_H-M_alt    "P 1"
_space_group_IT_number       1

loop_
  _space_group_symop_operation_xyz
  'x, y, z'

loop_
  _atom_site_type_symbol
  _atom_site_label
  _atom_site_symmetry_multiplicity
  _atom_site_fract_x
  _atom_site_fract_y
  _atom_site_fract_z
  _atom_site_occupancy
  Co  Co1       1.0  0.6508840106595173  0.35987461650834257  0.5167726440922635  1.0000
  Co  Co2       1.0  0.34912183020821175  0.6401301240669709  0.48322930283390503  1.0000
  H   H1        1.0  0.12211521062199175  0.44461290726754027  0.1975736269144902  1.0000
  H   H2        1.0  0.8778835116704542  0.5553765133560588  0.8024222971092171  1.0000
  H   H3        1.0  0.24023132111633314  0.2778348448796065  0.09640717963646486  1.0000
  H   H4        1.0  0.7597594060849955  0.7221523390533449  0.9035833129480718  1.0000
  H   H5        1.0  0.048997641866712606  0.0735029171725188  0.9055813969530533  1.0000
  H   H6        1.0  0.9509843714439159  0.9264831569893984  0.09440927719582254  1.0000
  H   H7        1.0  0.7467282790778144  0.04012636697993339  0.8177039617609975  1.0000
  H   H8        1.0  0.2532587456738042  0.9598695668377815  0.18229205118353053  1.0000
  H   H9        1.0  0.5043022213921091  0.08339765613489898  0.8488396223838989  1.0000
  H   H10       1.0  0.49569124982333773  0.9166026747359548  0.15115947126063375  1.0000
  H   H11       1.0  0.521980313513737  0.24329629475207068  0.9552978845917008  1.0000
  H   H12       1.0  0.47801755185607664  0.756706225628484  0.044701026791685104  1.0000
  H   H13       1.0  0.9104896323749044  0.5456242843480651  0.18986038667497238  1.0000
  H   H14       1.0  0.0895140138783503  0.4543717156856886  0.8101394618380766  1.0000
  H   H15       1.0  0.7063262799747605  0.4703386220580724  0.07027563014536749  1.0000
  H   H16       1.0  0.2936762730396153  0.5296606589902451  0.9297261573369439  1.0000
  H   H17       1.0  0.5358660944706273  0.5473616213098751  0.722467996190346  1.0000
  H   H18       1.0  0.46413252888516604  0.45263980514285845  0.2775300939822998  1.0000
  H   H19       1.0  0.5876795579572375  0.13363860231007146  0.6631426974176263  1.0000
  H   H20       1.0  0.4123202787729383  0.8663628508669133  0.33685886125272185  1.0000
  H   H21       1.0  0.485670042616576  0.14736561248627572  0.2523529489698646  1.0000
  H   H22       1.0  0.5143305651617139  0.8526347577601425  0.747649385754002  1.0000
  H   H23       1.0  0.9019614429728975  0.5341438270558854  0.38504987863784373  1.0000
  H   H24       1.0  0.09804263254450515  0.4658532716354101  0.6149510650551233  1.0000
  H   H25       1.0  0.36131216194104343  0.09306413688721447  0.45620171646722696  1.0000
  H   H26       1.0  0.6386953411584174  0.9069417455657813  0.5438071900329362  1.0000
  H   H27       1.0  0.8646766666012978  0.7827666739657247  0.3351437117186293  1.0000
  H   H28       1.0  0.1353292617466053  0.21724134685523208  0.6648596495138503  1.0000
  H   H29       1.0  0.7403796356771792  0.9707164323537397  0.2858234749027062  1.0000
  H   H30       1.0  0.2596302379677482  0.029292662823486595  0.7141762129923206  1.0000
  H   H31       1.0  0.9270399341764561  0.2186392101988517  0.3199280597433756  1.0000
  H   H32       1.0  0.0729718233486594  0.7813655375291475  0.6800728611323021  1.0000
  C   C1        1.0  0.7614056412797438  0.22332542675130174  0.9565550319734225  1.0000
  C   C2        1.0  0.23858772286232724  0.7766716073780131  0.04344025146840378  1.0000
  C   C3        1.0  0.8691182021745264  0.33881632300717257  0.06392995082725864  1.0000
  C   C4        1.0  0.13087864276879907  0.6611774505642812  0.9360655388479271  1.0000
  C   C5        1.0  0.040545377988017564  0.35607540909349206  0.11335236401485814  1.0000
  C   C6        1.0  0.9594489919127654  0.6439150637756228  0.8866395661514018  1.0000
  C   C7        1.0  0.1062789724192967  0.2620956346557222  0.057290554391876476  1.0000
  C   C8        1.0  0.893710493113872  0.7378882752991344  0.9426998471814299  1.0000
  C   C9        1.0  0.9998827485692489  0.14797405612393533  0.9505637436876808  1.0000
  C   C10       1.0  0.00010366542681335897  0.852014213046324  0.049427546832184435  1.0000
  C   C11       1.0  0.828885756258785  0.12931964812514  0.9014937032969141  1.0000
  C   C12       1.0  0.17110193899863896  0.8706719115191105  0.09850007413057674  1.0000
  C   C13       1.0  0.576155286770728  0.2005676836849517  0.8941824457561365  1.0000
  C   C14       1.0  0.42384013621187927  0.7994315634864222  0.10581689927896318  1.0000
  C   C15       1.0  0.8064896642040509  0.4436720656949546  0.13049098434031944  1.0000
  C   C16       1.0  0.19351203681311083  0.5563250235369067  0.8695094114142915  1.0000
  C   C17       1.0  0.5450285010881757  0.44546451445170737  0.7349425299203387  1.0000
  C   C18       1.0  0.4549685188154839  0.5545358196110328  0.2650557883674692  1.0000
  C   C19       1.0  0.5746735001903288  0.23663352503854168  0.702356586160576  1.0000
  C   C20       1.0  0.42532589421356437  0.7633668184836323  0.29764228006558807  1.0000
  C   C21       1.0  0.5852328878416984  0.2374539866326656  0.2567187220803504  1.0000
  C   C22       1.0  0.41476610995339763  0.7625452857251317  0.743283042126549  1.0000
  C   C23       1.0  0.7949017187505162  0.4351297249641916  0.3283775716480263  1.0000
  C   C24       1.0  0.2051015857187649  0.5648684566576704  0.6716225959914153  1.0000
  C   C25       1.0  0.1556918978976896  0.17098913871719645  0.38813250749602435  1.0000
  C   C26       1.0  0.844313627310342  0.829017805440742  0.6118729530850543  1.0000
  C   C27       1.0  0.2252107956124405  0.06664288426608779  0.41846141798398406  1.0000
  C   C28       1.0  0.7747991368120922  0.93336626039882  0.5815454576002067  1.0000
  C   C29       1.0  0.12106049167399395  0.927811834374083  0.40095963009412827  1.0000
  C   C30       1.0  0.8789435175620853  0.07219729763950507  0.599047472908417  1.0000
  C   C31       1.0  0.9455045647148949  0.8916164590703627  0.349802817862688  1.0000
  C   C32       1.0  0.05450613222667759  0.10839159716535819  0.6502040351428915  1.0000
  C   C33       1.0  0.8763009591512939  0.9964881214041551  0.3212655310649523  1.0000
  C   C34       1.0  0.123702500685134  0.0035166042130895985  0.6787350692907238  1.0000
  C   C35       1.0  0.9801407305126375  0.13591107153515478  0.3409358304555568  1.0000
  C   C36       1.0  0.019866645920245576  0.8640914976804054  0.6590668699455262  1.0000
  C   C37       1.0  0.26952434707008877  0.31869578093398576  0.40807783069925546  1.0000
  C   C38       1.0  0.7304775093142124  0.6813078522932656  0.5919229977715829  1.0000
  C   C39       1.0  0.20026572040433877  0.8206587484908566  0.4361886878319153  1.0000
  C   C40       1.0  0.799735511191635  0.17934929740027875  0.5638199665808727  1.0000
  N   N1        1.0  0.5504330334459481  0.27278143358123685  0.8038613437880355  1.0000
  N   N2        1.0  0.449560773022398  0.7272167102028815  0.1961366320979677  1.0000
  N   N3        1.0  0.5318120992153935  0.40679519651133933  0.8267484412650815  1.0000
  N   N4        1.0  0.4681825527190995  0.593205133590601  0.17325012771649276  1.0000
  N   N5        1.0  0.57370018840885  0.34474513904124376  0.6566631149824074  1.0000
  N   N6        1.0  0.42630039324517094  0.6552552092106507  0.3433360252129417  1.0000
  N   N7        1.0  0.7405541898336238  0.38303031562728046  0.20830134155828253  1.0000
  N   N8        1.0  0.25944751118353787  0.6169667736045807  0.7916990541963285  1.0000
  N   N9        1.0  0.6065187523101797  0.2565049358513036  0.16086833003286216  1.0000
  N   N10       1.0  0.39348295523804916  0.7434921588791922  0.8391328643538711  1.0000
  N   N11       1.0  0.697347944727788  0.34469513585806055  0.36164012822941766  1.0000
  N   N12       1.0  0.30265502448860093  0.655305232850523  0.6383611571685461  1.0000
  O   O1        1.0  0.41630399744993696  0.33054524878902913  0.40996797218691927  1.0000
  O   O2        1.0  0.5836999660686714  0.6694638447341389  0.5900335403907205  1.0000
  O   O3        1.0  0.21326138954920276  0.4244861811952062  0.4199204941302666  1.0000
  O   O4        1.0  0.7867396148378915  0.575515260215596  0.5800789426128716  1.0000
  O   O5        1.0  0.35158207195987484  0.8664246733044008  0.5155531675331912  1.0000
  O   O6        1.0  0.6484253044730081  0.13357789591115923  0.48444953286788445  1.0000
  O   O7        1.0  0.12048060838114341  0.6834893609058383  0.3840581450490814  1.0000
  O   O8        1.0  0.8795246272914596  0.31651980882925557  0.6159540237154245  1.0000
