data_image0
_chemical_formula_structural       Na4H20C20N24O4
_chemical_formula_sum              "Na4 H20 C20 N24 O4"
_cell_length_a       6.627791927831248
_cell_length_b       7.222313763751207
_cell_length_c       16.65691413670245
_cell_angle_alpha    88.51178705337482
_cell_angle_beta     88.26709316806846
_cell_angle_gamma    77.18453268030893

_space_group_name_H-M_alt    "P 1"
_space_group_IT_number       1

loop_
  _space_group_symop_operation_xyz
  'x, y, z'

loop_
  _atom_site_type_symbol
  _atom_site_label
  _atom_site_symmetry_multiplicity
  _atom_site_fract_x
  _atom_site_fract_y
  _atom_site_fract_z
  _atom_site_occupancy
  Na  Na1       1.0  0.20323260079009495  0.27089352411156387  0.7017658585887503  1.0000
  Na  Na2       1.0  0.7967628864960402  0.7291063526770004  0.2982342322083368  1.0000
  Na  Na3       1.0  0.5516031919988293  0.3926920687453118  0.8650149350954447  1.0000
  Na  Na4       1.0  0.44839682173813605  0.607307816337709  0.1349850981060499  1.0000
  H   H1        1.0  0.30658606108541875  0.8875426167022908  0.7629836710100618  1.0000
  H   H2        1.0  0.69341697531177  0.11245727417561109  0.23701752443178484  1.0000
  H   H3        1.0  0.19209334727889177  0.8785298110723758  0.6814478625690652  1.0000
  H   H4        1.0  0.8079111954220792  0.1214700824377175  0.3185527133555367  1.0000
  H   H5        1.0  0.21139282513156837  0.21695392753292703  0.8708857581531716  1.0000
  H   H6        1.0  0.7886086974223402  0.783045960314915  0.1291142558497924  1.0000
  H   H7        1.0  0.09899789590591009  0.4363118932931158  0.856402976441849  1.0000
  H   H8        1.0  0.9010017699962064  0.5636894119019971  0.14359644454864906  1.0000
  H   H9        1.0  0.424726402109286  0.1870705301764488  0.5035335685844373  1.0000
  H   H10       1.0  0.5752714171937116  0.8129321928964471  0.4964676606684363  1.0000
  H   H11       1.0  0.3070722276876268  0.12898398949039347  0.36564079750989004  1.0000
  H   H12       1.0  0.692923389641905  0.8710215711744952  0.6343598268382491  1.0000
  H   H13       1.0  0.6932714001535701  0.2979791645876944  0.4462534834037156  1.0000
  H   H14       1.0  0.3067229160978044  0.7020192887934655  0.5537448375280575  1.0000
  H   H15       1.0  0.7754765207734808  0.021189942997132498  0.7374075333916179  1.0000
  H   H16       1.0  0.22452163631169952  0.9788113594331662  0.262591906797418  1.0000
  H   H17       1.0  0.9165130810361505  0.6653295975424102  0.7445022677797937  1.0000
  H   H18       1.0  0.08348554136144064  0.33467596798899274  0.2554953165777504  1.0000
  H   H19       1.0  0.8798474560278111  0.6809124444598921  0.9936257890140818  1.0000
  H   H20       1.0  0.120160787410903  0.3190846136925174  0.0063729713418965  1.0000
  C   C1        1.0  0.26128807287877  0.20424467496425794  0.4906058252318741  1.0000
  C   C2        1.0  0.7387040564781274  0.7957566168046456  0.509395492707405  1.0000
  C   C3        1.0  0.1943637178575203  0.17503578644525666  0.4143159304564746  1.0000
  C   C4        1.0  0.8056347820361723  0.8249640956076972  0.5856829213061302  1.0000
  C   C5        1.0  0.8578807071279259  0.26520730037976387  0.45910559359388964  1.0000
  C   C6        1.0  0.14211512045355337  0.7347911558988328  0.5408933084580666  1.0000
  C   C7        1.0  0.9251721825946646  0.28846651968684256  0.536833226506161  1.0000
  C   C8        1.0  0.07482132302261854  0.7115290908379348  0.4631669383648215  1.0000
  C   C9        1.0  0.7787733015839393  0.3431490542737378  0.6036918824929741  1.0000
  C   C10       1.0  0.22122171285028716  0.6568465590158536  0.3963082631794775  1.0000
  C   C11       1.0  0.7968951627577071  0.9442415089552653  0.7948129812889844  1.0000
  C   C12       1.0  0.20310451068390734  0.05575979663772301  0.20518824065764105  1.0000
  C   C13       1.0  0.8757161874099497  0.748440376176326  0.7986080882656947  1.0000
  C   C14       1.0  0.12428092114436141  0.25156518632500985  0.20138831465295934  1.0000
  C   C15       1.0  0.8560186107922833  0.7566391121327882  0.9359940320706952  1.0000
  C   C16       1.0  0.14398742564662834  0.24336078334636824  0.06400292274313557  1.0000
  C   C17       1.0  0.7767711478928376  0.9538518053557821  0.9321395342707459  1.0000
  C   C18       1.0  0.22323593707694298  0.046143830052344  0.0678604578134596  1.0000
  C   C19       1.0  0.7233732524525467  0.06718619611260829  0.004041545046192098  1.0000
  C   C20       1.0  0.2766312977879153  0.9328136977953605  0.9959608318345299  1.0000
  N   N1        1.0  0.12851529021615704  0.2579308858838586  0.552131972695683  1.0000
  N   N2        1.0  0.8714827343124585  0.7420647325374927  0.44786633362358685  1.0000
  N   N3        1.0  0.9914373765376964  0.2054754610935987  0.39852910604889746  1.0000
  N   N4        1.0  0.008555911288134228  0.7945272534195877  0.601470980162155  1.0000
  N   N5        1.0  0.8331451873877785  0.3712733629632081  0.6792969631401958  1.0000
  N   N6        1.0  0.16685064522003765  0.6287250935806412  0.3207031395491667  1.0000
  N   N7        1.0  0.6542262544140133  0.4122149642520155  0.7214201845970079  1.0000
  N   N8        1.0  0.3457703988805535  0.5877863356787144  0.2785804754279723  1.0000
  N   N9        1.0  0.4983899475952427  0.40880692184280326  0.6729798734441343  1.0000
  N   N10       1.0  0.5016070535341655  0.591192957975835  0.32702139879183517  1.0000
  N   N11       1.0  0.5724645151462371  0.3657492462893472  0.5984975916216653  1.0000
  N   N12       1.0  0.4275301564794774  0.6342477873775891  0.4015031424772174  1.0000
  N   N13       1.0  0.7465752381975791  0.04710139346003219  0.8607725953122765  1.0000
  N   N14       1.0  0.25342662465168087  0.9528970738778354  0.13922622994554953  1.0000
  N   N15       1.0  0.9049743622678577  0.6549583813767939  0.869491482642047  1.0000
  N   N16       1.0  0.09503017791994492  0.34504151200067656  0.1305084929638483  1.0000
  N   N17       1.0  0.639660507879313  0.25538852102496884  0.0026632070239216  1.0000
  N   N18       1.0  0.3603462342819554  0.7446085347605019  0.9973373734867148  1.0000
  N   N19       1.0  0.6119670387230726  0.3028954629334494  0.0800737946148757  1.0000
  N   N20       1.0  0.38803633545629174  0.6971030073018553  0.9199256117631263  1.0000
  N   N21       1.0  0.6771557467126286  0.1502944814836127  0.12642106071996295  1.0000
  N   N22       1.0  0.322849141310016  0.8497039917817659  0.8735795270969218  1.0000
  N   N23       1.0  0.7482293635773728  0.9999143066507441  0.08012545955676129  1.0000
  N   N24       1.0  0.2517755244452715  8.416661463430005e-05  0.9198751282601234  1.0000
  O   O1        1.0  0.29213676275107064  0.939327965827516  0.707056690145677  1.0000
  O   O2        1.0  0.7078696340885174  0.0606705102026766  0.29294387847267694  1.0000
  O   O3        1.0  0.2185835683036146  0.33491186993236244  0.8387811822603336  1.0000
  O   O4        1.0  0.7814179567634623  0.6650880180480955  0.16121943206132974  1.0000
