data_image0
_chemical_formula_structural       Zn7H26C46N10O40
_chemical_formula_sum              "Zn7 H26 C46 N10 O40"
_cell_length_a       13.031374494787833
_cell_length_b       13.031370783559394
_cell_length_c       14.427641389719481
_cell_angle_alpha    88.42537575935042
_cell_angle_beta     88.42455623593655
_cell_angle_gamma    86.5951334601557

_space_group_name_H-M_alt    "P 1"
_space_group_IT_number       1

loop_
  _space_group_symop_operation_xyz
  'x, y, z'

loop_
  _atom_site_type_symbol
  _atom_site_label
  _atom_site_symmetry_multiplicity
  _atom_site_fract_x
  _atom_site_fract_y
  _atom_site_fract_z
  _atom_site_occupancy
  Zn  Zn1       1.0  0.50000135441892  0.5000020842325982  3.2345733487022545e-06  1.0000
  Zn  Zn2       1.0  0.3349588589701185  0.33495941651812444  0.9863516146878623  1.0000
  Zn  Zn3       1.0  0.6650430764585238  0.6650433369388223  0.013647314126771405  1.0000
  Zn  Zn4       1.0  0.4968601405358016  0.3164841156448617  0.1531898115420702  1.0000
  Zn  Zn5       1.0  0.6835160180823863  0.5031412457300988  0.846804591410617  1.0000
  Zn  Zn6       1.0  0.5031379710220278  0.6835142395074315  0.8468093988036429  1.0000
  Zn  Zn7       1.0  0.316483607020082  0.49686240073332766  0.1531943859443956  1.0000
  H   H1        1.0  0.007609715882374199  0.4652393486959525  0.2325672331790187  1.0000
  H   H2        1.0  0.5347592971461737  0.9923867786626913  0.7674412256798959  1.0000
  H   H3        1.0  0.9923899870744038  0.5347605191542399  0.7674374163613463  1.0000
  H   H4        1.0  0.46524338515862945  0.007617453587798207  0.23255624055830992  1.0000
  H   H5        1.0  0.0110149594708133  0.32882329681447  0.9642321950873765  1.0000
  H   H6        1.0  0.6711746311681636  0.9889879407910271  0.035775163301927614  1.0000
  H   H7        1.0  0.9889885516427697  0.6711794110032798  0.0357701472580061  1.0000
  H   H8        1.0  0.3288219645644618  0.011008977295297501  0.9642255345233933  1.0000
  H   H9        1.0  0.8196203950718868  0.3268238832393208  0.9722731216371301  1.0000
  H   H10       1.0  0.6731771630791101  0.18038283300575841  0.02773025416632181  1.0000
  H   H11       1.0  0.18038309336957783  0.6731788018888523  0.027727142705970195  1.0000
  H   H12       1.0  0.3268171787080264  0.8196142632056436  0.9722753670405596  1.0000
  H   H13       1.0  0.38320823579057617  0.38320797332622913  0.7695138485693817  1.0000
  H   H14       1.0  0.6167906011697966  0.6167949243514386  0.2304831018557252  1.0000
  H   H15       1.0  0.18890483805053288  0.1889192390230079  0.6461331006596893  1.0000
  H   H16       1.0  0.8110916589534155  0.8110860646190832  0.35386176796513513  1.0000
  H   H17       1.0  0.24280853936777896  0.14322595443282185  0.7534187352675588  1.0000
  H   H18       1.0  0.8567831552958224  0.7571798009216482  0.2465763303375326  1.0000
  H   H19       1.0  0.7571887335433302  0.8567777718341817  0.24657616079245773  1.0000
  H   H20       1.0  0.1432141402874123  0.24282394803492488  0.753420643724766  1.0000
  H   H21       1.0  0.2827826968321929  0.2827892879525322  0.5596984377442596  1.0000
  H   H22       1.0  0.7172145952719831  0.7172152288277973  0.4402985101488497  1.0000
  H   H23       1.0  0.304717243704566  0.40597679954769467  0.6019314371802763  1.0000
  H   H24       1.0  0.5940260329298255  0.695285552721039  0.3980646494596201  1.0000
  H   H25       1.0  0.6952777525889359  0.5940270821548028  0.39806630425901096  1.0000
  H   H26       1.0  0.4059712411797847  0.3047212599673658  0.6019315272584863  1.0000
  C   C1        1.0  0.8053428911201763  0.392927191580064  0.1077002675034038  1.0000
  C   C2        1.0  0.6070748498291749  0.19465566203850676  0.8923023686032606  1.0000
  C   C3        1.0  0.19465752380570217  0.6070718062132627  0.8922988419635516  1.0000
  C   C4        1.0  0.3929225195300532  0.8053435329178884  0.1076996111461597  1.0000
  C   C5        1.0  0.8609858615871673  0.4300649418971575  0.1802669816303393  1.0000
  C   C6        1.0  0.56993600493945  0.13901171079346852  0.819736992035061  1.0000
  C   C7        1.0  0.13901460912013872  0.5699317978040525  0.819736362348749  1.0000
  C   C8        1.0  0.43006517665490657  0.8609910995174419  0.1802633470176076  1.0000
  C   C9        1.0  0.9674475730632323  0.4340750088694351  0.17554475420013196  1.0000
  C   C10       1.0  0.5659260857810935  0.03255041063267331  0.8244620025841414  1.0000
  C   C11       1.0  0.032552876170449004  0.565924794563607  0.8244577924347638  1.0000
  C   C12       1.0  0.4340758496475488  0.9674523428242738  0.1755369262304924  1.0000
  C   C13       1.0  0.021464811656677796  0.39788931400158145  0.0971466246666495  1.0000
  C   C14       1.0  0.6021125972298975  0.9785342123331449  0.9028583369982784  1.0000
  C   C15       1.0  0.978536421640797  0.6021104628302681  0.9028572823999141  1.0000
  C   C16       1.0  0.39788702667406983  0.021466347708873502  0.0971393596986374  1.0000
  C   C17       1.0  0.9678574800913751  0.3573166944218756  0.024979361715168086  1.0000
  C   C18       1.0  0.6426833780455894  0.032142887119732705  0.9750254622153706  1.0000
  C   C19       1.0  0.032145273109613  0.6426852948628864  0.9750237243700254  1.0000
  C   C20       1.0  0.3573147369912917  0.9678547002088109  0.024973774299539293  1.0000
  C   C21       1.0  0.8610270284921242  0.3555140750872568  0.0299443335367471  1.0000
  C   C22       1.0  0.6444858034727473  0.13897303812321132  0.9700598013061494  1.0000
  C   C23       1.0  0.1389741856122839  0.64448491123126  0.9700575216967309  1.0000
  C   C24       1.0  0.35551312933648666  0.8610237850331544  0.029943592479313007  1.0000
  C   C25       1.0  0.6895110072423944  0.3956266543194218  0.10744993162133201  1.0000
  C   C26       1.0  0.6043696160103096  0.31048797038731385  0.8925536554011373  1.0000
  C   C27       1.0  0.3104894530277207  0.6043723888530579  0.892553333850188  1.0000
  C   C28       1.0  0.3956277388334186  0.6895127526533997  0.10744757934247669  1.0000
  C   C29       1.0  0.1357505942602728  0.4051968022378317  0.0902856574457331  1.0000
  C   C30       1.0  0.594800183605777  0.8642490001816939  0.9097201467376763  1.0000
  C   C31       1.0  0.8642521658988328  0.5948036513994241  0.9097174809778323  1.0000
  C   C32       1.0  0.4051986631925217  0.1357500508140177  0.0902762418659506  1.0000
  C   C33       1.0  0.4297842118160986  0.42978517118474  0.3225096452734064  1.0000
  C   C34       1.0  0.570221576997156  0.5702104405309572  0.677487316545715  1.0000
  C   C35       1.0  0.4591219155879216  0.4591195179513364  0.4188622624065416  1.0000
  C   C36       1.0  0.5408831414639153  0.5408746300972  0.5811375473238484  1.0000
  C   C37       1.0  0.5457194337684684  0.4117790918809946  0.46164857908549817  1.0000
  C   C38       1.0  0.5882253540137655  0.4542814820734479  0.5383418339985441  1.0000
  C   C39       1.0  0.4542863660812202  0.5882157595741404  0.5383491015702333  1.0000
  C   C40       1.0  0.4117819796556858  0.5457125105395877  0.4616551303525753  1.0000
  C   C41       1.0  0.3257300525891226  0.3257359338420542  0.7801085599951633  1.0000
  C   C42       1.0  0.6742672534312959  0.6742655116432629  0.2198884925747038  1.0000
  C   C43       1.0  0.2112132561986044  0.21122519090959466  0.7148826654942084  1.0000
  C   C44       1.0  0.7887848158910415  0.7887785238825986  0.2851149763323235  1.0000
  C   C45       1.0  0.3233516768424209  0.3233576767727371  0.6116076956202221  1.0000
  C   C46       1.0  0.6766448358755354  0.6766491852064361  0.3883891986684986  1.0000
  N   N1        1.0  0.8069255313881597  0.46749435408789014  0.2643080100277331  1.0000
  N   N2        1.0  0.5325014398130391  0.1930697906076375  0.735698196165842  1.0000
  N   N3        1.0  0.19307337526988283  0.5325032142026558  0.7356932795862576  1.0000
  N   N4        1.0  0.46749285554779624  0.8069342008911706  0.264305804183472  1.0000
  N   N5        1.0  0.5896810559053307  0.30889106864160004  0.4319158238635268  1.0000
  N   N6        1.0  0.6911141823199927  0.41031847505362856  0.5680708850611822  1.0000
  N   N7        1.0  0.4103209282301705  0.6911009352827834  0.5680834713197598  1.0000
  N   N8        1.0  0.30889466081578126  0.589680033483589  0.4319251798009986  1.0000
  N   N9        1.0  0.28824738160886204  0.2882550551457541  0.7041818481911619  1.0000
  N   N10       1.0  0.7117506904807841  0.7117486596464391  0.2958157936353699  1.0000
  O   O1        1.0  0.41081434247060133  0.4108174113270523  0.0777251495437667  1.0000
  O   O2        1.0  0.5891853384133016  0.5891839770442643  0.9222780623233646  1.0000
  O   O3        1.0  0.6426278807172777  0.47789392812525483  0.07917820991442433  1.0000
  O   O4        1.0  0.5221032553644632  0.3573698283694427  0.9208296918078034  1.0000
  O   O5        1.0  0.3573748753635186  0.522105750125057  0.9208242620109104  1.0000
  O   O6        1.0  0.47789494688185385  0.6426286175411565  0.0791778305470316  1.0000
  O   O7        1.0  0.6480270609824642  0.3116214358422695  0.12920519079988677  1.0000
  O   O8        1.0  0.6883741096615026  0.35197472653781875  0.8707952766543698  1.0000
  O   O9        1.0  0.3519726262603058  0.6883768736708406  0.8707974330765821  1.0000
  O   O10       1.0  0.3116193562913026  0.6480292461830219  0.129203207258719  1.0000
  O   O11       1.0  0.1743488145975007  0.4577923422542653  0.1528944489413036  1.0000
  O   O12       1.0  0.5422108793743092  0.8256505214924558  0.847107775295882  1.0000
  O   O13       1.0  0.8256508296980343  0.542212094722494  0.8471065802467878  1.0000
  O   O14       1.0  0.4577894797701346  0.17435073439297352  0.1528870996589475  1.0000
  O   O15       1.0  0.1835017242444081  0.3606087053864186  0.023680494258016403  1.0000
  O   O16       1.0  0.639381968046763  0.8164974007844704  0.9763284099279872  1.0000
  O   O17       1.0  0.816499519490243  0.639388767974168  0.9763234913161155  1.0000
  O   O18       1.0  0.36061535188989774  0.18350097340582758  0.023668747318637898  1.0000
  O   O19       1.0  0.7121115378897753  0.4600408146495809  0.26952217102680726  1.0000
  O   O20       1.0  0.539965893940071  0.287880848477478  0.7304801687073023  1.0000
  O   O21       1.0  0.2878850433273499  0.5399576315210624  0.7304777817927146  1.0000
  O   O22       1.0  0.460036101348308  0.7121204222743032  0.2695236611176881  1.0000
  O   O23       1.0  0.8574150116359647  0.5053513611946132  0.3249249477714713  1.0000
  O   O24       1.0  0.49463620358679355  0.14257802605948203  0.6750884684489121  1.0000
  O   O25       1.0  0.1425808349399347  0.49464793234331955  0.6750784671191782  1.0000
  O   O26       1.0  0.5053519924841154  0.8574248089915812  0.3249199394688489  1.0000
  O   O27       1.0  0.4849200059021684  0.35776332445964704  0.2860900516782863  1.0000
  O   O28       1.0  0.6422482306728765  0.5150755354019624  0.7139031186519631  1.0000
  O   O29       1.0  0.5150720503950197  0.6422208061146933  0.7139126257772546  1.0000
  O   O30       1.0  0.35776445492752623  0.4849266187425273  0.2860940761831756  1.0000
  O   O31       1.0  0.6779239910013857  0.30243142188405164  0.39942261453337846  1.0000
  O   O32       1.0  0.6975703496437548  0.3220769805306177  0.6005677098644071  1.0000
  O   O33       1.0  0.3220740971686098  0.6975553402800118  0.6005700616759171  1.0000
  O   O34       1.0  0.3024423998947086  0.6779244662956575  0.3994350524793333  1.0000
  O   O35       1.0  0.5330558733782809  0.23797206008138264  0.4491415632303557  1.0000
  O   O36       1.0  0.7620338504334683  0.4669413885756483  0.5508416422750101  1.0000
  O   O37       1.0  0.4669462102015913  0.7620231285859023  0.5508680172875629  1.0000
  O   O38       1.0  0.23797183029598296  0.5330579715005115  0.4491468766890421  1.0000
  O   O39       1.0  0.29622430914005093  0.2962355055529713  0.8603375881539748  1.0000
  O   O40       1.0  0.703773762949595  0.7037682092392219  0.1396600536725572  1.0000
