data_image0
_chemical_formula_structural       Hg4H44C52Br8N8
_chemical_formula_sum              "Hg4 H44 C52 Br8 N8"
_cell_length_a       9.898493525019594
_cell_length_b       10.84718737754536
_cell_length_c       14.264385850546452
_cell_angle_alpha    110.23995801104947
_cell_angle_beta     90.00022039808421
_cell_angle_gamma    89.99998101892375

_space_group_name_H-M_alt    "P 1"
_space_group_IT_number       1

loop_
  _space_group_symop_operation_xyz
  'x, y, z'

loop_
  _atom_site_type_symbol
  _atom_site_label
  _atom_site_symmetry_multiplicity
  _atom_site_fract_x
  _atom_site_fract_y
  _atom_site_fract_z
  _atom_site_occupancy
  Hg  Hg1       1.0  0.4208706838015103  0.3118428676817969  0.9558552744759793  1.0000
  Hg  Hg2       1.0  0.9208768741371858  0.6881608321783829  0.5441427994124908  1.0000
  Hg  Hg3       1.0  0.5791285328453313  0.6881591444951667  0.04414426358201243  1.0000
  Hg  Hg4       1.0  0.0791233527627142  0.31183823236403185  0.4558559482912584  1.0000
  H   H1        1.0  0.6241390264228882  0.33292572400272036  0.6069431830435192  1.0000
  H   H2        1.0  0.1241384256788223  0.6670707402494429  0.8930577702008333  1.0000
  H   H3        1.0  0.3758632209898209  0.6670723440690336  0.3930566996056227  1.0000
  H   H4        1.0  0.8758597807160413  0.3329292929103004  0.10694263934620098  1.0000
  H   H5        1.0  0.5943172336433662  0.9402687318690823  0.6149276364072235  1.0000
  H   H6        1.0  0.09431578888310811  0.05972965318645151  0.885075154693439  1.0000
  H   H7        1.0  0.4056870342871477  0.059730290895401994  0.3850753064854615  1.0000
  H   H8        1.0  0.9056743354710762  0.9402723589858866  0.1149243833512301  1.0000
  H   H9        1.0  0.6530775792511961  0.09024034599273278  0.5218609922579915  1.0000
  H   H10       1.0  0.1530743361305937  0.9097561337918376  0.978141444227674  1.0000
  H   H11       1.0  0.3469256784220748  0.9097577011895481  0.4781409879841334  1.0000
  H   H12       1.0  0.8469167984810965  0.0902438993643102  0.021858965308993596  1.0000
  H   H13       1.0  0.5221017417036151  0.41545811659865706  0.7793709979000523  1.0000
  H   H14       1.0  0.0221002119469418  0.5845412053373948  0.7206290481203722  1.0000
  H   H15       1.0  0.47790151596356634  0.5845429060720163  0.2206289759091291  1.0000
  H   H16       1.0  0.977900014953775  0.41545588715163734  0.27936987187673173  1.0000
  H   H17       1.0  0.681375510056114  0.8360891986790832  0.8189003190678362  1.0000
  H   H18       1.0  0.18136885532801733  0.16391521901548597  0.6810994136204016  1.0000
  H   H19       1.0  0.3186307783811628  0.16391869484495908  0.18110219810631634  1.0000
  H   H20       1.0  0.8186313715644076  0.8360878105236721  0.31889689190514753  1.0000
  H   H21       1.0  0.681769303237232  0.5969399352686368  0.7297262853650394  1.0000
  H   H22       1.0  0.18176407110836124  0.40306444801090163  0.7702769444657704  1.0000
  H   H23       1.0  0.3182369852072569  0.4030669478570557  0.27027876514588195  1.0000
  H   H24       1.0  0.818233125023731  0.5969385676000555  0.2297207594496697  1.0000
  H   H25       1.0  0.30746244159099223  0.6278844951540278  0.5844478820058469  1.0000
  H   H26       1.0  0.807460701688953  0.37211311041861705  0.9155566690007716  1.0000
  H   H27       1.0  0.6925428365950808  0.3721125555575924  0.4155552331816636  1.0000
  H   H28       1.0  0.19253649444253537  0.6278820309054893  0.08444032569373414  1.0000
  H   H29       1.0  0.3085314928191139  0.8702140879024254  0.6722165382098736  1.0000
  H   H30       1.0  0.8085323802629604  0.12978151885318567  0.8277909850171952  1.0000
  H   H31       1.0  0.6914697443527018  0.1297809768270923  0.32778814765940467  1.0000
  H   H32       1.0  0.1914698671430557  0.8702116504201173  0.172206181978062  1.0000
  H   H33       1.0  0.4931190707141724  0.49221843507859836  0.6102217443645586  1.0000
  H   H34       1.0  0.9931120893513068  0.5077784048043411  0.8897802907583809  1.0000
  H   H35       1.0  0.5068912587467267  0.5077805807256368  0.38978189773418137  1.0000
  H   H36       1.0  0.0068820760115216005  0.49221576789987137  0.11021504208542858  1.0000
  H   H37       1.0  0.41895908658358394  0.890708781427854  0.9216809320140201  1.0000
  H   H38       1.0  0.9189666776807145  0.10929194099857399  0.5783191427044513  1.0000
  H   H39       1.0  0.5810350787903787  0.10929125869316181  0.07831877832992258  1.0000
  H   H40       1.0  0.08103657997951791  0.8907071374720489  0.4216782066094069  1.0000
  H   H41       1.0  0.35194548498262174  0.04226587875491819  0.0064314675420930984  1.0000
  H   H42       1.0  0.8519510470988936  0.9577366816083169  0.4935715607313824  1.0000
  H   H43       1.0  0.6480456496315696  0.9577351299829215  0.9935699046436496  1.0000
  H   H44       1.0  0.1480512003069023  0.042266334005205394  0.5064261431914615  1.0000
  C   C1        1.0  0.595791393406735  0.26453586957858016  0.6440801406048138  1.0000
  C   C2        1.0  0.09578955244701598  0.7354635134491758  0.8559215198752241  1.0000
  C   C3        1.0  0.4042108540076512  0.7354651461282415  0.3559205324000486  1.0000
  C   C4        1.0  0.9042036026766596  0.2645374952896873  0.1440798523134816  1.0000
  C   C5        1.0  0.5787656215912733  0.0460166692517063  0.6489168841083526  1.0000
  C   C6        1.0  0.0787626677524074  0.9539807174259707  0.8510855979392387  1.0000
  C   C7        1.0  0.42123864633536096  0.9539823674394369  0.3510846603899934  1.0000
  C   C8        1.0  0.9212274566028569  0.046016368094591094  0.1489140212402233  1.0000
  C   C9        1.0  0.5263144654165187  0.09968358367085271  0.745774230659265  1.0000
  C   C10       1.0  0.0263109922604841  0.900316704207931  0.7542281887538634  1.0000
  C   C11       1.0  0.47368980251235376  0.900319383200383  0.2542283676467179  1.0000
  C   C12       1.0  0.973684183358202  0.0996794335868358  0.24576767099524935  1.0000
  C   C13       1.0  0.6131393820101322  0.1299520191088135  0.5975824012148934  1.0000
  C   C14       1.0  0.11313573212090232  0.8700453955988149  0.9024208808162938  1.0000
  C   C15       1.0  0.38686387566758634  0.8700469966918193  0.4024212408734796  1.0000
  C   C16       1.0  0.886854392236053  0.12995463755681408  0.0975795287188888  1.0000
  C   C17       1.0  0.5413429629550278  0.31113700391902205  0.7402599692572736  1.0000
  C   C18       1.0  0.04134060398938289  0.6888623306414844  0.7597408323763659  1.0000
  C   C19       1.0  0.45866029471021363  0.6888640257149774  0.25973930535473505  1.0000
  C   C20       1.0  0.9586565921487988  0.3111377094810803  0.24025887797201753  1.0000
  C   C21       1.0  0.49566553631812127  0.013599505363558294  0.8049313251758219  1.0000
  C   C22       1.0  0.9956653896719841  0.986401281222001  0.6950703728369446  1.0000
  C   C23       1.0  0.5043336803351082  0.9864034684684385  0.19507057392559093  1.0000
  C   C24       1.0  0.004334837224291701  0.013594842648679198  0.304926885313911  1.0000
  C   C25       1.0  0.49511464980889724  0.8690567816335886  0.7511393559352014  1.0000
  C   C26       1.0  0.9951130780042732  0.130942039300372  0.7488618135564025  1.0000
  C   C27       1.0  0.5048855770968288  0.13094226201882717  0.24886148936005262  1.0000
  C   C28       1.0  0.0048861386381205  0.8690590042582326  0.25113606265534827  1.0000
  C   C29       1.0  0.599483114608212  0.7912879450759007  0.7671316016360946  1.0000
  C   C30       1.0  0.0994787523733436  0.2087134137622542  0.7328698973714082  1.0000
  C   C31       1.0  0.4005211533195379  0.2087130567052924  0.23287046976606968  1.0000
  C   C32       1.0  0.90052551554858  0.791287608908931  0.2671300764392512  1.0000
  C   C33       1.0  0.5994355160171523  0.6558814177053092  0.716682188993907  1.0000
  C   C34       1.0  0.09942835625659538  0.34411993411962527  0.7833200090670969  1.0000
  C   C35       1.0  0.40057279293149867  0.3441195771146042  0.2833205816113491  1.0000
  C   C36       1.0  0.9005698501271764  0.655881123365127  0.21667646874883673  1.0000
  C   C37       1.0  0.38953567047992266  0.6742392351851831  0.6355366748286996  1.0000
  C   C38       1.0  0.8895326526538695  0.3257574922850779  0.8644657557798964  1.0000
  C   C39       1.0  0.6104696077047719  0.32575880503479476  0.36446600461355416  1.0000
  C   C40       1.0  0.1104665639854616  0.6742415931468172  0.13553089433086998  1.0000
  C   C41       1.0  0.3902055821931897  0.8099468642515928  0.6846373533147058  1.0000
  C   C42       1.0  0.8902043592305446  0.19004889528321203  0.815363417414531  1.0000
  C   C43       1.0  0.6097966652189585  0.19005022127514334  0.315362265882527  1.0000
  C   C44       1.0  0.10979788816963777  0.8099442948800826  0.18463165198922837  1.0000
  C   C45       1.0  0.4948396287549315  0.5976644550078374  0.6507343945020237  1.0000
  C   C46       1.0  0.9948314487041542  0.4023372923878555  0.8492696621207327  1.0000
  C   C47       1.0  0.5051696904529095  0.40233750843094634  0.3492700379509585  1.0000
  C   C48       1.0  0.0051617064136948  0.5976637372409996  0.15072961247646788  1.0000
  C   C49       1.0  0.44169597711084657  0.9947730713071931  0.9632364693963422  1.0000
  C   C50       1.0  0.94170034273359  0.0052286637728614005  0.5367632362390751  1.0000
  C   C51       1.0  0.558299198517041  0.0052289408677169  0.0367630686557305  1.0000
  C   C52       1.0  0.0583008944157868  0.9947714042050816  0.46323367732656345  1.0000
  Br  Br1       1.0  0.6278542533087047  0.42985502046605  0.07271259749949621  1.0000
  Br  Br2       1.0  0.12785488653045723  0.5701434024722046  0.4272866223087631  1.0000
  Br  Br3       1.0  0.37214698384787676  0.5701440371135432  0.927286849402904  1.0000
  Br  Br4       1.0  0.8721463506261244  0.4298556551073886  0.5727128245936369  1.0000
  Br  Br5       1.0  0.1969300163769461  0.28007304518420983  0.035383662248790415  1.0000
  Br  Br6       1.0  0.696934489887923  0.7199362769626844  0.4646165604819359  1.0000
  Br  Br7       1.0  0.8030681900179175  0.7199269879755332  0.964616747298244  1.0000
  Br  Br8       1.0  0.3030687677642803  0.28006578395965676  0.5353780832018059  1.0000
  N   N1        1.0  0.4746302645495889  0.06888242930701689  0.8992838572851197  1.0000
  N   N2        1.0  0.9746376950917365  0.9311173672494275  0.600716117214901  1.0000
  N   N3        1.0  0.5253628905749039  0.9311166073784705  0.1007176871969336  1.0000
  N   N4        1.0  0.025362531801768305  0.0688807356379542  0.399280269445441  1.0000
  N   N5        1.0  0.506831800405017  0.23058385602634957  0.7891095801552837  1.0000
  N   N6        1.0  0.006830152466719101  0.7694154364376685  0.7108918194862425  1.0000
  N   N7        1.0  0.49317246752079313  0.7694171527181765  0.21089179204971484  1.0000
  N   N8        1.0  0.9931670436689615  0.2305836281032043  0.28910692821306583  1.0000
