data_image0
_chemical_formula_structural       Cu2H30C34Br2N8O8
_chemical_formula_sum              "Cu2 H30 C34 Br2 N8 O8"
_cell_length_a       8.95345735001612
_cell_length_b       9.213047517986293
_cell_length_c       11.442878224783604
_cell_angle_alpha    93.56410588794542
_cell_angle_beta     90.00006661537462
_cell_angle_gamma    90.0001993869075

_space_group_name_H-M_alt    "P 1"
_space_group_IT_number       1

loop_
  _space_group_symop_operation_xyz
  'x, y, z'

loop_
  _atom_site_type_symbol
  _atom_site_label
  _atom_site_symmetry_multiplicity
  _atom_site_fract_x
  _atom_site_fract_y
  _atom_site_fract_z
  _atom_site_occupancy
  Cu  Cu1       1.0  0.40459659554163346  0.3026863596566614  0.5565533850681561  1.0000
  Cu  Cu2       1.0  0.9045995958078591  0.6973145473009694  0.4434490811926324  1.0000
  H   H1        1.0  0.5276664918133988  0.9837066881959016  0.5975586405645714  1.0000
  H   H2        1.0  0.027662256373169193  0.016299446134098595  0.40244448768795854  1.0000
  H   H3        1.0  0.0877064598328232  0.14358026944120889  0.589335231020975  1.0000
  H   H4        1.0  0.587704392703479  0.856414042540031  0.41066495608691866  1.0000
  H   H5        1.0  0.0778914316672399  0.8516911801506878  0.6407803043472882  1.0000
  H   H6        1.0  0.5778834307482795  0.1483007770558231  0.35921455257636126  1.0000
  H   H7        1.0  0.48879727339235757  0.7239233501692439  0.6338878770043478  1.0000
  H   H8        1.0  0.9887897351653476  0.2760778517327864  0.3661146835615128  1.0000
  H   H9        1.0  0.3069411219149955  0.6479164578428325  0.619791202274989  1.0000
  H   H10       1.0  0.806933873196776  0.3520828495539803  0.38020499538697544  1.0000
  H   H11       1.0  0.5233665025992095  0.9044898403415617  0.8300195269557733  1.0000
  H   H12       1.0  0.023367800212405098  0.09551074543519887  0.1699799224648046  1.0000
  H   H13       1.0  0.31941543415231166  0.7320949490463844  0.1330825531217954  1.0000
  H   H14       1.0  0.8194152837951377  0.26790662518700253  0.8669154780855947  1.0000
  H   H15       1.0  0.1993904503411841  0.5583498310413119  0.7871089176488297  1.0000
  H   H16       1.0  0.6993922150967079  0.44164588649292824  0.21288880472211963  1.0000
  H   H17       1.0  0.0785733897579775  0.4680619384054054  0.9486823425045117  1.0000
  H   H18       1.0  0.5785785943316951  0.5319398793938817  0.051315453825146996  1.0000
  H   H19       1.0  0.20779877457876236  0.4444613007799775  0.0646889024526089  1.0000
  H   H20       1.0  0.7078064426551123  0.555536572089288  0.9353071492908214  1.0000
  H   H21       1.0  0.12674320606132738  0.5173801676008978  0.2628390593682184  1.0000
  H   H22       1.0  0.6267425143958575  0.4826184842432539  0.7371560615579327  1.0000
  H   H23       1.0  0.7786203607650108  0.8130766438543091  0.2019507668005431  1.0000
  H   H24       1.0  0.278613944606164  0.18692920939608376  0.7980499829439367  1.0000
  H   H25       1.0  0.9076871025619578  0.7207625347851943  0.9887922452189883  1.0000
  H   H26       1.0  0.4076854738323161  0.27924377060645605  0.011208649092445499  1.0000
  H   H27       1.0  0.42649573329702406  0.5980184511756262  0.2923500838387696  1.0000
  H   H28       1.0  0.9264935967859241  0.40197591173932784  0.7076486980489135  1.0000
  H   H29       1.0  0.3204171888516355  0.5636182896242589  0.42092280451107916  1.0000
  H   H30       1.0  0.8204183412310542  0.436380026374401  0.5790751231786757  1.0000
  C   C1        1.0  0.40682379888410475  0.9891739582126959  0.600068762244149  1.0000
  C   C2        1.0  0.9068198364495996  0.010829106718368599  0.39993290136312964  1.0000
  C   C3        1.0  0.17689310206689868  0.0651816958050802  0.5957930514670267  1.0000
  C   C4        1.0  0.6768901866827832  0.9348161660361002  0.404206465271912  1.0000
  C   C5        1.0  0.17165867391650377  0.9220130847558605  0.6233598131920814  1.0000
  C   C6        1.0  0.6716537993258312  0.07798144837098418  0.376637843233368  1.0000
  C   C7        1.0  0.3724646013778282  0.7362080596686624  0.6632495370860951  1.0000
  C   C8        1.0  0.8724592114327336  0.26379159883618536  0.3367511084906241  1.0000
  C   C9        1.0  0.3613092204821058  0.7319079973091789  0.7947617229803613  1.0000
  C   C10       1.0  0.8613070085440523  0.26809266074368304  0.2052371951743908  1.0000
  C   C11       1.0  0.4458611390915975  0.8286122386620676  0.8671227761293637  1.0000
  C   C12       1.0  0.9458618317018901  0.17138873990314346  0.1328771116359206  1.0000
  C   C13       1.0  0.4288119432942921  0.8272852328208982  0.9880782568560207  1.0000
  C   C14       1.0  0.9288147015696921  0.1727167003298149  0.0119190219806526  1.0000
  C   C15       1.0  0.3317960555906153  0.7303868420667213  0.0381974912282175  1.0000
  C   C16       1.0  0.8317993975079856  0.26961257673178113  0.9617996091835507  1.0000
  C   C17       1.0  0.24934906377362145  0.6323637373367959  0.96539657472065  1.0000
  C   C18       1.0  0.7493514283877686  0.36763548989637934  0.0346039329619217  1.0000
  C   C19       1.0  0.2634340429122517  0.6346635485418802  0.8439932809419375  1.0000
  C   C20       1.0  0.7634332221662418  0.3653367423335253  0.1560046526816521  1.0000
  C   C21       1.0  0.14507897830782207  0.525123158998788  0.01767614562849219  1.0000
  C   C22       1.0  0.6450797263610467  0.47487671727049735  0.9823216554295655  1.0000
  C   C23       1.0  0.04945360264149199  0.5870844668905022  0.2200394427867565  1.0000
  C   C24       1.0  0.5494538419764224  0.4129150987072308  0.7799591260680571  1.0000
  C   C25       1.0  0.8712403049722682  0.7396282607816074  0.1840569456372947  1.0000
  C   C26       1.0  0.37123640845565115  0.26037463086930057  0.8159429283048497  1.0000
  C   C27       1.0  0.9324019974261261  0.6944780963187399  0.0779268562662807  1.0000
  C   C28       1.0  0.43240064633582154  0.305527208403241  0.922074030847682  1.0000
  C   C29       1.0  0.5565370923362918  0.5253399791694163  0.4354099233945377  1.0000
  C   C30       1.0  0.0565414143765679  0.4746619316309691  0.5645939725839639  1.0000
  C   C31       1.0  0.41383350848662553  0.5256540656710129  0.36401007520110795  1.0000
  C   C32       1.0  0.913831526062232  0.47434134013600027  0.6359887273841736  1.0000
  C   C33       1.0  0.37061526020948315  0.37284302254979446  0.314261623932417  1.0000
  C   C34       1.0  0.8706217086548519  0.6271534650070336  0.6857424145571898  1.0000
  Br  Br1       1.0  0.5392850637043836  0.9616394722991471  0.08755430543394739  1.0000
  Br  Br2       1.0  0.039290570213246695  0.03836126650511319  0.9124486614370183  1.0000
  N   N1        1.0  0.3237247090589007  0.1047844436792715  0.5805487910259615  1.0000
  N   N2        1.0  0.823723908878513  0.8952161556559375  0.4194527097456984  1.0000
  N   N3        1.0  0.31844546470976093  0.8754984698642402  0.6247531321197854  1.0000
  N   N4        1.0  0.8184407529906393  0.1245009507797477  0.3752457031428591  1.0000
  N   N5        1.0  0.9456327401543021  0.6724156802966377  0.2719180703292707  1.0000
  N   N6        1.0  0.4456300731987213  0.32758421021384276  0.728081782298169  1.0000
  N   N7        1.0  0.04411593445137639  0.5975923371291927  0.1025900164080014  1.0000
  N   N8        1.0  0.5441174212393775  0.4024094085838499  0.8974094911337148  1.0000
  O   O1        1.0  0.559331474299725  0.44937828019933324  0.5268635763165364  1.0000
  O   O2        1.0  0.05934151935099409  0.5506335715226883  0.4731458861433921  1.0000
  O   O3        1.0  0.6668967976833426  0.5962632328995099  0.4025323583212099  1.0000
  O   O4        1.0  0.1668942140067671  0.4037336525593886  0.5974723617682756  1.0000
  O   O5        1.0  0.36748561169052607  0.2697075106885621  0.38646504052147884  1.0000
  O   O6        1.0  0.8674867380667876  0.730290028830268  0.6135381544353322  1.0000
  O   O7        1.0  0.33911335284518873  0.3535916432020513  0.208166021962171  1.0000
  O   O8        1.0  0.8391289561995449  0.6464058698933924  0.7918397659372687  1.0000
