data_image0
_chemical_formula_structural       Er4Ag4H24C48N16O32
_chemical_formula_sum              "Er4 Ag4 H24 C48 N16 O32"
_cell_length_a       8.032351703
_cell_length_b       10.033434725273361
_cell_length_c       18.3968
_cell_angle_alpha    90.0
_cell_angle_beta     90.0
_cell_angle_gamma    95.40176105824933

_space_group_name_H-M_alt    "P 1"
_space_group_IT_number       1

loop_
  _space_group_symop_operation_xyz
  'x, y, z'

loop_
  _atom_site_type_symbol
  _atom_site_label
  _atom_site_symmetry_multiplicity
  _atom_site_fract_x
  _atom_site_fract_y
  _atom_site_fract_z
  _atom_site_occupancy
  Er  Er1       1.0  0.24279226477264612  0.3613018775235801  0.10645220907984049  1.0000
  Er  Er2       1.0  0.25720573241716244  0.6387014301555709  0.6064516655070449  1.0000
  Er  Er3       1.0  0.7572060134460868  0.6386994279284792  0.8935505087841377  1.0000
  Er  Er4       1.0  0.7427940262119533  0.3613018775235801  0.3935483344929551  1.0000
  Ag  Ag1       1.0  0.8958072374908426  0.8521308285290985  0.0730197643068351  1.0000
  Ag  Ag2       1.0  0.6042006251270919  0.1478734802635913  0.5730170464428567  1.0000
  Ag  Ag3       1.0  0.1041985105203267  0.14787047692296082  0.9269840407027345  1.0000
  Ag  Ag4       1.0  0.3957996721325046  0.8521238207342992  0.4269824099843476  1.0000
  H   H1        1.0  0.3813347900819437  0.5554418201583289  0.3818473865020025  1.0000
  H   H2        1.0  0.11866268623596454  0.4445464708176773  0.881849560793185  1.0000
  H   H3        1.0  0.6186634381548329  0.4445484730447617  0.6181509827796106  1.0000
  H   H4        1.0  0.8813360128907632  0.5554478268395826  0.1181520699252019  1.0000
  H   H5        1.0  0.23088787112941841  0.8660993657889621  0.2562972908331886  1.0000
  H   H6        1.0  0.26912097758157927  0.1339009385495515  0.756293485823619  1.0000
  H   H7        1.0  0.7691132002056309  0.133893930754752  0.7437043398851984  1.0000
  H   H8        1.0  0.7308940737998668  0.8661053724702228  0.24370597060358526  1.0000
  H   H9        1.0  0.1951242559775892  0.7094130830098848  0.1483263393633649  1.0000
  H   H10       1.0  0.3048789565188201  0.2905922268963437  0.6483257957905693  1.0000
  H   H11       1.0  0.804877286247411  0.2905842179880054  0.8516742042094307  1.0000
  H   H12       1.0  0.69511991031235  0.7094140841234235  0.35167583492781057  1.0000
  H   H13       1.0  0.4827335624981259  0.8598774451217183  0.08460819272917057  1.0000
  H   H14       1.0  0.0172713158716888  0.1401208569897108  0.5846022134284253  1.0000
  H   H15       1.0  0.5172668524839567  0.1401208569897108  0.9153983301443702  1.0000
  H   H16       1.0  0.982727736422504  0.8598764440081794  0.41538963297964665  1.0000
  H   H17       1.0  0.8865426758968056  0.1524796036730862  0.0848663898069262  1.0000
  H   H18       1.0  0.6134587264491245  0.847522702892519  0.5848663898069262  1.0000
  H   H19       1.0  0.1134579745302489  0.8475207006654344  0.9151368716298477  1.0000
  H   H20       1.0  0.3865400904000893  0.1524725958782867  0.4151292616107156  1.0000
  H   H21       1.0  0.686607650513622  0.3316378821428572  0.0934689728648479  1.0000
  H   H22       1.0  0.8133945259077606  0.6683604199685719  0.5934667985736651  1.0000
  H   H23       1.0  0.3133938917113781  0.6683594188550331  0.9065337449991304  1.0000
  H   H24       1.0  0.18660689859475352  0.3316358799157726  0.4065261349799981  1.0000
  C   C1        1.0  0.4021106079749117  0.3725994438517972  0.2707373021395014  1.0000
  C   C2        1.0  0.09788532019207712  0.6273968560325542  0.7707400200034797  1.0000
  C   C3        1.0  0.5978887974867392  0.6274008604867235  0.7292610671421116  1.0000
  C   C4        1.0  0.9021048996217756  0.3725994438517972  0.2292599799965203  1.0000
  C   C5        1.0  0.3368284456310207  0.5087198511252852  0.2689163332753495  1.0000
  C   C6        1.0  0.1631688452238649  0.49127744987260513  0.7689195947121235  1.0000
  C   C7        1.0  0.6631729788714935  0.49127644875905935  0.7310825795790591  1.0000
  C   C8        1.0  0.8368252272086991  0.5087198511252852  0.23108149243346787  1.0000
  C   C9        1.0  0.3434376320289303  0.5919324087860218  0.3295214385110441  1.0000
  C   C10       1.0  0.1565621487567697  0.4080648922118684  0.8295198077926571  1.0000
  C   C11       1.0  0.6565623120632011  0.40806188887123807  0.6704780179161602  1.0000
  C   C12       1.0  0.8434373744273742  0.591936413240191  0.1704796486345472  1.0000
  C   C13       1.0  0.256951410438333  0.7615841130552852  0.260627935293094  1.0000
  C   C14       1.0  0.2430502039252005  0.23841819351031293  0.7606268481475027  1.0000
  C   C15       1.0  0.7430502495091532  0.23841418905614384  0.7393736954252929  1.0000
  C   C16       1.0  0.756953828230607  0.7615791074875773  0.2393742389980886  1.0000
  C   C17       1.0  0.23811097840935247  0.6756975811222716  0.2007620890589692  1.0000
  C   C18       1.0  0.2618911745846688  0.3242987187620727  0.7007642633501447  1.0000
  C   C19       1.0  0.7618879561623474  0.3242987187620727  0.7992368237954395  1.0000
  C   C20       1.0  0.7381093581198996  0.675700584462902  0.2992346495042639  1.0000
  C   C21       1.0  0.2334045860255571  0.0343742345986442  0.0934271177596102  1.0000
  C   C22       1.0  0.2665997537137699  0.9656300741940456  0.5934254870412232  1.0000
  C   C23       1.0  0.7665966530139414  0.9656310753075915  0.9065766872499594  1.0000
  C   C24       1.0  0.7334028480136183  0.0343762368257288  0.4065679900852287  1.0000
  C   C25       1.0  0.4202394721824804  0.0650173190240224  0.0924736910767123  1.0000
  C   C26       1.0  0.0797652884648414  0.9349799819738678  0.5924693424943469  1.0000
  C   C27       1.0  0.5797633150079307  0.9349799819738678  0.907533918942427  1.0000
  C   C28       1.0  0.9202378518930274  0.06502032236464571  0.4075208731953381  1.0000
  C   C29       1.0  0.5297237763255751  0.965359773537543  0.0872564793877189  1.0000
  C   C30       1.0  0.9702771551304039  0.034638528573886204  0.587251587232565  1.0000
  C   C31       1.0  0.47027539369110366  0.034638528573886204  0.9127494999130262  1.0000
  C   C32       1.0  0.02972100536583612  0.9653617757646276  0.4127386284571202  1.0000
  C   C33       1.0  0.7519769266337876  0.1274097183393508  0.0866503957209943  1.0000
  C   C34       1.0  0.7480284460533398  0.872594590453339  0.586649308575403  1.0000
  C   C35       1.0  0.24802781185695016  0.8725935893398004  0.9133523221429841  1.0000
  C   C36       1.0  0.2519722043737218  0.1274057138851745  0.4133468864150274  1.0000
  C   C37       1.0  0.6413797368473766  0.22612952477492607  0.0915131979474708  1.0000
  C   C38       1.0  0.8586213123310955  0.7738697784500488  0.5915099365106967  1.0000
  C   C39       1.0  0.358620795857192  0.7738697784500488  0.9084916942076902  1.0000
  C   C40       1.0  0.1413814748593154  0.22612752254784144  0.4084813663245797  1.0000
  C   C41       1.0  0.9566108691121826  0.43152899142327783  0.9880457470864528  1.0000
  C   C42       1.0  0.5433984739161346  0.5684773195964965  0.48804302922247433  1.0000
  C   C43       1.0  0.043392977580616304  0.5684773195964965  0.0119591450687082  1.0000
  C   C44       1.0  0.4566107058057439  0.43153199476390114  0.5119547964863429  1.0000
  C   C45       1.0  0.5430640696718214  0.5392608219693217  0.0322028831101093  1.0000
  C   C46       1.0  0.9569302837896672  0.460734476801484  0.5321979909549482  1.0000
  C   C47       1.0  0.4569286400728529  0.46073547791502995  0.9678020090450516  1.0000
  C   C48       1.0  0.043065386775765505  0.5392658275370295  0.46779983475386894  1.0000
  N   N1        1.0  0.2765399912748308  0.5487203438333239  0.20527917898765213  1.0000
  N   N2        1.0  0.2234575350250267  0.45127895939164386  0.7052808097060392  1.0000
  N   N3        1.0  0.7234626781930944  0.45127595605102044  0.7947208210123478  1.0000
  N   N4        1.0  0.7765355278871058  0.5487203438333239  0.29471864672117215  1.0000
  N   N5        1.0  0.3053473306695622  0.7186033053309303  0.3256153244042466  1.0000
  N   N6        1.0  0.19465470460197315  0.2813919934398683  0.8256136936858596  1.0000
  N   N7        1.0  0.6946522602551043  0.2813879889856992  0.6743863063141404  1.0000
  N   N8        1.0  0.8053460635475745  0.718609312012191  0.1743868498869361  1.0000
  N   N9        1.0  0.4761277643111584  0.19567865414972374  0.0935108279700785  1.0000
  N   N10       1.0  0.023870771509130927  0.8043186468481667  0.5935075665333116  1.0000
  N   N11       1.0  0.5238712879830345  0.8043186468481667  0.9064951513306666  1.0000
  N   N12       1.0  0.9761297611954376  0.1956806563768083  0.4064842798747605  1.0000
  N   N13       1.0  0.6958731596857249  0.9971110906545775  0.0833846103670197  1.0000
  N   N14       1.0  0.8041306148685339  0.0028902147974819  0.5833808053574501  1.0000
  N   N15       1.0  0.304126245775926  0.0028892136839360006  0.9166197382153384  1.0000
  N   N16       1.0  0.1958685551481452  0.9971080873139543  0.4166132153417976  1.0000
  O   O1        1.0  0.35846260330399105  0.2955287177748929  0.2182200165246115  1.0000
  O   O2        1.0  0.1415294722442937  0.7044665809959056  0.7182216472429985  1.0000
  O   O3        1.0  0.6415336058919222  0.7044655798823669  0.7817827013393666  1.0000
  O   O4        1.0  0.858462110257456  0.2955307200019845  0.28178052704818407  1.0000
  O   O5        1.0  0.4963083451013333  0.34791999279967467  0.3234399460775776  1.0000
  O   O6        1.0  0.003686338100251915  0.6520763070846769  0.8234421203687603  1.0000
  O   O7        1.0  0.5036899331174  0.6520813126523921  0.676560597495218  1.0000
  O   O8        1.0  0.9963013917828007  0.34791999279967467  0.1765562489128527  1.0000
  O   O9        1.0  0.17676803505539604  0.9129164406085551  0.0914131805531397  1.0000
  O   O10       1.0  0.32323132482230926  0.0870878681841347  0.5914120934075484  1.0000
  O   O11       1.0  0.8232326153716656  0.08708386372996561  0.9085911680292256  1.0000
  O   O12       1.0  0.6767664147659431  0.9129194439491854  0.4085802965733193  1.0000
  O   O13       1.0  0.1487492282013889  0.13574498969502  0.09423160549660989  1.0000
  O   O14       1.0  0.3512562387808557  0.864258317984124  0.5942354105061725  1.0000
  O   O15       1.0  0.8512513045031797  0.8642543135299549  0.9057678509305944  1.0000
  O   O16       1.0  0.6487461275015605  0.1357459908085588  0.4057662202122074  1.0000
  O   O17       1.0  0.0127886643063633  0.328989936822687  0.015608149243348602  1.0000
  O   O18       1.0  0.4872187539762152  0.6710193775377107  0.515605974952166  1.0000
  O   O19       1.0  0.98721090885973  0.6710223808783412  0.9843956557662209  1.0000
  O   O20       1.0  0.5127880535373421  0.32899093793623285  0.4843934814750384  1.0000
  O   O21       1.0  0.49717743210966603  0.501922290171045  0.0955095451382846  1.0000
  O   O22       1.0  0.00281837833483681  0.4980730085997608  0.5955079144198976  1.0000
  O   O23       1.0  0.502820610664088  0.4980770130539299  0.9044915420073067  1.0000
  O   O24       1.0  0.9971730864444338  0.5019232912845908  0.4044904548617154  1.0000
  O   O25       1.0  0.8387377744689887  0.43392365501716773  0.9425226126282807  1.0000
  O   O26       1.0  0.6612723926167376  0.5660896637973991  0.44251989476430953  1.0000
  O   O27       1.0  0.16126666083624033  0.5660876615703146  0.0574801052356904  1.0000
  O   O28       1.0  0.3387407574463381  0.43392165279008316  0.5574795616628947  1.0000
  O   O29       1.0  0.6534438689773339  0.6329780640325353  0.015806009740821  1.0000
  O   O30       1.0  0.8465583074440559  0.36702023807889367  0.5158016611584628  1.0000
  O   O31       1.0  0.3465547624088572  0.3670262447601545  0.9841977952687415  1.0000
  O   O32       1.0  0.1534394998847262  0.6329770629189895  0.48419888241433273  1.0000
