data_image0
_chemical_formula_structural       Cd4H20C36N16O14
_chemical_formula_sum              "Cd4 H20 C36 N16 O14"
_cell_length_a       8.054664741954836
_cell_length_b       9.239420697369889
_cell_length_c       15.17534472037569
_cell_angle_alpha    101.07851344872124
_cell_angle_beta     95.78047173481389
_cell_angle_gamma    99.6869425828113

_space_group_name_H-M_alt    "P 1"
_space_group_IT_number       1

loop_
  _space_group_symop_operation_xyz
  'x, y, z'

loop_
  _atom_site_type_symbol
  _atom_site_label
  _atom_site_symmetry_multiplicity
  _atom_site_fract_x
  _atom_site_fract_y
  _atom_site_fract_z
  _atom_site_occupancy
  Cd  Cd1       1.0  0.31634758676305813  0.3453662741926849  0.9323258864013082  1.0000
  Cd  Cd2       1.0  0.6836477433610639  0.6546325911083316  0.06767732094598951  1.0000
  Cd  Cd3       1.0  0.47392501099254514  0.19272212535442895  0.6214269866099966  1.0000
  Cd  Cd4       1.0  0.5260764116976304  0.8072754962733345  0.3785698517985523  1.0000
  H   H1        1.0  0.7051185673632787  0.40844647559923436  0.5520293363287365  1.0000
  H   H2        1.0  0.29488650278752715  0.5915624646781695  0.44797490259337275  1.0000
  H   H3        1.0  0.5237502625023112  0.38970608537741924  0.4935069061504862  1.0000
  H   H4        1.0  0.47624830468765117  0.6103299027698768  0.506501923942686  1.0000
  H   H5        1.0  0.3925490145206254  0.7897463794075535  0.7908498125041559  1.0000
  H   H6        1.0  0.6074583453657498  0.21026701285062196  0.20915241865140638  1.0000
  H   H7        1.0  0.24694144302787183  0.8528880770216177  0.060623779351942624  1.0000
  H   H8        1.0  0.7530482159165075  0.14710737928317746  0.9393747618030303  1.0000
  H   H9        1.0  0.05385933740299011  0.10628249998647733  0.7917654176325682  1.0000
  H   H10       1.0  0.9461450131593878  0.8937174166569479  0.20823580182057813  1.0000
  H   H11       1.0  0.9544103621369685  0.5203585727847087  0.9182584089335109  1.0000
  H   H12       1.0  0.04557875662870711  0.4796389545775385  0.0817278084577069  1.0000
  H   H13       1.0  0.6879554226157725  0.47617119000347696  0.8105193737157634  1.0000
  H   H14       1.0  0.3120353720410804  0.5238173898496682  0.18946990504502279  1.0000
  H   H15       1.0  0.136845639330005  0.7808336605207559  0.556991090698311  1.0000
  H   H16       1.0  0.8631481994676237  0.21917533332447192  0.44301315117628787  1.0000
  H   H17       1.0  0.01638560733695733  0.4433068019271361  0.32220231959717427  1.0000
  H   H18       1.0  0.9836355156147506  0.5566952413830961  0.6777961700030629  1.0000
  H   H19       1.0  0.738901006989778  0.5271236842489985  0.28563826131739484  1.0000
  H   H20       1.0  0.26111273097610177  0.4728726787938486  0.7143532323064078  1.0000
  C   C1        1.0  0.3399275905579984  0.005936002668839498  0.8496651852750075  1.0000
  C   C2        1.0  0.660077175301744  0.9940718615716978  0.15034221158119723  1.0000
  C   C3        1.0  0.3544772948623631  0.8579806578274757  0.8492648593024086  1.0000
  C   C4        1.0  0.6455407531003632  0.1420304715173799  0.15073972813378586  1.0000
  C   C5        1.0  0.3250152546605421  0.8026313157074014  0.9270108590071613  1.0000
  C   C6        1.0  0.6750073022057566  0.19737752745461992  0.07299242279893998  1.0000
  C   C7        1.0  0.2740757268254442  0.8936219987388159  3.1579131302855955e-05  1.0000
  C   C8        1.0  0.7259256196752093  0.10637568970601312  0.9999698753514961  1.0000
  C   C9        1.0  0.25980741237130184  0.0403748746951393  0.9948454182940265  1.0000
  C   C10       1.0  0.7401829173623684  0.9596183960086649  0.005157533354562806  1.0000
  C   C11       1.0  0.3742147798741088  0.07819209062867571  0.7708380757648354  1.0000
  C   C12       1.0  0.6257792735097213  0.9218124319076966  0.2291676603230641  1.0000
  C   C13       1.0  0.3451945705533888  0.6457760661851427  0.9304534064611046  1.0000
  C   C14       1.0  0.6548166113007738  0.3542259876203318  0.0695425212778673  1.0000
  C   C15       1.0  0.2058049573139158  0.14856517827887936  0.07164712991047399  1.0000
  C   C16       1.0  0.7941848317740607  0.8514315067875063  0.9283588043372502  1.0000
  C   C17       1.0  0.8136776731874849  0.06030010477146421  0.6449421191373546  1.0000
  C   C18       1.0  0.1863177196108056  0.9396930795496986  0.3550565082088468  1.0000
  C   C19       1.0  0.8353138456429082  0.8840828334682201  0.5402114811053663  1.0000
  C   C20       1.0  0.16468254400417243  0.11590922219821923  0.45978707992200185  1.0000
  C   C21       1.0  0.8416966079390065  0.17846217894231844  0.7262738764846688  1.0000
  C   C22       1.0  0.1582988501645772  0.8215309481070676  0.2737207942264633  1.0000
  C   C23       1.0  0.978401330087927  0.19348137561067352  0.7940539755393843  1.0000
  C   C24       1.0  0.021594323464555087  0.8065129229285335  0.20594413162943684  1.0000
  C   C25       1.0  0.9201375349739108  0.4182825884430344  0.8654225547299885  1.0000
  C   C26       1.0  0.07984661295584065  0.5817050352831717  0.1345761116418416  1.0000
  C   C27       1.0  0.7732583142083629  0.3960452236529052  0.8031770754513372  1.0000
  C   C28       1.0  0.22673011715454558  0.6039445947446114  0.19681945051627284  1.0000
  C   C29       1.0  0.8884865577793235  0.7630632890931538  0.4802493644538899  1.0000
  C   C30       1.0  0.11151761084950354  0.2369410702232387  0.5197483824684213  1.0000
  C   C31       1.0  0.04609521385464896  0.7206301150600539  0.49762086528394883  1.0000
  C   C32       1.0  0.95391172248128  0.27938096285437564  0.5023764712737702  1.0000
  C   C33       1.0  0.9792733747262617  0.5358129320586259  0.36730764719521136  1.0000
  C   C34       1.0  0.020735495623903054  0.4641846888566763  0.6326916071886686  1.0000
  C   C35       1.0  0.8248901505557811  0.5804405688683403  0.3479833960506439  1.0000
  C   C36       1.0  0.17511619107305887  0.4195514667575467  0.652017067398809  1.0000
  N   N1        1.0  0.2968166140216368  0.09317983839978441  0.9216415121146679  1.0000
  N   N2        1.0  0.7031769505064389  0.9068224270646182  0.0783632860104504  1.0000
  N   N3        1.0  0.6784427509378048  0.0450882967050816  0.5811959452852165  1.0000
  N   N4        1.0  0.3215530736640133  0.9549015687064468  0.41880629385362056  1.0000
  N   N5        1.0  0.6913176074147531  0.9313257569428118  0.5145710114273712  1.0000
  N   N6        1.0  0.30868050692262733  0.06866856044949542  0.485429219944919  1.0000
  N   N7        1.0  0.9170938836412219  0.9622775875364125  0.6218375815448595  1.0000
  N   N8        1.0  0.08289525116363453  0.0377100166242244  0.3781613765988325  1.0000
  N   N9        1.0  0.7363576380462149  0.27842589745187496  0.7327369154886154  1.0000
  N   N10       1.0  0.26363526956760813  0.7215616633987025  0.2672602831664435  1.0000
  N   N11       1.0  0.020384159523281712  0.31535305063940916  0.8614066200782629  1.0000
  N   N12       1.0  0.9796173093348843  0.6846501565152467  0.13858820393960516  1.0000
  N   N13       1.0  0.7807983282466111  0.693832797947927  0.40399243878967883  1.0000
  N   N14       1.0  0.21920507725693034  0.3061625759156712  0.5960049264203847  1.0000
  N   N15       1.0  0.08986210273729259  0.6080244080228924  0.44114602270601466  1.0000
  N   N16       1.0  0.9101455235252303  0.3919788414918771  0.5588537821009252  1.0000
  O   O1        1.0  0.5795761867241184  0.40702361582587093  0.5557839735559398  1.0000
  O   O2        1.0  0.4204278295256785  0.59298087712466  0.4442230055148641  1.0000
  O   O3        1.0  0.3786606541653228  0.21967339472649883  0.7810321950431032  1.0000
  O   O4        1.0  0.6213336490884842  0.7803322515732066  0.2189736803065969  1.0000
  O   O5        1.0  0.3978722683546183  0.9951368506645014  0.6983616799001595  1.0000
  O   O6        1.0  0.6021245853889496  0.004874361834026799  0.3016416675056134  1.0000
  O   O7        1.0  0.3293304816331144  0.5503048198778375  0.8566132360012942  1.0000
  O   O8        1.0  0.670666782612557  0.44970174949651215  0.14337973571257118  1.0000
  O   O9        1.0  0.3727892776290815  0.6121203760192417  0.008324576756905332  1.0000
  O   O10       1.0  0.6272236671899877  0.3878726539147765  0.9916691368382116  1.0000
  O   O11       1.0  0.14387427924138763  0.0928381390208273  0.132533679715408  1.0000
  O   O12       1.0  0.8561028854845605  0.9071461378723317  0.8674642041561924  1.0000
  O   O13       1.0  0.22959070236086632  0.2877217288742955  0.0660733541972292  1.0000
  O   O14       1.0  0.7704224727238869  0.7122794109268612  0.9339377472669809  1.0000
