data_image0
_chemical_formula_structural       Cu8H56C112O32
_chemical_formula_sum              "Cu8 H56 C112 O32"
_cell_length_a       18.268322185018672
_cell_length_b       18.268296368074196
_cell_length_c       24.506618933071465
_cell_angle_alpha    105.41227547195398
_cell_angle_beta     105.41229067521203
_cell_angle_gamma    106.68504869554349

_space_group_name_H-M_alt    "P 1"
_space_group_IT_number       1

loop_
  _space_group_symop_operation_xyz
  'x, y, z'

loop_
  _atom_site_type_symbol
  _atom_site_label
  _atom_site_symmetry_multiplicity
  _atom_site_fract_x
  _atom_site_fract_y
  _atom_site_fract_z
  _atom_site_occupancy
  Cu  Cu1       1.0  0.995863311155922  0.5488413111638549  0.04282396924870818  1.0000
  Cu  Cu2       1.0  0.5469708641001104  0.49395663415847224  0.042794836366951416  1.0000
  Cu  Cu3       1.0  0.9511566366027534  0.5041376739558385  0.4571744601835305  1.0000
  Cu  Cu4       1.0  0.006042966072271789  0.9530287536012878  0.45720384851465207  1.0000
  Cu  Cu5       1.0  0.004133576216446488  0.45115246519444674  0.9571681173974937  1.0000
  Cu  Cu6       1.0  0.45302542481326913  0.506042218014471  0.9571984851546702  1.0000
  Cu  Cu7       1.0  0.04884631880692327  0.49586615621714  0.5428292322187858  1.0000
  Cu  Cu8       1.0  0.9939573860788968  0.046973992842054925  0.5427997011543084  1.0000
  H   H1        1.0  0.5625473921967483  0.7690082871825721  0.9905363811529141  1.0000
  H   H2        1.0  0.8216787197024686  0.880019970877875  0.17102590260699196  1.0000
  H   H3        1.0  0.6480896417513049  0.9187167480496825  0.034747823414328124  1.0000
  H   H4        1.0  0.7343259931651359  0.7312074742994666  0.1276571309768072  1.0000
  H   H5        1.0  0.8061004657664695  0.992519222874634  0.22623778144816245  1.0000
  H   H6        1.0  0.9118349611897115  0.03911479862004778  0.3114508497382147  1.0000
  H   H7        1.0  0.9280078699803835  0.22163509590474392  0.9905672321208951  1.0000
  H   H8        1.0  0.8493505370381483  0.2909501387040336  0.17105006053032673  1.0000
  H   H9        1.0  0.8866608500361365  0.11608435169763712  0.03471708371854022  1.0000
  H   H10       1.0  0.8933037461553395  0.39644634276074686  0.12772355806841051  1.0000
  H   H11       1.0  0.9201880064344576  0.23378849365049345  0.22625107292274296  1.0000
  H   H12       1.0  0.8997404409717756  0.27239280306082475  0.31149598958455016  1.0000
  H   H13       1.0  0.7309920320701337  0.9374524346077492  0.5094638513664194  1.0000
  H   H14       1.0  0.6199798140779933  0.6783209150250755  0.32897417971935994  1.0000
  H   H15       1.0  0.581282306719842  0.8519105772592539  0.4652518248980613  1.0000
  H   H16       1.0  0.7687922967442089  0.7656736581741937  0.3723435699645137  1.0000
  H   H17       1.0  0.5074801461446938  0.6938986511613267  0.27376204822648725  1.0000
  H   H18       1.0  0.4608851946040247  0.5881642276234375  0.1885491255256113  1.0000
  H   H19       1.0  0.27836516488329704  0.5719923233291478  0.509433406713576  1.0000
  H   H20       1.0  0.20904872582008946  0.6506498744633404  0.3289501708177838  1.0000
  H   H21       1.0  0.38391613315523176  0.6133391263313824  0.46528256550624997  1.0000
  H   H22       1.0  0.10355299988185601  0.6066966394893711  0.37227725681297835  1.0000
  H   H23       1.0  0.26621218713780337  0.5798127228753387  0.2737490177222455  1.0000
  H   H24       1.0  0.22760669391185925  0.6002588060508529  0.18850300202038275  1.0000
  H   H25       1.0  0.4374524508265978  0.23099337132097025  0.009462962803539178  1.0000
  H   H26       1.0  0.1783175555763918  0.11997623843987511  0.8289723431879352  1.0000
  H   H27       1.0  0.3519107205602908  0.08128486291426618  0.9652520415161306  1.0000
  H   H28       1.0  0.2656690159236065  0.2687903089600706  0.8723416895458058  1.0000
  H   H29       1.0  0.1938989287159742  0.00748047954014161  0.7737623506559713  1.0000
  H   H30       1.0  0.08816499136329971  0.9608845151547527  0.6885492268324355  1.0000
  H   H31       1.0  0.07199081972566991  0.7783633349048601  0.009432196575580967  1.0000
  H   H32       1.0  0.15065112850883372  0.7090476680504523  0.8289492729323626  1.0000
  H   H33       1.0  0.11333832525608056  0.8839138049330584  0.9652816000901794  1.0000
  H   H34       1.0  0.10669676446822508  0.603552582374078  0.8722764629687488  1.0000
  H   H35       1.0  0.07981328653011129  0.7662110208887398  0.7737484985070893  1.0000
  H   H36       1.0  0.10026218224392383  0.7276080477222351  0.688506761442973  1.0000
  H   H37       1.0  0.26900773165155567  0.062548016929277  0.49053726537241726  1.0000
  H   H38       1.0  0.3800214755434013  0.3216810564211483  0.6710266143123249  1.0000
  H   H39       1.0  0.4187173845174499  0.14808998873883863  0.534748602486509  1.0000
  H   H40       1.0  0.23120854607333288  0.23432824635055016  0.627657392447439  1.0000
  H   H41       1.0  0.4925204387003034  0.3061020486797187  0.72623804239754  1.0000
  H   H42       1.0  0.5391158758271359  0.41183619803869903  0.811450220210652  1.0000
  H   H43       1.0  0.7216339682834416  0.4280086313089198  0.4905670762044848  1.0000
  H   H44       1.0  0.790953233138566  0.34935125278145285  0.6710506805271876  1.0000
  H   H45       1.0  0.6160848934134151  0.3866622081708328  0.5347191991067533  1.0000
  H   H46       1.0  0.8964480317669936  0.393304127273147  0.6277226654307738  1.0000
  H   H47       1.0  0.7337897718208524  0.4201884043694476  0.726251833622733  1.0000
  H   H48       1.0  0.7723916704174768  0.39973796679642215  0.8114930231646438  1.0000
  H   H49       1.0  0.7782602889171668  0.028236484998330834  0.05647952556504515  1.0000
  H   H50       1.0  0.99010963907331  0.24008874179695963  0.48024488316293906  1.0000
  H   H51       1.0  0.47176429756873256  0.7217397392349413  0.4435207034619281  1.0000
  H   H52       1.0  0.2599113022344  0.5098889506928543  0.019755383784527694  1.0000
  H   H53       1.0  0.2217404071945382  0.9717637592812595  0.9435206779057665  1.0000
  H   H54       1.0  0.009888895503522057  0.7599110534141714  0.5197568515634926  1.0000
  H   H55       1.0  0.5282365098096733  0.2782600494831937  0.5564796128556608  1.0000
  H   H56       1.0  0.7400885053498167  0.4901105920040855  0.9802433140775688  1.0000
  C   C1        1.0  0.6423001955229708  0.7409735448829623  0.057070913298332436  1.0000
  C   C2        1.0  0.619510147014587  0.7938744822598309  0.03009427502286135  1.0000
  C   C3        1.0  0.7642405673973584  0.8562774720587853  0.13197207542744135  1.0000
  C   C4        1.0  0.7402951220618162  0.9106826785944905  0.10701462301114614  1.0000
  C   C5        1.0  0.668060131719059  0.877760551376248  0.05482119616087993  1.0000
  C   C6        1.0  0.7159890808212023  0.7727942012804689  0.10766116512217386  1.0000
  C   C7        1.0  0.7890497328622103  0.00017670350818103545  0.13800072731718416  1.0000
  C   C8        1.0  0.8208088281010076  0.033295041945251486  0.20193909771946744  1.0000
  C   C9        1.0  0.9198604418112166  0.10218884764594077  0.3349827778201869  1.0000
  C   C10       1.0  0.9496492266742107  0.13340568435364702  0.3986518525621675  1.0000
  C   C11       1.0  0.5888464939215439  0.6521080847081747  0.03434899429990414  1.0000
  C   C12       1.0  0.9658646888680593  0.08065710648101272  0.43373410484302605  1.0000
  C   C13       1.0  0.9148864883441162  0.3162037466314587  0.05718832838052629  1.0000
  C   C14       1.0  0.9106588351659608  0.23632100200569536  0.030148814657778245  1.0000
  C   C15       1.0  0.8677614175794657  0.27567821944346343  0.13201150572784573  1.0000
  C   C16       1.0  0.8667367531961003  0.19633397558133928  0.10701082465390495  1.0000
  C   C17       1.0  0.8867543425812059  0.17710163840079216  0.05480618109652352  1.0000
  C   C18       1.0  0.8917102793704144  0.3348854072464177  0.1077327307342983  1.0000
  C   C19       1.0  0.8490061251255057  0.13784436438591277  0.13799969542679227  1.0000
  C   C20       1.0  0.8812099694168294  0.1687041009740965  0.20193670258612423  1.0000
  C   C21       1.0  0.9152760070808693  0.23284366911614254  0.33501014526913747  1.0000
  C   C22       1.0  0.9490657820057535  0.2652544196649699  0.3986790238530062  1.0000
  C   C23       1.0  0.9455773486620273  0.3823479023535157  0.03445578990235983  1.0000
  C   C24       1.0  0.9679227309933792  0.3530882441821601  0.4337670538564282  1.0000
  C   C25       1.0  0.7590265927114429  0.8577008328005037  0.4429299846818892  1.0000
  C   C26       1.0  0.7061246631633296  0.8804894641396785  0.4699054549471099  1.0000
  C   C27       1.0  0.6437226184215131  0.7357601807773619  0.3680289237600148  1.0000
  C   C28       1.0  0.5893165438563058  0.7597035230564017  0.39298471911662586  1.0000
  C   C29       1.0  0.6222381713753008  0.8319389129009238  0.44517821469035107  1.0000
  C   C30       1.0  0.727205688907155  0.7840109980308512  0.392339411339627  1.0000
  C   C31       1.0  0.4998219868345117  0.7109498217361008  0.3619989560266034  1.0000
  C   C32       1.0  0.4667056667515368  0.6791926588819591  0.2980619943432217  1.0000
  C   C33       1.0  0.39781080741771996  0.5801390244141515  0.16501726759940982  1.0000
  C   C34       1.0  0.3665939822457389  0.5503488142318673  0.10134865754598368  1.0000
  C   C35       1.0  0.847892308908385  0.9111545009311469  0.4656511228187624  1.0000
  C   C36       1.0  0.4193410114414177  0.5341365386806843  0.06626445426542919  1.0000
  C   C37       1.0  0.18379894762948368  0.5851184464374909  0.4428145331597406  1.0000
  C   C38       1.0  0.2636813940767482  0.5893429446531613  0.46985173166014954  1.0000
  C   C39       1.0  0.22432147388958154  0.6322394234717806  0.36798895802947124  1.0000
  C   C40       1.0  0.3036657152115652  0.6332644888494059  0.3929887614245189  1.0000
  C   C41       1.0  0.3228991876064312  0.6132473018986602  0.4451935407687628  1.0000
  C   C42       1.0  0.16511398643488198  0.6082921528049496  0.39226869310042634  1.0000
  C   C43       1.0  0.36215507843628086  0.6509942652843177  0.3619995382636103  1.0000
  C   C44       1.0  0.33129554766967567  0.6187910984422944  0.2980629159702275  1.0000
  C   C45       1.0  0.2671560742610453  0.5847215195323586  0.16498927918153328  1.0000
  C   C46       1.0  0.23474382696244325  0.5509295914763827  0.10132092003821207  1.0000
  C   C47       1.0  0.11765286055017284  0.5544274597853728  0.4655450760490678  1.0000
  C   C48       1.0  0.1469108632946927  0.5320707086870513  0.0662292510889486  1.0000
  C   C49       1.0  0.3576970088027307  0.25902491408434225  0.9429276418304153  1.0000
  C   C50       1.0  0.38048966056962275  0.2061250604371093  0.9699044228392423  1.0000
  C   C51       1.0  0.23575879338299907  0.14372200371667507  0.8680267908149305  1.0000
  C   C52       1.0  0.2597021952676359  0.08931721397865985  0.8929834251969807  1.0000
  C   C53       1.0  0.3319387485553519  0.12223863083842419  0.9451765725999977  1.0000
  C   C54       1.0  0.28400901711220405  0.22720439152979532  0.892337053246031  1.0000
  C   C55       1.0  0.2109517438534567  0.9998222410085231  0.8619996463137056  1.0000
  C   C56       1.0  0.1791915324735528  0.9667046798514106  0.7980613869783965  1.0000
  C   C57       1.0  0.08013954618092362  0.8978125819354617  0.6650179448448199  1.0000
  C   C58       1.0  0.05035135817078634  0.8665950154873983  0.6013482380618597  1.0000
  C   C59       1.0  0.4111452612861585  0.347891534138654  0.965642859533503  1.0000
  C   C60       1.0  0.03413771181423186  0.9193446554249506  0.5662684204909283  1.0000
  C   C61       1.0  0.0851158061516913  0.6837979030962628  0.9428122417373928  1.0000
  C   C62       1.0  0.08934156592793849  0.7636802678578716  0.9698504737651916  1.0000
  C   C63       1.0  0.1322406172067615  0.7243203364332728  0.8679888123695533  1.0000
  C   C64       1.0  0.13326506239989305  0.8036630345113096  0.8929880451480798  1.0000
  C   C65       1.0  0.11324788277337908  0.8228976688810118  0.9451924770652765  1.0000
  C   C66       1.0  0.10829060383556294  0.66511181010366  0.8922670523357182  1.0000
  C   C67       1.0  0.1509953515901614  0.8621545801307916  0.8620006782040974  1.0000
  C   C68       1.0  0.11879139603213672  0.8312952991040702  0.7980635581979811  1.0000
  C   C69       1.0  0.08472323561552725  0.7671549407931761  0.6649910702630989  1.0000
  C   C70       1.0  0.050932791353382315  0.7347450344457795  0.6013221343659367  1.0000
  C   C71       1.0  0.05442830776072333  0.617647823147969  0.9655395396742746  1.0000
  C   C72       1.0  0.0320767308932516  0.6469119115112392  0.5662356099712297  1.0000
  C   C73       1.0  0.24097417254148468  0.14230175392500385  0.5570721307450412  1.0000
  C   C74       1.0  0.2938755473622123  0.11951105431882053  0.5300954934114585  1.0000
  C   C75       1.0  0.35627844692943006  0.2642408126244787  0.6319722643454995  1.0000
  C   C76       1.0  0.41068329742999754  0.24029624627985394  0.6070152446072328  1.0000
  C   C77       1.0  0.3777614068582479  0.16806021949133024  0.5548227196148403  1.0000
  C   C78       1.0  0.2727954489281855  0.21598988090991594  0.6076624661201605  1.0000
  C   C79       1.0  0.5001777465282586  0.28904794625461955  0.6379996722486254  1.0000
  C   C80       1.0  0.5332950681424719  0.3208072442972492  0.7019376326201012  1.0000
  C   C81       1.0  0.6021872483902159  0.4198623664034784  0.8349827498781367  1.0000
  C   C82       1.0  0.6334056667351647  0.44964831453201964  0.8986535858808793  1.0000
  C   C83       1.0  0.15210829787214677  0.08885190710288526  0.5343545212399691  1.0000
  C   C84       1.0  0.5806530771547781  0.46586220552418167  0.9337309750193084  1.0000
  C   C85       1.0  0.8162007790469444  0.4148842353672036  0.5571865403191864  1.0000
  C   C86       1.0  0.7363184826486844  0.4106589404896963  0.5301488781580729  1.0000
  C   C87       1.0  0.775679669025976  0.3677608877292894  0.6320110770610653  1.0000
  C   C88       1.0  0.6963371373547956  0.36673677223834  0.6070117531599095  1.0000
  C   C89       1.0  0.6771018777445122  0.38675369150317335  0.5548076473367516  1.0000
  C   C90       1.0  0.8348877112080614  0.39171022666312877  0.6077325090584721  1.0000
  C   C91       1.0  0.6378465500654398  0.34900577173784303  0.6379997519391692  1.0000
  C   C92       1.0  0.6687049646909313  0.3812097158598175  0.7019364852995266  1.0000
  C   C93       1.0  0.7328444414427367  0.41527683786276964  0.8350088994863755  1.0000
  C   C94       1.0  0.7652548644806597  0.44907072850050817  0.8986778888908656  1.0000
  C   C95       1.0  0.8823473482383333  0.4455711695058324  0.5344564920768987  1.0000
  C   C96       1.0  0.8530871739208762  0.4679225170306077  0.933763990352034  1.0000
  C   C97       1.0  0.8031527845399394  0.05312663187116576  0.10624469076601167  1.0000
  C   C98       1.0  0.8674189827040164  0.11740274923682377  0.23473775291208196  1.0000
  C   C99       1.0  0.9011902297699096  0.15113026790977813  0.30218602639550346  1.0000
  C   C100      1.0  0.9653758235221089  0.21534445975975539  0.4307068878837085  1.0000
  C   C101      1.0  0.4468706149265812  0.6968461380288532  0.3937543571392155  1.0000
  C   C102      1.0  0.3825979055348724  0.6325822387292419  0.26526212689570616  1.0000
  C   C103      1.0  0.3488706933643113  0.5988092452602416  0.1978150009134153  1.0000
  C   C104      1.0  0.28465285642104726  0.534619781822606  0.0692925489410072  1.0000
  C   C105      1.0  0.1968477260836251  0.9468722932636593  0.8937553302711405  1.0000
  C   C106      1.0  0.13258171340768832  0.8825974950427661  0.7652624505587297  1.0000
  C   C107      1.0  0.09881143243390511  0.8488699957516985  0.6978145296690313  1.0000
  C   C108      1.0  0.03462683847590132  0.7846560499229228  0.5692952866363186  1.0000
  C   C109      1.0  0.5531284103166313  0.3031528152636792  0.6062447903302084  1.0000
  C   C110      1.0  0.6174019374884737  0.36741941977430037  0.7347372170607471  1.0000
  C   C111      1.0  0.6511298509613396  0.4011899065138987  0.8021862859854989  1.0000
  C   C112      1.0  0.7153430141794385  0.46537356256629137  0.9307040661248533  1.0000
  O   O1        1.0  0.6114392517677699  0.6111524099218144  0.06598016648609935  1.0000
  O   O2        1.0  0.9773477732338449  0.016798741398097932  0.4073606107150668  1.0000
  O   O3        1.0  0.5244339421478442  0.6231416009994744  0.9859113938567176  1.0000
  O   O4        1.0  0.9670152692407115  0.10457722848197172  0.4881311032029316  1.0000
  O   O5        1.0  0.9546674501059157  0.4549476822500438  0.06610441954013872  1.0000
  O   O6        1.0  0.9300740945368488  0.3905523396312132  0.40736179747297996  1.0000
  O   O7        1.0  0.9614227901743745  0.3628513299765638  0.9859721073821602  1.0000
  O   O8        1.0  0.0211518783884231  0.38357744374629726  0.4881730140505312  1.0000
  O   O9        1.0  0.8888483606362596  0.888564028959486  0.4340217222424271  1.0000
  O   O10       1.0  0.4832009435187813  0.5226515022895981  0.0926407082080445  1.0000
  O   O11       1.0  0.8768575921426989  0.9755670773809657  0.5140907452684118  1.0000
  O   O12       1.0  0.39542504308755605  0.532982756740971  0.011869191415996684  1.0000
  O   O13       1.0  0.045052174371278335  0.5453318279458941  0.43389861408053315  1.0000
  O   O14       1.0  0.10945016119973157  0.5699248455544392  0.09263909272306849  1.0000
  O   O15       1.0  0.13715531380544363  0.5385822022497989  0.5140303695325911  1.0000
  O   O16       1.0  0.11641817255267024  0.47884741969024713  0.011824510302616869  1.0000
  O   O17       1.0  0.38856780417824405  0.3888532295109851  0.9340202377113939  1.0000
  O   O18       1.0  0.022651181262006003  0.9832022155227946  0.5926372276326859  1.0000
  O   O19       1.0  0.47555850407081823  0.3768504113557682  0.014086104590603542  1.0000
  O   O20       1.0  0.03298549588130582  0.8954191230019647  0.5118710291569499  1.0000
  O   O21       1.0  0.045325461378048874  0.5450463268850854  0.9338997034964365  1.0000
  O   O22       1.0  0.06992492562614676  0.6094471814010162  0.5926391923656951  1.0000
  O   O23       1.0  0.03858122092040619  0.6371588263070009  0.014026463160043103  1.0000
  O   O24       1.0  0.9788460240273265  0.6164272006401601  0.5118286896895724  1.0000
  O   O25       1.0  0.11114805626822026  0.11143440834311473  0.565979124862892  1.0000
  O   O26       1.0  0.5167970210900209  0.4773479278736159  0.9073653865577853  1.0000
  O   O27       1.0  0.12314785525878595  0.02443829208308997  0.48591297702047603  1.0000
  O   O28       1.0  0.6045857000312153  0.467012381186343  0.9881293926846196  1.0000
  O   O29       1.0  0.9549506816691673  0.4546732114764322  0.5661006609690914  1.0000
  O   O30       1.0  0.8905550214119626  0.4300779977983349  0.9073662199145429  1.0000
  O   O31       1.0  0.8628425126518238  0.46141877826315175  0.48597188438803574  1.0000
  O   O32       1.0  0.8835677624383675  0.5211568107310496  0.9881738200472654  1.0000
