data_image0
_chemical_formula_structural       CoH20C26N4O10
_chemical_formula_sum              "Co1 H20 C26 N4 O10"
_cell_length_a       7.498381678316018
_cell_length_b       8.70620852690434
_cell_length_c       9.92438682214762
_cell_angle_alpha    72.82140672511076
_cell_angle_beta     77.97528308234506
_cell_angle_gamma    74.94371748503423

_space_group_name_H-M_alt    "P 1"
_space_group_IT_number       1

loop_
  _space_group_symop_operation_xyz
  'x, y, z'

loop_
  _atom_site_type_symbol
  _atom_site_label
  _atom_site_symmetry_multiplicity
  _atom_site_fract_x
  _atom_site_fract_y
  _atom_site_fract_z
  _atom_site_occupancy
  Co  Co1       1.0  0.500000893074464  0.999996793271812  0.5000032604778466  1.0000
  H   H1        1.0  0.08503133195031866  0.4887774149079718  0.7398838444522085  1.0000
  H   H2        1.0  0.9149731622000559  0.5112175335902053  0.2601236211416946  1.0000
  H   H3        1.0  0.16387456725865956  0.0094051070552084  0.05061487683784088  1.0000
  H   H4        1.0  0.8361200959482178  0.9906019627972925  0.9493818042732584  1.0000
  H   H5        1.0  0.33510737891460707  0.8798522135397419  0.9553673563164651  1.0000
  H   H6        1.0  0.6648885122011023  0.12014992087844688  0.04462945175482959  1.0000
  H   H7        1.0  0.3132752533620932  0.16475565823451177  0.8131869460288073  1.0000
  H   H8        1.0  0.686722320890297  0.8352451952506996  0.1868059112432974  1.0000
  H   H9        1.0  0.342694631540617  0.22833407611933154  0.9608818401973093  1.0000
  H   H10       1.0  0.6573009654502614  0.7716692435306242  0.0391116721907991  1.0000
  H   H11       1.0  0.13408354259695443  0.6618779314408483  0.36895619355484394  1.0000
  H   H12       1.0  0.8659221679976955  0.3381230959419312  0.6310433993329027  1.0000
  H   H13       1.0  0.7873557911135621  0.7130299048669285  0.45613144774175396  1.0000
  H   H14       1.0  0.21264737334362147  0.2869649149009987  0.5438681999815527  1.0000
  H   H15       1.0  0.7565719858262626  0.21212321623583108  0.38031321833555853  1.0000
  H   H16       1.0  0.24342572144793456  0.7878716122845403  0.6196903080623172  1.0000
  H   H17       1.0  0.09214392758316595  0.18571036882533315  0.27234130204150375  1.0000
  H   H18       1.0  0.9078519437596526  0.8142918404033492  0.7276605274807862  1.0000
  H   H19       1.0  0.7416047024821851  0.3101389079471488  0.13911056392272056  1.0000
  H   H20       1.0  0.2583982973165746  0.6898620564824112  0.8608864489964103  1.0000
  C   C1        1.0  0.312719666319417  0.9758512033481564  0.012170219907289885  1.0000
  C   C2        1.0  0.6872756088645887  0.024153406268240498  0.9878270268290092  1.0000
  C   C3        1.0  0.3791587893194475  0.12605961236599228  0.9096509387727847  1.0000
  C   C4        1.0  0.6208357444210296  0.8739424980566353  0.09034508145930426  1.0000
  C   C5        1.0  0.13877762177276054  0.921021052233783  0.3100039889658958  1.0000
  C   C6        1.0  0.8612214274575439  0.07898482956315428  0.6899933298950315  1.0000
  C   C7        1.0  0.05203166548906782  0.7866564060008442  0.36352415764381607  1.0000
  C   C8        1.0  0.9479669443316895  0.21334576144637646  0.6364732218156985  1.0000
  C   C9        1.0  0.8620029552659646  0.8133794003992066  0.4134805224315482  1.0000
  C   C10       1.0  0.13799991111180532  0.18661661956258507  0.5865168338987699  1.0000
  C   C11       1.0  0.8431813316324511  0.09429716297068319  0.36799670186912425  1.0000
  C   C12       1.0  0.1568165248810375  0.9057025501690603  0.6320024639567662  1.0000
  C   C13       1.0  0.0305204528517393  0.0778486139836829  0.3107393469893934  1.0000
  C   C14       1.0  0.9694761876166568  0.9221559897040804  0.6892566790057156  1.0000
  C   C15       1.0  0.4147394590079756  0.3373953766743227  0.3038163130409543  1.0000
  C   C16       1.0  0.585263379687753  0.6626007480221503  0.6961880733207478  1.0000
  C   C17       1.0  0.4482611043555453  0.41897283608531666  0.14562783248776864  1.0000
  C   C18       1.0  0.5517377798171452  0.5810282209406309  0.8543778641059276  1.0000
  C   C19       1.0  0.6329391263457539  0.3938225910635396  0.07918223326218048  1.0000
  C   C20       1.0  0.3670624883957246  0.6061784541051407  0.9208210218491287  1.0000
  C   C21       1.0  0.6872876702808739  0.47215366466241454  0.9366997761439746  1.0000
  C   C22       1.0  0.3127156236427099  0.5278461145353859  0.06330053245834928  1.0000
  C   C23       1.0  0.8900790725930892  0.428097145222317  0.8855230187742789  1.0000
  C   C24       1.0  0.10992801079593315  0.5718928768750187  0.11448435732882703  1.0000
  C   C25       1.0  0.346985200184385  0.8903903328379172  0.27085591902100237  1.0000
  C   C26       1.0  0.6530111263862892  0.10961553089209268  0.7291418327419023  1.0000
  N   N1        1.0  0.7585258826319506  0.9650632932492937  0.4179772633894814  1.0000
  N   N2        1.0  0.24147257794951574  0.03493398957854769  0.5820244766420044  1.0000
  N   N3        1.0  0.4193107135418544  0.9118440666214694  0.13170242200149584  1.0000
  N   N4        1.0  0.5806862289605237  0.08815932191033939  0.8682948910964112  1.0000
  O   O1        1.0  0.45121686825748253  0.17831191560466658  0.33001924645404995  1.0000
  O   O2        1.0  0.5487821884827968  0.8216829668354604  0.6699870763634266  1.0000
  O   O3        1.0  0.3686933580344629  0.42677860449666116  0.38787218555907527  1.0000
  O   O4        1.0  0.6313128192525996  0.5732150630685381  0.6121313292356372  1.0000
  O   O5        1.0  0.9953361034544415  0.30690791040272103  0.9476443458182328  1.0000
  O   O6        1.0  0.0046637303205657255  0.6930893365722923  0.052354164891667714  1.0000
  O   O7        1.0  0.9518593234264472  0.5340846186426945  0.7645998131229204  1.0000
  O   O8        1.0  0.04814561013347433  0.46591404420519916  0.23540759187240204  1.0000
  O   O9        1.0  0.4458971942785724  0.8405796994843372  0.3688145595705519  1.0000
  O   O10       1.0  0.5540994382806661  0.159424934127621  0.6311834750049528  1.0000
