data_image0
_chemical_formula_structural       Ag8H24C48O16
_chemical_formula_sum              "Ag8 H24 C48 O16"
_cell_length_a       6.108525711827812
_cell_length_b       10.693033792481543
_cell_length_c       16.849641091905006
_cell_angle_alpha    98.59427501891815
_cell_angle_beta     90.0021950981543
_cell_angle_gamma    90.00208827590973

_space_group_name_H-M_alt    "P 1"
_space_group_IT_number       1

loop_
  _space_group_symop_operation_xyz
  'x, y, z'

loop_
  _atom_site_type_symbol
  _atom_site_label
  _atom_site_symmetry_multiplicity
  _atom_site_fract_x
  _atom_site_fract_y
  _atom_site_fract_z
  _atom_site_occupancy
  Ag  Ag1       1.0  0.6693724823646859  0.5868486231676612  0.5733973171524482  1.0000
  Ag  Ag2       1.0  0.16947242164593493  0.9131382879098952  0.4266218386308296  1.0000
  Ag  Ag3       1.0  0.3306252272767338  0.41315053875430857  0.42660831446291786  1.0000
  Ag  Ag4       1.0  0.8305482055237547  0.0868632354425714  0.5733650462428912  1.0000
  Ag  Ag5       1.0  0.04967479429866729  0.7223408075296617  0.539476166037602  1.0000
  Ag  Ag6       1.0  0.5497948395167  0.7776522758868935  0.4605580056209035  1.0000
  Ag  Ag7       1.0  0.9503147302805955  0.2776563601431974  0.4605334118840361  1.0000
  Ag  Ag8       1.0  0.4502094172791118  0.22234534704800513  0.5394332197407151  1.0000
  H   H1        1.0  0.3221431654852225  0.6726807592472496  0.699399558370537  1.0000
  H   H2        1.0  0.8221797034161397  0.8273270550497286  0.3006160160363435  1.0000
  H   H3        1.0  0.6778807381097636  0.32732282318279005  0.3006190003117197  1.0000
  H   H4        1.0  0.17783110250318399  0.1726731261261492  0.6993867544460811  1.0000
  H   H5        1.0  0.3332902969770472  0.8365340507965795  0.8186944874447448  1.0000
  H   H6        1.0  0.8333227284528061  0.6634897080916459  0.1813008916976528  1.0000
  H   H7        1.0  0.6667368801864414  0.1634630145721374  0.1813192348371331  1.0000
  H   H8        1.0  0.1666831656126817  0.33650688108791366  0.8186937869017328  1.0000
  H   H9        1.0  0.1600446194538492  0.9411795850816204  0.9446954975259985  1.0000
  H   H10       1.0  0.6600756351290897  0.5588599488865283  0.055295245542296784  1.0000
  H   H11       1.0  0.8399268974105639  0.058827200799463186  0.0553085570266774  1.0000
  H   H12       1.0  0.3398893332357246  0.44114405855195576  0.94470614420122  1.0000
  H   H13       1.0  0.8161170067653315  0.8512629830475902  0.9952652839855176  1.0000
  H   H14       1.0  0.3161604004252609  0.6487684094497013  0.004711153757646981  1.0000
  H   H15       1.0  0.18384632389420827  0.1487383781288329  0.004728112789877101  1.0000
  H   H16       1.0  0.6837980206823315  0.3512333395175844  0.9953048386754658  1.0000
  H   H17       1.0  0.6566729328090445  0.6551430583238227  0.9229384477685585  1.0000
  H   H18       1.0  0.1567321158248305  0.84487577977  0.07704238500254951  1.0000
  H   H19       1.0  0.34331004267185256  0.3448544175519075  0.07705869767941209  1.0000
  H   H20       1.0  0.8432394017709013  0.15511924673355543  0.9229770593770893  1.0000
  H   H21       1.0  0.668529750814514  0.47688176298682083  0.810383173183176  1.0000
  H   H22       1.0  0.1685622093798358  0.023096799727014197  0.1895880351777848  1.0000
  H   H23       1.0  0.33148760180072406  0.5231026644236464  0.18960489164358313  1.0000
  H   H24       1.0  0.8314322252198849  0.976897897924495  0.8104064455637641  1.0000
  C   C1        1.0  0.16960363655283567  0.4647973630307332  0.6012586845304142  1.0000
  C   C2        1.0  0.6696165001431706  0.03521548218423479  0.3987457961710916  1.0000
  C   C3        1.0  0.8304349997610314  0.5352132064424852  0.3987457659900997  1.0000
  C   C4        1.0  0.3303828461856071  0.9647828515039122  0.6012550003911699  1.0000
  C   C5        1.0  0.08476245944128641  0.5220485318078187  0.6813163970813605  1.0000
  C   C6        1.0  0.5847911858393073  0.977974030433927  0.3186724966909438  1.0000
  C   C7        1.0  0.9152614431586272  0.47796211088726187  0.3186850932512187  1.0000
  C   C8        1.0  0.4152097977239606  0.022036700063871692  0.6813254413862282  1.0000
  C   C9        1.0  0.17939551899221576  0.6295812994822114  0.7234382687552737  1.0000
  C   C10       1.0  0.679424744340885  0.870429093671177  0.2765614697275324  1.0000
  C   C11       1.0  0.8206316577082403  0.3704168877423442  0.27656844817352083  1.0000
  C   C12       1.0  0.3205778767667695  0.1295833814344647  0.7234425863592051  1.0000
  C   C13       1.0  0.09337853845107699  0.6858023363716086  0.7983513339916398  1.0000
  C   C14       1.0  0.5934280411258115  0.8141988162444348  0.20163005540772616  1.0000
  C   C15       1.0  0.9066191707405622  0.3141883583398126  0.20165163149530937  1.0000
  C   C16       1.0  0.40657785270107627  0.18579594026648044  0.7983620573160906  1.0000
  C   C17       1.0  0.1856577377373227  0.7973744795697469  0.8419141558911889  1.0000
  C   C18       1.0  0.6857040118591087  0.7026260300380615  0.1580697657623915  1.0000
  C   C19       1.0  0.8143563426020535  0.20262271776112328  0.1580942381289816  1.0000
  C   C20       1.0  0.3143035190655965  0.2973687118125952  0.8419229389915445  1.0000
  C   C21       1.0  0.08806973943860899  0.8554701687626436  0.9117292864613873  1.0000
  C   C22       1.0  0.5881188942513234  0.644544006731614  0.08825697903488108  1.0000
  C   C23       1.0  0.9119165106013014  0.144529066420894  0.088273384984717  1.0000
  C   C24       1.0  0.4118608072725393  0.3554553311332781  0.9117415482284345  1.0000
  C   C25       1.0  0.8952731811224196  0.8042310571131354  0.940780589892988  1.0000
  C   C26       1.0  0.3953255695220932  0.6957737230426702  0.05920029640932261  1.0000
  C   C27       1.0  0.10470324595304699  0.19576169021047457  0.059216061036465796  1.0000
  C   C28       1.0  0.6046508584826354  0.30422348851169556  0.9408075053752682  1.0000
  C   C29       1.0  0.805661038214808  0.6940808385384543  0.9007105721669361  1.0000
  C   C30       1.0  0.3057078861128417  0.8059199207337711  0.09926731778089959  1.0000
  C   C31       1.0  0.1943235741362699  0.30591286925907457  0.0992855856846759  1.0000
  C   C32       1.0  0.6942652677127015  0.19407443901715737  0.900740779317097  1.0000
  C   C33       1.0  0.9026905449807857  0.6312869062033784  0.8293345314000362  1.0000
  C   C34       1.0  0.4027301129718523  0.868710282621059  0.1706539365817434  1.0000
  C   C35       1.0  0.09730552723234348  0.3687047195026238  0.170669124994582  1.0000
  C   C36       1.0  0.5972708701439159  0.13128431234910207  0.8293446883425943  1.0000
  C   C37       1.0  0.8131747137277613  0.5183717268153599  0.7865946147427962  1.0000
  C   C38       1.0  0.3132191130936661  0.9816347860715663  0.21338809844439058  1.0000
  C   C39       1.0  0.1868377285767764  0.48162964963675126  0.213398190291997  1.0000
  C   C40       1.0  0.6867867816876156  0.018367301113940495  0.7866142777817018  1.0000
  C   C41       1.0  0.9018537926454185  0.4634942580431911  0.7145488613173256  1.0000
  C   C42       1.0  0.4018761333749623  0.0365143461641324  0.2854358687892642  1.0000
  C   C43       1.0  0.09817010897495487  0.5365061875334546  0.2854432528658393  1.0000
  C   C44       1.0  0.5981215761339129  0.9634934884899026  0.71456414066364  1.0000
  C   C45       1.0  0.7935097536471645  0.35077551367349  0.6657513904111596  1.0000
  C   C46       1.0  0.29353777308115536  0.1492193053154978  0.3342232205052937  1.0000
  C   C47       1.0  0.20650268871862917  0.6492296749170025  0.3342406261670092  1.0000
  C   C48       1.0  0.706451751218836  0.85079042062835  0.6657769866933734  1.0000
  O   O1        1.0  0.25784795491630064  0.5349454795006068  0.5540244848571163  1.0000
  O   O2        1.0  0.7578743237656411  0.9650508717302059  0.445969139323104  1.0000
  O   O3        1.0  0.7421857698262073  0.4650556476477447  0.4459783846522924  1.0000
  O   O4        1.0  0.2421151996128614  0.034945761291155  0.5540237631205613  1.0000
  O   O5        1.0  0.144618789679491  0.34593949069398616  0.5822458543731983  1.0000
  O   O6        1.0  0.6446056496457899  0.15407289502014268  0.4177524208968962  1.0000
  O   O7        1.0  0.855431305736758  0.6540711816789581  0.4177544520672569  1.0000
  O   O8        1.0  0.3553953333538828  0.845927491558136  0.5822420612386238  1.0000
  O   O9        1.0  0.6631381046716384  0.37806393607780103  0.6111304823805384  1.0000
  O   O10       1.0  0.1631591062681679  0.121914686568644  0.3888329681266711  1.0000
  O   O11       1.0  0.33688088561917334  0.621935607785069  0.3888597568160391  1.0000
  O   O12       1.0  0.8368255062995757  0.8780846953961329  0.6111637831023273  1.0000
  O   O13       1.0  0.8335449129385635  0.24081910357291034  0.6806381930735982  1.0000
  O   O14       1.0  0.33355466298291236  0.25917667153375124  0.3193374665576841  1.0000
  O   O15       1.0  0.1664724402686133  0.7591852421433598  0.3193495804909218  1.0000
  O   O16       1.0  0.6664430465565871  0.7408330691894705  0.6806621486669044  1.0000
