data_image0
_chemical_formula_structural       Ag2H18C22N8O10
_chemical_formula_sum              "Ag2 H18 C22 N8 O10"
_cell_length_a       6.454880205399315
_cell_length_b       7.40507549582169
_cell_length_c       12.88587147254119
_cell_angle_alpha    78.77794600237564
_cell_angle_beta     86.65259467679874
_cell_angle_gamma    79.26420769353153

_space_group_name_H-M_alt    "P 1"
_space_group_IT_number       1

loop_
  _space_group_symop_operation_xyz
  'x, y, z'

loop_
  _atom_site_type_symbol
  _atom_site_label
  _atom_site_symmetry_multiplicity
  _atom_site_fract_x
  _atom_site_fract_y
  _atom_site_fract_z
  _atom_site_occupancy
  Ag  Ag1       1.0  0.4738666223144748  0.1696030687245198  0.5554484419034793  1.0000
  Ag  Ag2       1.0  0.5261465456457514  0.8303945931120114  0.4445489553094221  1.0000
  H   H1        1.0  0.7283165079056247  0.5985522378401386  0.0436582383792512  1.0000
  H   H2        1.0  0.2716908524814485  0.40145942886059766  0.9563432012428166  1.0000
  H   H3        1.0  0.08785060371050689  0.3120672682390266  0.4529247847179222  1.0000
  H   H4        1.0  0.9121637751782502  0.6879248057048671  0.5470763109387705  1.0000
  H   H5        1.0  0.8096546546535563  0.34441753846355283  0.4614604632769783  1.0000
  H   H6        1.0  0.1903566212531515  0.6555815139993515  0.5385345142750708  1.0000
  H   H7        1.0  0.02993544457918061  0.5832763192472754  0.3021791572619605  1.0000
  H   H8        1.0  0.9700729182787241  0.4167227524061731  0.6978236826025822  1.0000
  H   H9        1.0  0.8672417125485625  0.7986442414745627  0.14173503342277632  1.0000
  H   H10       1.0  0.13274869613394463  0.20135202156192386  0.8582726447171183  1.0000
  H   H11       1.0  0.1090265433478663  0.8852905721539202  0.9845133518561155  1.0000
  H   H12       1.0  0.8909587946383513  0.1147070688153562  0.015488916523118172  1.0000
  H   H13       1.0  0.3415019415951975  0.8637378862536593  0.7262354516941727  1.0000
  H   H14       1.0  0.6584933478503459  0.13626395817848902  0.2737636557892458  1.0000
  H   H15       1.0  0.022682368259083294  0.7528985155086332  0.8211225097904064  1.0000
  H   H16       1.0  0.9773277348843552  0.2470991472989468  0.1788765483565271  1.0000
  H   H17       1.0  0.6680476588356258  0.9169302009545749  0.7506972461485829  1.0000
  H   H18       1.0  0.33195521699115466  0.08306464983736822  0.2493008370045757  1.0000
  C   C1        1.0  0.4459475687485935  0.4525882939185379  0.3393677266391606  1.0000
  C   C2        1.0  0.5540495178954787  0.5474121485000509  0.6606299246435654  1.0000
  C   C3        1.0  0.34360216052292714  0.561471025839353  0.23729451727833611  1.0000
  C   C4        1.0  0.6563911995076596  0.4385406201792819  0.7627058696515192  1.0000
  C   C5        1.0  0.1269107208769285  0.626870762828105  0.23320076711092244  1.0000
  C   C6        1.0  0.8730884662783609  0.3731352961187612  0.7668016020339793  1.0000
  C   C7        1.0  0.03585846177995217  0.7453513367597607  0.1437652560956124  1.0000
  C   C8        1.0  0.9641312655543005  0.254647711113293  0.8562374721331525  1.0000
  C   C9        1.0  0.1669812741744323  0.7948122564699603  0.05769769583181271  1.0000
  C   C10       1.0  0.8330040448407916  0.20518538222187743  0.9423037973751107  1.0000
  C   C11       1.0  0.38165306758803297  0.7251130594684837  0.06028187930410672  1.0000
  C   C12       1.0  0.6183365082015089  0.2748789880822359  0.9397208762402656  1.0000
  C   C13       1.0  0.5197214562889982  0.7823328299203498  0.9665744014584661  1.0000
  C   C14       1.0  0.48026950072151214  0.2176676144403373  0.033426571692331195  1.0000
  C   C15       1.0  0.9708064025405679  0.14383390006591415  0.5782021200870275  1.0000
  C   C16       1.0  0.02919927331285523  0.8561623512830181  0.4217949278657613  1.0000
  C   C17       1.0  0.18293805208278963  0.9262080516142391  0.6996297491998646  1.0000
  C   C18       1.0  0.8170634997932995  0.07379380681787504  0.3003714626216265  1.0000
  C   C19       1.0  0.008020621696630313  0.8644209961454125  0.7521093026763879  1.0000
  C   C20       1.0  0.991982254710706  0.13558227016152813  0.24789402992867343  1.0000
  C   C21       1.0  0.8129219739524914  0.9523046372738548  0.711423370132323  1.0000
  C   C22       1.0  0.18708417514876885  0.047697219701689206  0.288575350288113  1.0000
  N   N1        1.0  0.46664782658602644  0.6036162973479051  0.14879786142977033  1.0000
  N   N2        1.0  0.5333468953372388  0.3963883455854358  0.8512009471763661  1.0000
  N   N3        1.0  0.7918836486308793  0.0872484447877966  0.6243814124199502  1.0000
  N   N4        1.0  0.20811691880754069  0.9127421978362164  0.37561490412163323  1.0000
  N   N5        1.0  0.16751322833394514  0.0665314007662019  0.6156541583680806  1.0000
  N   N6        1.0  0.8324893257897017  0.9334648447214634  0.38434222500182363  1.0000
  N   N7        1.0  0.953553868477748  0.28238391927705925  0.493841832761298  1.0000
  N   N8        1.0  0.04645084248955563  0.7176095340562014  0.5061563445357891  1.0000
  O   O1        1.0  0.35015735420626026  0.3228361307124814  0.38694523286042687  1.0000
  O   O2        1.0  0.64984716763162  0.6771657153613971  0.6130504421654877  1.0000
  O   O3        1.0  0.6037353988892278  0.5023385532936899  0.37017658361034483  1.0000
  O   O4        1.0  0.3962778254034377  0.4976506998601593  0.6298178896675779  1.0000
  O   O5        1.0  0.6671120379442003  0.5216310762644626  0.14767670945109046  1.0000
  O   O6        1.0  0.33288461397457786  0.4783721805973897  0.8523260691605117  1.0000
  O   O7        1.0  0.715973316021561  0.6883609744961632  0.9674582606888222  1.0000
  O   O8        1.0  0.284024358053621  0.31166048483149217  0.032544734853239304  1.0000
  O   O9        1.0  0.4493129181623132  0.9104169686622969  0.894438907548036  1.0000
  O   O10       1.0  0.5506728551297542  0.08958627337872122  0.10556348295423132  1.0000
