data_image0
_chemical_formula_structural       Co2H32C16N12O8
_chemical_formula_sum              "Co2 H32 C16 N12 O8"
_cell_length_a       7.183123566589915
_cell_length_b       7.1830764730438466
_cell_length_c       12.486516899662828
_cell_angle_alpha    101.16395639687084
_cell_angle_beta     101.16328416203291
_cell_angle_gamma    100.35051766602386

_space_group_name_H-M_alt    "P 1"
_space_group_IT_number       1

loop_
  _space_group_symop_operation_xyz
  'x, y, z'

loop_
  _atom_site_type_symbol
  _atom_site_label
  _atom_site_symmetry_multiplicity
  _atom_site_fract_x
  _atom_site_fract_y
  _atom_site_fract_z
  _atom_site_occupancy
  Co  Co1       1.0  6.796091299000001e-07  2.9121626568e-06  1.2018833927999995e-06  1.0000
  Co  Co2       1.0  4.455077714700036e-06  1.6688154716001899e-06  0.4999985529804788  1.0000
  H   H1        1.0  0.6566302129474197  0.9772300511341852  0.8487318616452485  1.0000
  H   H2        1.0  0.022773817029524007  0.3433726668353572  0.6512667604923691  1.0000
  H   H3        1.0  0.3433693537278232  0.022769322235390594  0.15126786560544758  1.0000
  H   H4        1.0  0.9772289232832989  0.6566281400307188  0.34873268027132537  1.0000
  H   H5        1.0  0.7545463937382524  0.20328931069400366  0.9027123048909687  1.0000
  H   H6        1.0  0.7967159778227071  0.24545180312698278  0.5972881617602609  1.0000
  H   H7        1.0  0.24545101739398945  0.7967129961129089  0.09729071267440047  1.0000
  H   H8        1.0  0.20328891627430315  0.754546068554873  0.4027095900255232  1.0000
  H   H9        1.0  0.10190456190341016  0.5893042003396614  0.8769424623028355  1.0000
  H   H10       1.0  0.41070062226005183  0.898103946839825  0.6230565907360698  1.0000
  H   H11       1.0  0.8980935867560619  0.4106951832305298  0.12305870949769118  1.0000
  H   H12       1.0  0.5892982095261844  0.10189835238680439  0.37694258027431715  1.0000
  H   H13       1.0  0.893838846506057  0.608845374447462  0.7781489975201765  1.0000
  H   H14       1.0  0.3911518165938475  0.1061657836526209  0.7218504745575913  1.0000
  H   H15       1.0  0.1061613997783155  0.3911569110847779  0.22185193161391228  1.0000
  H   H16       1.0  0.6088449728473648  0.8938277755922568  0.27814829347614267  1.0000
  H   H17       1.0  0.0884305712560618  0.11331247407213141  0.7788507814142704  1.0000
  H   H18       1.0  0.8866832005919676  0.9115636647511209  0.7211450802140362  1.0000
  H   H19       1.0  0.9115658217816005  0.8866854658009583  0.22114923232343384  1.0000
  H   H20       1.0  0.1133131942045011  0.0884342768688526  0.2788533321868981  1.0000
  H   H21       1.0  0.9153575434862661  0.6316159738656919  0.591727359960643  1.0000
  H   H22       1.0  0.3683800260588654  0.08464623802669277  0.9082694855171096  1.0000
  H   H23       1.0  0.0846409471762968  0.3683848679694464  0.408272411110623  1.0000
  H   H24       1.0  0.6316167633823397  0.9153473212181852  0.09172928251663137  1.0000
  H   H25       1.0  0.14152637171719828  0.6251752947246489  0.5515709758910957  1.0000
  H   H26       1.0  0.37482603080416504  0.8584827151353166  0.9484317444069102  1.0000
  H   H27       1.0  0.8584760283513616  0.37482405562337817  0.44842826426508947  1.0000
  H   H28       1.0  0.6251742681218602  0.14151372975689466  0.05157094108924547  1.0000
  H   H29       1.0  0.4181254745984829  0.5945810284710189  0.6797220267106565  1.0000
  H   H30       1.0  0.4054250556228211  0.5818804732209127  0.8202799595680402  1.0000
  H   H31       1.0  0.5818698424264922  0.4054183798676263  0.3202780308476178  1.0000
  H   H32       1.0  0.594573434160331  0.41812036774077643  0.17972061217160726  1.0000
  C   C1        1.0  0.7374668367118815  0.5724182051691783  0.9576130907367498  1.0000
  C   C2        1.0  0.4275860019022986  0.2625375976921234  0.5423875000012117  1.0000
  C   C3        1.0  0.26253940692991046  0.4275854812301245  0.04239587216804347  1.0000
  C   C4        1.0  0.5724199708456226  0.7374588081445097  0.457607805958858  1.0000
  C   C5        1.0  0.0529722330093421  0.6537304689607593  0.8067260803352098  1.0000
  C   C6        1.0  0.34626927368459803  0.9470360999648763  0.6932735243647768  1.0000
  C   C7        1.0  0.947023085774454  0.3462689411247624  0.19327237588629484  1.0000
  C   C8        1.0  0.6537280821677739  0.0529720448617397  0.3067301388436689  1.0000
  C   C9        1.0  0.04539896744698519  0.9546143292385451  0.7500008949459482  1.0000
  C   C10       1.0  0.9546068894647349  0.04539374739683671  0.25000050631058457  1.0000
  C   C11       1.0  0.07459523536905271  0.6745852525040945  0.620300801606831  1.0000
  C   C12       1.0  0.3254132001618899  0.9254247245489181  0.8796967514749808  1.0000
  C   C13       1.0  0.9254007630238659  0.32541706974409124  0.37969885649805946  1.0000
  C   C14       1.0  0.6745812731731462  0.07458928743306362  0.12030243979237547  1.0000
  C   C15       1.0  0.354351713114319  0.64565905185988  0.7499980904868763  1.0000
  C   C16       1.0  0.6456499520652343  0.3543432243451861  0.2500005934290001  1.0000
  N   N1        1.0  0.8244583819990507  0.7382712144417949  0.9852911315239009  1.0000
  N   N2        1.0  0.26172974317899644  0.17554100437168776  0.5147023607474139  1.0000
  N   N3        1.0  0.1755432805422785  0.2617310591429458  0.014709954397126492  1.0000
  N   N4        1.0  0.7382790594446078  0.8244553749496148  0.4852956607916779  1.0000
  N   N5        1.0  0.11033832806637632  0.8684867736905629  0.8455831199417002  1.0000
  N   N6        1.0  0.1315121468908558  0.8896613968585285  0.6544150997345851  1.0000
  N   N7        1.0  0.8896584052155561  0.13151262270057631  0.15441709440350587  1.0000
  N   N8        1.0  0.8684856641625772  0.1103365328139461  0.34558346945328816  1.0000
  N   N9        1.0  0.13997570172206514  0.5839952902488719  0.7130114331617532  1.0000
  N   N10       1.0  0.4160064151678712  0.8600314581875779  0.7869877929334094  1.0000
  N   N11       1.0  0.8600252803307243  0.4160040702997633  0.28698925154426286  1.0000
  N   N12       1.0  0.5839934926310518  0.13996937257350334  0.21301133425640725  1.0000
  O   O1        1.0  0.6466210766689784  0.402111684065062  0.9288857723902237  1.0000
  O   O2        1.0  0.5978963851112837  0.35337263090983834  0.5711082092063932  1.0000
  O   O3        1.0  0.353373893955876  0.5978862616414206  0.07111968923922522  1.0000
  O   O4        1.0  0.40211451865485504  0.6466266538672869  0.4288863669927209  1.0000
  O   O5        1.0  0.7840731992299439  0.07262103798595382  0.8882996053875516  1.0000
  O   O6        1.0  0.9273842506158586  0.21592593088144693  0.6116988866789014  1.0000
  O   O7        1.0  0.21592602808043893  0.9273768797390217  0.11169912058726075  1.0000
  O   O8        1.0  0.07261962274834131  0.7840675712462613  0.3882982632843763  1.0000
