data_image0
_chemical_formula_structural       Cd2H36C48N12Cl4O6
_chemical_formula_sum              "Cd2 H36 C48 N12 Cl4 O6"
_cell_length_a       8.55550771827042
_cell_length_b       10.051685762082741
_cell_length_c       13.365485584913412
_cell_angle_alpha    81.62709128663882
_cell_angle_beta     88.77110184198966
_cell_angle_gamma    87.63585712270724

_space_group_name_H-M_alt    "P 1"
_space_group_IT_number       1

loop_
  _space_group_symop_operation_xyz
  'x, y, z'

loop_
  _atom_site_type_symbol
  _atom_site_label
  _atom_site_symmetry_multiplicity
  _atom_site_fract_x
  _atom_site_fract_y
  _atom_site_fract_z
  _atom_site_occupancy
  Cd  Cd1       1.0  0.499999841334393  0.5000013718735162  0.5000003022082707  1.0000
  Cd  Cd2       1.0  0.4999986630345105  1.9936815219871884e-07  0.4999994093842375  1.0000
  H   H1        1.0  0.6490147347467498  0.7252235820388011  0.17231471299901807  1.0000
  H   H2        1.0  0.3509838350017134  0.2747761695153487  0.8276839871430397  1.0000
  H   H3        1.0  0.5546901224660488  0.36521144063063826  0.17465708674811248  1.0000
  H   H4        1.0  0.4453083992794545  0.63479031911411  0.8253421484413791  1.0000
  H   H5        1.0  0.8159225350768435  0.42310138352563365  0.7207924468537  1.0000
  H   H6        1.0  0.18407953473269598  0.576899324602728  0.2792075804621632  1.0000
  H   H7        1.0  0.8102540550626998  0.12419219022743286  0.4114611102667567  1.0000
  H   H8        1.0  0.18974223537979634  0.8758065697752574  0.588539984108138  1.0000
  H   H9        1.0  0.9781404857418322  0.1474960235212351  0.2548281255639324  1.0000
  H   H10       1.0  0.02185932364459829  0.8525026910866916  0.74517365421773  1.0000
  H   H11       1.0  0.9478258473410432  0.9865229430644505  0.13030473011123428  1.0000
  H   H12       1.0  0.05217393292528529  0.0134767777650922  0.8696969429508101  1.0000
  H   H13       1.0  0.5909095612905942  0.7971109520958278  0.3300781953706604  1.0000
  H   H14       1.0  0.4090843215366675  0.20288985203082185  0.669921979131608  1.0000
  H   H15       1.0  0.97066185295634  0.7185919676958791  0.9083113641385763  1.0000
  H   H16       1.0  0.029337906835508003  0.2814077616389454  0.09168881195016347  1.0000
  H   H17       1.0  0.7579031904322662  0.3476793855797028  0.8695330866462712  1.0000
  H   H18       1.0  0.24209657800519574  0.6523193460387945  0.1304656991887754  1.0000
  H   H19       1.0  0.64930484400044  0.5339111671790918  0.13290908809064206  1.0000
  H   H20       1.0  0.35069373598526704  0.466088580122424  0.8670903605380713  1.0000
  H   H21       1.0  0.39408153932328094  0.09236360471653171  0.04585360885755561  1.0000
  H   H22       1.0  0.6059217480581225  0.9076350815072018  0.9541458623842586  1.0000
  H   H23       1.0  0.24812597772734074  0.9096073994732092  0.14967109439125179  1.0000
  H   H24       1.0  0.7518820855271997  0.09038820897687572  0.8503293613895336  1.0000
  H   H25       1.0  0.23810810666932264  0.8998426321684436  0.3389372709097315  1.0000
  H   H26       1.0  0.7618951909493177  0.10015604980264213  0.6610629488187314  1.0000
  H   H27       1.0  0.4909784265708834  0.245137149450052  0.3227354258365764  1.0000
  H   H28       1.0  0.5090177560368261  0.7548646377227756  0.6772638514061738  1.0000
  H   H29       1.0  0.8431002753652378  0.28468712501107524  0.5963067078246098  1.0000
  H   H30       1.0  0.15689935770895855  0.7153166334628623  0.4036922928990165  1.0000
  H   H31       1.0  0.005148349243235399  0.20784267096640727  0.456228767100967  1.0000
  H   H32       1.0  0.9948525218773056  0.7921590570976138  0.5437711745219146  1.0000
  H   H33       1.0  0.27024805191192763  0.30250187427867564  0.4182450744893345  1.0000
  H   H34       1.0  0.729752896331682  0.6974968393731446  0.5817544388057385  1.0000
  H   H35       1.0  0.22290413445232818  0.5342105818755273  0.6504591847804021  1.0000
  H   H36       1.0  0.7770991238089733  0.46578911056982286  0.34954017974178697  1.0000
  C   C1        1.0  0.8047738694693577  0.05407012310279671  0.35694552217460535  1.0000
  C   C2        1.0  0.19522241232752444  0.9459296346162278  0.6430569624539756  1.0000
  C   C3        1.0  0.8970568058955236  0.06605262836105652  0.2697146742399781  1.0000
  C   C4        1.0  0.10294069347322217  0.9339451074533331  0.730287254314554  1.0000
  C   C5        1.0  0.8798033647813595  0.9777190197010128  0.2001920736624569  1.0000
  C   C6        1.0  0.1201952647989373  0.02227971287359761  0.7998089786591719  1.0000
  C   C7        1.0  0.771219576916792  0.8757425425508883  0.22209888403135378  1.0000
  C   C8        1.0  0.22877784373726223  0.12425721421202243  0.7779013341106448  1.0000
  C   C9        1.0  0.6798379111469898  0.8721888451928238  0.3111380602598429  1.0000
  C   C10       1.0  0.32015949926982046  0.1278109158227281  0.688861409395507  1.0000
  C   C11       1.0  0.8491215695683819  0.7504611708446448  0.0825955317160947  1.0000
  C   C12       1.0  0.15087582196557037  0.24953959213988242  0.917404579706286  1.0000
  C   C13       1.0  0.8089826344154857  0.639689154706339  0.024947053595056393  1.0000
  C   C14       1.0  0.19101946451415588  0.36031054720041317  0.9750530804404176  1.0000
  C   C15       1.0  0.8891494870988693  0.639641453493006  0.9327182450507436  1.0000
  C   C16       1.0  0.11085024357287657  0.3603592820634348  0.06728182431837837  1.0000
  C   C17       1.0  0.8702246592360866  0.5376039411757676  0.874142143451401  1.0000
  C   C18       1.0  0.12977624100455637  0.4623967806666372  0.12585790489109167  1.0000
  C   C19       1.0  0.7720358743903332  0.43276747458860854  0.9098301470014007  1.0000
  C   C20       1.0  0.2279638854015147  0.5672322547462232  0.09017002908733217  1.0000
  C   C21       1.0  0.6923903546694986  0.4302489671988426  0.0025282939555494903  1.0000
  C   C22       1.0  0.3076093948851052  0.5697507663886299  0.9974711336465345  1.0000
  C   C23       1.0  0.7098827221595982  0.5347231138504541  0.060017675760668986  1.0000
  C   C24       1.0  0.29011699827490384  0.46527762595863476  0.9399816451217972  1.0000
  C   C25       1.0  0.5954968752337491  0.30965838451106725  0.033118258709094996  1.0000
  C   C26       1.0  0.4045028058434069  0.6903433657722787  0.9668802069671116  1.0000
  C   C27       1.0  0.4493226090636495  0.1861084677819776  0.17633938392743428  1.0000
  C   C28       1.0  0.5506771318453402  0.8138922635218223  0.8236614339283435  1.0000
  C   C29       1.0  0.38205950412574197  0.08851205848893781  0.1272062411183654  1.0000
  C   C30       1.0  0.6179426530441104  0.9114856309745821  0.8727941063563378  1.0000
  C   C31       1.0  0.30204093475126104  0.986230293945092  0.18590966370599912  1.0000
  C   C32       1.0  0.697962410870339  0.013766379835409709  0.8140900209750368  1.0000
  C   C33       1.0  0.29508012970606506  0.9807486764380688  0.29056682447357923  1.0000
  C   C34       1.0  0.7049219983436855  0.019250019247060404  0.7094334162815129  1.0000
  C   C35       1.0  0.4357201726395202  0.17323837483202456  0.282040678564094  1.0000
  C   C36       1.0  0.564278359343227  0.8267633806600759  0.7179593051120391  1.0000
  C   C37       1.0  0.9708679252659351  0.5388344657853352  0.78128027774558  1.0000
  C   C38       1.0  0.02913414454361169  0.46116624234303333  0.2187197495702833  1.0000
  C   C39       1.0  0.02090581284726769  0.4137438656640244  0.6366314933102544  1.0000
  C   C40       1.0  0.9790962278421701  0.5862578486859537  0.36336842728599805  1.0000
  C   C41       1.0  0.9608037807343095  0.3206520102905444  0.5802411134102599  1.0000
  C   C42       1.0  0.0391970801489876  0.6793497220261174  0.41975807972596607  1.0000
  C   C43       1.0  0.04956560709129581  0.27906616772616394  0.5015212510353351  1.0000
  C   C44       1.0  0.9504364627182438  0.7209345404021975  0.4984787762805283  1.0000
  C   C45       1.0  0.19648620938458086  0.3310217119915323  0.47958851602010805  1.0000
  C   C46       1.0  0.8035158501877145  0.6689790003894701  0.5204107628091065  1.0000
  C   C47       1.0  0.1705168613221986  0.46155211153470804  0.6101157095336518  1.0000
  C   C48       1.0  0.8294875373878908  0.5384485734182222  0.3898835272422971  1.0000
  N   N1        1.0  0.6961803338807043  0.9601844565577767  0.3761633149688208  1.0000
  N   N2        1.0  0.30381588808435106  0.039816320140786815  0.623836817480189  1.0000
  N   N3        1.0  0.7478942414834931  0.7790470894443333  0.1587519843737866  1.0000
  N   N4        1.0  0.25210433850221386  0.2209526578571755  0.841247464254927  1.0000
  N   N5        1.0  0.532701509892547  0.29500277006285824  0.12912593067046876  1.0000
  N   N6        1.0  0.467297040973058  0.7049979834602669  0.8708734112386338  1.0000
  N   N7        1.0  0.3631751701581861  0.07206855619659792  0.33812583317484973  1.0000
  N   N8        1.0  0.636823370470175  0.9279322015791751  0.6618727602475971  1.0000
  N   N9        1.0  0.93017283054602  0.452407882066332  0.7161968481838201  1.0000
  N   N10       1.0  0.06983036947507767  0.5475938228222506  0.2838023028991471  1.0000
  N   N11       1.0  0.2537023382632171  0.4200985480561669  0.5334453512201094  1.0000
  N   N12       1.0  0.7462985808602837  0.5799011718172623  0.46655405535534555  1.0000
  Cl  Cl1       1.0  0.39910998210264387  0.7572239776042339  0.5002230780687285  1.0000
  Cl  Cl2       1.0  0.6008874401430332  0.24277677262236355  0.49977927881361234  1.0000
  Cl  Cl3       1.0  0.45621050635217114  0.5380305789418359  0.2965583978968311  1.0000
  Cl  Cl4       1.0  0.5437890700734512  0.46197618543902064  0.7034425281279083  1.0000
  O   O1        1.0  0.9711002965897392  0.811502327264229  0.060948129979529087  1.0000
  O   O2        1.0  0.028899492322210597  0.18849639584897912  0.9390521528288217  1.0000
  O   O3        1.0  0.5755110063049925  0.22788795834698317  0.973835912197373  1.0000
  O   O4        1.0  0.4244887038922727  0.7721127857147467  0.026162660198444567  1.0000
  O   O5        1.0  0.0871170443879947  0.6095835765577747  0.767694502453409  1.0000
  O   O6        1.0  0.912885006538687  0.390418133539562  0.23230616662948475  1.0000
