data_image0
_chemical_formula_structural       H28Pb2C24Br4N4
_chemical_formula_sum              "H28 Pb2 C24 Br4 N4"
_cell_length_a       7.984138307556791
_cell_length_b       9.882149062709207
_cell_length_c       9.882099167957085
_cell_angle_alpha    86.95777725148697
_cell_angle_beta     87.15471378881864
_cell_angle_gamma    87.15412539311785

_space_group_name_H-M_alt    "P 1"
_space_group_IT_number       1

loop_
  _space_group_symop_operation_xyz
  'x, y, z'

loop_
  _atom_site_type_symbol
  _atom_site_label
  _atom_site_symmetry_multiplicity
  _atom_site_fract_x
  _atom_site_fract_y
  _atom_site_fract_z
  _atom_site_occupancy
  H   H1        1.0  0.623722619485207  0.13621555824477843  0.7517764929279238  1.0000
  H   H2        1.0  0.8762819575924111  0.24823397702627395  0.8637810015488158  1.0000
  H   H3        1.0  0.37628355787170165  0.8637807570600059  0.24822671745404531  1.0000
  H   H4        1.0  0.12371728080199065  0.751772391944236  0.1362177655734698  1.0000
  H   H5        1.0  0.5512857409851932  0.22929136925688462  0.3262929166419609  1.0000
  H   H6        1.0  0.9487146529711764  0.6737089110508023  0.7706924349771285  1.0000
  H   H7        1.0  0.4487092765725293  0.7707028606153087  0.673709922732705  1.0000
  H   H8        1.0  0.05128355363730461  0.32629207815028843  0.2292885365208903  1.0000
  H   H9        1.0  0.24758433104622674  0.18680888091726186  0.3718480087032887  1.0000
  H   H10       1.0  0.25241133658204973  0.6281603830975725  0.8131836407981154  1.0000
  H   H11       1.0  0.7524106079153868  0.8131875294572736  0.6281637904795189  1.0000
  H   H12       1.0  0.7475828246036826  0.3718457825590278  0.1868042329344917  1.0000
  H   H13       1.0  0.1451782438888074  0.12364341901616173  0.6099236861716548  1.0000
  H   H14       1.0  0.35482025962355823  0.390088807881817  0.8763597103947377  1.0000
  H   H15       1.0  0.8548213327779735  0.8763591288224433  0.3900895022712518  1.0000
  H   H16       1.0  0.6451762826610616  0.6099206120880821  0.12363997516497702  1.0000
  H   H17       1.0  0.8634545688687394  0.19343816570353312  0.6081887296960744  1.0000
  H   H18       1.0  0.6365475433658575  0.3918140082321671  0.8065520273428389  1.0000
  H   H19       1.0  0.1365505263999154  0.8065550346893031  0.39181069814116404  1.0000
  H   H20       1.0  0.3634507959101398  0.6081861690896629  0.19344114004670837  1.0000
  H   H21       1.0  0.8553242108131158  0.15142444651356607  0.4357848529447139  1.0000
  H   H22       1.0  0.6446738768634149  0.5642158288850041  0.8485692832345323  1.0000
  H   H23       1.0  0.1446743453852548  0.8485727552976742  0.5642125611824794  1.0000
  H   H24       1.0  0.3553232030132278  0.4357843271326374  0.15142292945257912  1.0000
  H   H25       1.0  0.8153395996123008  0.3212635192998405  0.4799768075473736  1.0000
  H   H26       1.0  0.6846526285367602  0.5200281382296338  0.6787255262219815  1.0000
  H   H27       1.0  0.18465791410910273  0.6787306856966211  0.5200238986150438  1.0000
  H   H28       1.0  0.3153381826369213  0.4799719956222076  0.3212669662243641  1.0000
  Pb  Pb1       1.0  0.25000448471428877  0.06922839279717151  0.9307881517240588  1.0000
  Pb  Pb2       1.0  0.7499972334939926  0.9307803173812274  0.06922855919118123  1.0000
  C   C1        1.0  0.5442345364618858  0.151172735118756  0.6647780876511291  1.0000
  C   C2        1.0  0.9557644501688002  0.3352357407368203  0.8488170771773724  1.0000
  C   C3        1.0  0.4557667076713727  0.848822598734898  0.3352284465412367  1.0000
  C   C4        1.0  0.0442344895645093  0.6647745674627713  0.1511743432042465  1.0000
  C   C5        1.0  0.6134109475131665  0.1899464535806317  0.5364661274851058  1.0000
  C   C6        1.0  0.8865925695433745  0.4635394935083069  0.8100403818018834  1.0000
  C   C7        1.0  0.3865915924881094  0.8100478028905228  0.46353637617848165  1.0000
  C   C8        1.0  0.11341075640121548  0.5364606171910394  0.18994750850887948  1.0000
  C   C9        1.0  0.5039659250561357  0.20317251484271986  0.42947724046299374  1.0000
  C   C10       1.0  0.9960325574774841  0.5705277664035576  0.7968139232579076  1.0000
  C   C11       1.0  0.49603274117473023  0.7968238076051505  0.5705283269386072  1.0000
  C   C12       1.0  0.003965542241118696  0.42947531894476043  0.20317095477687266  1.0000
  C   C13       1.0  0.3343054778197613  0.18000016684217  0.45395293071950243  1.0000
  C   C14       1.0  0.16569636444212676  0.5460542007902731  0.8199931714919727  1.0000
  C   C15       1.0  0.665693075862464  0.8199982348819007  0.54605553256458  1.0000
  C   C16       1.0  0.8343028934446933  0.45395101888048134  0.17999757843626438  1.0000
  C   C17       1.0  0.2766875557083353  0.14380963392279258  0.585460762332076  1.0000
  C   C18       1.0  0.2233152178007032  0.4145517827546001  0.8561855744316347  1.0000
  C   C19       1.0  0.7233147761719322  0.8561888317138299  0.4145505650593008  1.0000
  C   C20       1.0  0.7766849278870183  0.5854595948227866  0.14380875392079423  1.0000
  C   C21       1.0  0.7966233403010037  0.21523216636195025  0.514702572023161  1.0000
  C   C22       1.0  0.7033718459462717  0.4853018689165793  0.7847575696322265  1.0000
  C   C23       1.0  0.203376610480376  0.784763044961366  0.48529694354110114  1.0000
  C   C24       1.0  0.2966226560279779  0.5146992756952855  0.21523367626411982  1.0000
  Br  Br1       1.0  0.9616469228429949  0.9542996971128442  0.7952763443153543  1.0000
  Br  Br2       1.0  0.5383788074556933  0.20473932842476472  0.045678181311160394  1.0000
  Br  Br3       1.0  0.0383773388229685  0.045670606880833006  0.2047460995142956  1.0000
  Br  Br4       1.0  0.4616249925639195  0.7952741585993265  0.9543198857224837  1.0000
  N   N1        1.0  0.3803930722101184  0.12916496926862206  0.6888280812514438  1.0000
  N   N2        1.0  0.1196083579224023  0.3111861048381499  0.8708313378639545  1.0000
  N   N3        1.0  0.6196093131150916  0.8708324482943867  0.3111812928715522  1.0000
  N   N4        1.0  0.8803906270809563  0.6888243383296383  0.1291681677518852  1.0000
