data_image0
_chemical_formula_structural       Zn4H24C44N4O15
_chemical_formula_sum              "Zn4 H24 C44 N4 O15"
_cell_length_a       15.609130586254738
_cell_length_b       19.10096420580673
_cell_length_c       19.330296858774716
_cell_angle_alpha    94.76119264052998
_cell_angle_beta     103.2344328485532
_cell_angle_gamma    96.69464438515737

_space_group_name_H-M_alt    "P 1"
_space_group_IT_number       1

loop_
  _space_group_symop_operation_xyz
  'x, y, z'

loop_
  _atom_site_type_symbol
  _atom_site_label
  _atom_site_symmetry_multiplicity
  _atom_site_fract_x
  _atom_site_fract_y
  _atom_site_fract_z
  _atom_site_occupancy
  Zn  Zn1       1.0  0.4338759771600351  0.5544650517912969  0.5483861670911025  1.0000
  Zn  Zn2       1.0  0.576365350542993  0.45298565163027155  0.5687190664544488  1.0000
  Zn  Zn3       1.0  0.5789513901700191  0.5594048302627  0.4506568686574255  1.0000
  Zn  Zn4       1.0  0.4210169206453714  0.4304181095473679  0.42128664013960565  1.0000
  H   H1        1.0  0.8471614480268602  0.5515378750057208  0.6764854833750817  1.0000
  H   H2        1.0  0.34177603245633054  0.4226944365482622  0.06432309704679542  1.0000
  H   H3        1.0  0.1515072679016143  0.5422028149802925  0.6777847116839837  1.0000
  H   H4        1.0  0.35467336469073996  0.42080158488715813  0.19655845187544682  1.0000
  H   H5        1.0  0.6318595728564063  0.4744198051745343  0.7864880067336486  1.0000
  H   H6        1.0  0.5880593544359628  0.5639443119985118  0.10927319855931471  1.0000
  H   H7        1.0  0.6444175309687526  0.47948279636350577  0.9191368316213017  1.0000
  H   H8        1.0  0.5982853377372025  0.5651316328750011  0.2411161814385636  1.0000
  H   H9        1.0  0.8459028259734752  0.5055759276989065  0.45550934255486203  1.0000
  H   H10       1.0  0.1540967994427263  0.42477545270367756  0.3385048639582422  1.0000
  H   H11       1.0  0.23454860499285968  0.5139556124001814  0.5881208681929734  1.0000
  H   H12       1.0  0.476633210710368  0.9030541365562781  0.6199946575877959  1.0000
  H   H13       1.0  0.563972765361463  0.23893773012203912  0.5957683531798779  1.0000
  H   H14       1.0  0.5461803673192309  0.049507600323053694  0.5924101079189299  1.0000
  H   H15       1.0  0.01229671605714336  0.5563916655816639  0.7102907333252801  1.0000
  H   H16       1.0  0.907003979080912  0.45993665804572703  0.3878429142755593  1.0000
  H   H17       1.0  0.016544595060736397  0.3976024281905666  0.2610265112632888  1.0000
  H   H18       1.0  0.47488025989182603  0.7708755794645512  0.6115742818881955  1.0000
  H   H19       1.0  0.451523911511167  0.2156893350778049  0.3679872444431851  1.0000
  H   H20       1.0  0.5618653270814918  0.9071029176043408  0.4235613606703055  1.0000
  H   H21       1.0  0.4518561407842372  0.08334565383879068  0.3646450120928648  1.0000
  H   H22       1.0  0.5678752570856745  0.7757190766473769  0.4190517444711617  1.0000
  H   H23       1.0  0.37089490598574326  0.5362915056643942  0.7563994513766233  1.0000
  H   H24       1.0  0.37970264930230974  0.5338907438858557  0.8878336664537229  1.0000
  C   C1        1.0  0.508348865200965  0.31296796636639357  0.48504311297054403  1.0000
  C   C2        1.0  0.8839427876292236  0.5147915914841972  0.510951411287337  1.0000
  C   C3        1.0  0.884373725343288  0.5419817522574918  0.6361630086663013  1.0000
  C   C4        1.0  0.5201306392193104  0.6874698500853498  0.5106841089213107  1.0000
  C   C5        1.0  0.16420035432462754  0.4701632582966653  0.44555559096743014  1.0000
  C   C6        1.0  0.5210609568375376  0.7658573428994799  0.5147911997378856  1.0000
  C   C7        1.0  0.5464868365324876  0.8040608375884943  0.46197853379007364  1.0000
  C   C8        1.0  0.5435052211720547  0.8765592031314071  0.4644036181904312  1.0000
  C   C9        1.0  0.5179720227395351  0.9119491091800783  0.5215922244172901  1.0000
  C   C10       1.0  0.49564501685222256  0.8743945908619253  0.575924941914316  1.0000
  C   C11       1.0  0.49504015308161103  0.8014248719524274  0.5714374858238074  1.0000
  C   C12       1.0  0.024613034782880995  0.4395820719428656  0.3566389813497679  1.0000
  C   C13       1.0  0.5337634693131222  0.1312398457667072  0.5448506333430031  1.0000
  C   C14       1.0  0.538454062048274  0.2050182914257661  0.5453339844731531  1.0000
  C   C15       1.0  0.5029973015680654  0.08717753661259307  0.47790929722921055  1.0000
  C   C16       1.0  0.4956636195890668  0.5018924180012334  0.6857971015504916  1.0000
  C   C17       1.0  0.5081223783045843  0.23437077702487844  0.48212239438365867  1.0000
  C   C18       1.0  0.4752836836511493  0.1911276994593436  0.4162734015072331  1.0000
  C   C19       1.0  0.4748407599960559  0.1186602719553775  0.414481511275703  1.0000
  C   C20       1.0  0.4775168582269701  0.4925142948727198  0.2263014737812057  1.0000
  C   C21       1.0  0.5431975835478584  0.5333514999464413  0.20187006137790323  1.0000
  C   C22       1.0  0.5376380741864539  0.5328828734519746  0.12917649684298743  1.0000
  C   C23       1.0  0.9789207311470706  0.4634931165619562  0.40550250849863534  1.0000
  C   C24       1.0  0.46481087354256817  0.49228352543299553  0.07978715743603004  1.0000
  C   C25       1.0  0.39787090656872703  0.4529561606816442  0.1039164709252773  1.0000
  C   C26       1.0  0.4050163740301331  0.4521179709019734  0.17684068877623826  1.0000
  C   C27       1.0  0.4343772109635254  0.5213264534438693  0.8648212456131076  1.0000
  C   C28       1.0  0.48494793468218245  0.4928271180825517  0.3047578357298946  1.0000
  C   C29       1.0  0.42956194004381854  0.5222258850846017  0.7922447561337336  1.0000
  C   C30       1.0  0.5118995731113074  0.5048257399922632  0.9101685286761096  1.0000
  C   C31       1.0  0.5002972120024227  0.5040121533053747  0.7638852531272491  1.0000
  C   C32       1.0  0.5775582124766319  0.487903939340157  0.809413413962929  1.0000
  C   C33       1.0  0.5843820092132649  0.49025683874568676  0.882449482350026  1.0000
  C   C34       1.0  0.024008324416442395  0.48937057348639007  0.4764038214373514  1.0000
  C   C35       1.0  0.7400228042977874  0.5252018848305581  0.543181948010151  1.0000
  C   C36       1.0  0.26335818725367227  0.4776592240494678  0.4599029983672906  1.0000
  C   C37       1.0  0.9753640485704341  0.5439050445496393  0.6545498768747393  1.0000
  C   C38       1.0  0.8383994594551755  0.5286441428893695  0.5633535538941885  1.0000
  C   C39       1.0  0.11738550962667199  0.44284027761202066  0.3767267780847092  1.0000
  C   C40       1.0  0.11865258698703231  0.4921796964156612  0.4980191509901886  1.0000
  C   C41       1.0  0.9759564939875887  0.5111351168507097  0.5289799986504704  1.0000
  C   C42       1.0  0.022847877091869882  0.5283956132195726  0.6022135900897752  1.0000
  C   C43       1.0  0.11676237570278399  0.5286914958266278  0.6216266718534555  1.0000
  C   C44       1.0  0.1628968604121681  0.5125121250966272  0.5717517141610885  1.0000
  N   N1        1.0  0.515975528836684  0.9855235016985516  0.5287453776355449  1.0000
  N   N2        1.0  0.49955171424220896  0.013992204551769296  0.4702209914772696  1.0000
  N   N3        1.0  0.45263056978173216  0.4896329292765956  0.004827688515241818  1.0000
  N   N4        1.0  0.5237963542149232  0.5033676593187693  0.9846137329642275  1.0000
  O   O1        1.0  0.5012500758618402  0.4991933534756682  0.49555737024183344  1.0000
  O   O2        1.0  0.6986031119188426  0.5020961200931706  0.5885462748928346  1.0000
  O   O3        1.0  0.29651154165609483  0.43069057666018307  0.4271876148893341  1.0000
  O   O4        1.0  0.7041259747646224  0.5443471431385658  0.4826296214785799  1.0000
  O   O5        1.0  0.30693188227348867  0.5317724399606262  0.501651774587657  1.0000
  O   O6        1.0  0.5585891679740912  0.103346675396871  0.6064777930980441  1.0000
  O   O7        1.0  0.9762903369333744  0.4131888688381764  0.289003793685545  1.0000
  O   O8        1.0  0.4400696155544922  0.5364815339985752  0.648488735358157  1.0000
  O   O9        1.0  0.4272744763980258  0.450559697486881  0.3241080142581226  1.0000
  O   O10       1.0  0.5612086502275349  0.3508241522885456  0.5389642562033998  1.0000
  O   O11       1.0  0.5615916852965556  0.6593085406924644  0.46820890867115855  1.0000
  O   O12       1.0  0.45511762948729745  0.3351425975603277  0.4337235516459188  1.0000
  O   O13       1.0  0.4771353074923825  0.6550796030646565  0.5502081598418727  1.0000
  O   O14       1.0  0.5485739265676489  0.46523995090245046  0.6625206848202297  1.0000
  O   O15       1.0  0.5486272858033489  0.5353307683097696  0.3462197809675516  1.0000
