data_image0
_chemical_formula_structural       Zn4H40C64N16O20
_chemical_formula_sum              "Zn4 H40 C64 N16 O20"
_cell_length_a       6.825549248
_cell_length_b       7.2131941604462915
_cell_length_c       29.631
_cell_angle_alpha    90.01506823365233
_cell_angle_beta     90.0
_cell_angle_gamma    90.0

_space_group_name_H-M_alt    "P 1"
_space_group_IT_number       1

loop_
  _space_group_symop_operation_xyz
  'x, y, z'

loop_
  _atom_site_type_symbol
  _atom_site_label
  _atom_site_symmetry_multiplicity
  _atom_site_fract_x
  _atom_site_fract_y
  _atom_site_fract_z
  _atom_site_occupancy
  Zn  Zn1       1.0  0.0416406049789018  0.052821261247252886  0.7694350579437952  1.0000
  Zn  Zn2       1.0  0.5416399275242654  0.4471791608265291  0.7305642164917856  1.0000
  Zn  Zn3       1.0  0.9583609702789462  0.9471781965518813  0.23056416580739378  1.0000
  Zn  Zn4       1.0  0.4583587175664619  0.552821683321028  0.2694366947701141  1.0000
  H   H1        1.0  0.7014907996456117  0.8626345107000404  0.7772473564060222  1.0000
  H   H2        1.0  0.2014900120166843  0.6373639828244464  0.7227521541451694  1.0000
  H   H3        1.0  0.29850784544511555  0.1373663334475168  0.222752204918315  1.0000
  H   H4        1.0  0.7985100981575999  0.362635474974688  0.2772480820591952  1.0000
  H   H5        1.0  0.8624360891872342  0.7524336745922255  0.7445542629908104  1.0000
  H   H6        1.0  0.362435301558314  0.747566205280684  0.7554449101647407  1.0000
  H   H7        1.0  0.1375640209870497  0.24756716955533156  0.2554456358179138  1.0000
  H   H8        1.0  0.63756480861597  0.2524346388668732  0.2445549886439835  1.0000
  H   H9        1.0  0.2300664668795918  0.1273000575514374  0.8988046805105867  1.0000
  H   H10       1.0  0.7300643243413916  0.3726975918254922  0.6011949312318735  1.0000
  H   H11       1.0  0.7699351083782561  0.8727007865961125  0.10119488081375042  1.0000
  H   H12       1.0  0.2699343207493357  0.6273046386704875  0.3988053051499989  1.0000
  H   H13       1.0  0.7628294531060149  0.1718572958519218  0.9762419767571231  1.0000
  H   H14       1.0  0.2628272003935308  0.328144512570276  0.5237569602828245  1.0000
  H   H15       1.0  0.237170657068269  0.8281393892503672  0.0237579217853394  1.0000
  H   H16       1.0  0.7371699796136326  0.671861876970965  0.4762422639121412  1.0000
  H   H17       1.0  0.9459941999381202  0.0273984038746846  0.9133360998539433  1.0000
  H   H18       1.0  0.4459904821420722  0.4726006318506676  0.586663511977271  1.0000
  H   H19       1.0  0.054007375319727706  0.9725968948791817  0.08666379859976563  1.0000
  H   H20       1.0  0.5540052327815275  0.5274043713421506  0.4133363870977149  1.0000
  H   H21       1.0  0.7733721944130354  0.9232706180051549  0.8443485351274803  1.0000
  H   H22       1.0  0.273371406784115  0.5767251028224862  0.6556516502149776  1.0000
  H   H23       1.0  0.22662645067768494  0.07672745344555658  0.15565170098812334  1.0000
  H   H24       1.0  0.7266257732230488  0.423275741325071  0.3443489235625279  1.0000
  H   H25       1.0  0.7725253761146078  0.3461836782443867  0.0615759410899912  1.0000
  H   H26       1.0  0.2725245884856875  0.15381535748096548  0.43842400822560995  1.0000
  H   H27       1.0  0.2274761991432328  0.6538171659031633  0.938423957718733  1.0000
  H   H28       1.0  0.7274769867721602  0.8461841003181616  0.5615762279787475  1.0000
  H   H29       1.0  0.5982595468337593  0.4475257479321613  0.130651647137924  1.0000
  H   H30       1.0  0.09825729412127522  0.0524719014447683  0.3693483020889303  1.0000
  H   H31       1.0  0.4017420284240814  0.5524750962153888  0.8693482516708003  1.0000
  H   H32       1.0  0.9017428160530088  0.9475275563543661  0.6306519341154342  1.0000
  H   H33       1.0  0.7816836134562166  0.581323620540054  0.1952560754246591  1.0000
  H   H34       1.0  0.2816813607437325  0.9186721002875871  0.30474377243340467  1.0000
  H   H35       1.0  0.2183179618016311  0.4186744509106575  0.8047441606909445  1.0000
  H   H36       1.0  0.7183187494305515  0.0813273575115474  0.695256126286566  1.0000
  H   H37       1.0  0.3217543263120534  0.4947198209323176  0.12339807915697781  1.0000
  H   H38       1.0  0.8217536488574171  0.0052750557477665  0.3766015324079747  1.0000
  H   H39       1.0  0.6782457838622309  0.5052754778215487  0.876602156781125  1.0000
  H   H40       1.0  0.17824792640043094  0.9947244020513606  0.6233983663119957  1.0000
  C   C1        1.0  0.3804441086936522  0.9725691679107269  0.8243489913844115  1.0000
  C   C2        1.0  0.8804419661554519  0.5274279392653369  0.6756505190780189  1.0000
  C   C3        1.0  0.6195560014806321  0.0274302898884073  0.17565090733555883  1.0000
  C   C4        1.0  0.1195566789352682  0.4725715185337975  0.3243497171263457  1.0000
  C   C5        1.0  0.4892324234534656  0.021848851139253594  0.8666150803979136  1.0000
  C   C6        1.0  0.989231745998822  0.4781460255408375  0.6333848686514258  1.0000
  C   C7        1.0  0.5107662216372618  0.9781506066598807  0.1333848183220567  1.0000
  C   C8        1.0  0.0107654340083343  0.5218548186067196  0.3666157051260797  1.0000
  C   C9        1.0  0.38613888849637595  0.1023443995972713  0.9023635431583799  1.0000
  C   C10       1.0  0.8861367459581759  0.3976532497796583  0.5976360685840802  1.0000
  C   C11       1.0  0.613861221677908  0.8976550582018559  0.0976363555615904  1.0000
  C   C12       1.0  0.1138604340489877  0.6023489807163145  0.40236450528218637  1.0000
  C   C13       1.0  0.4821150475127283  0.1526411203670719  0.9423134406602998  1.0000
  C   C14       1.0  0.9821143700580919  0.3473565290098576  0.5576858335977734  1.0000
  C   C15       1.0  0.5178850626615557  0.8473569510836327  0.0576861204865224  1.0000
  C   C16       1.0  0.0178842750326282  0.6526457014861222  0.44231440278409906  1.0000
  C   C17       1.0  0.6859374725589831  0.1278088474225143  0.9458416001276859  1.0000
  C   C18       1.0  0.185935219846499  0.3721888019544224  0.5541580116147742  1.0000
  C   C19       1.0  0.31406263761530084  0.8721864513313518  0.0541586358104098  1.0000
  C   C20       1.0  0.8140619601606576  0.6278148148899803  0.445842224855852  1.0000
  C   C21       1.0  0.7885255536874283  0.047327162448716785  0.9102450062308804  1.0000
  C   C22       1.0  0.2885247660585009  0.4526718732766355  0.5897549430847276  1.0000
  C   C23       1.0  0.21147455648685565  0.9526695226535722  0.08975522979597632  1.0000
  C   C24       1.0  0.7114738790322193  0.5473345162646055  0.4102452935634062  1.0000
  C   C25       1.0  0.6913670722371139  0.9914373699415151  0.8710978622621823  1.0000
  C   C26       1.0  0.19136628460819344  0.508559737234549  0.6289019856846423  1.0000
  C   C27       1.0  0.3086315728536064  0.0085607015091895  0.1289020363690341  1.0000
  C   C28       1.0  0.8086294303154062  0.4914411069130082  0.3710975756396948  1.0000
  C   C29       1.0  0.3692860322908942  0.23066619593612356  0.9799479455223834  1.0000
  C   C30       1.0  0.8692853548362509  0.2693342261376515  0.5200516663975918  1.0000
  C   C31       1.0  0.6307140778833897  0.7693346482114263  0.020051953286341  1.0000
  C   C32       1.0  0.1307132902544694  0.7306652316614828  0.47994890729115985  1.0000
  C   C33       1.0  0.16973725599291364  0.3563941343764014  0.04780419424497501  1.0000
  C   C34       1.0  0.6697351134547135  0.1436021286521054  0.4521957548931184  1.0000
  C   C35       1.0  0.8302643192649342  0.643603937074303  0.9521960418706286  1.0000
  C   C36       1.0  0.33026499671957055  0.8563973291470288  0.547804481311239  1.0000
  C   C37       1.0  0.0597490377964078  0.4180422760299719  0.08758945112205652  1.0000
  C   C38       1.0  0.5597483603417714  0.08195537334695757  0.4124101606204036  1.0000
  C   C39       1.0  0.9402525374614399  0.5819530227238872  0.9124107848160391  1.0000
  C   C40       1.0  0.4402532149160764  0.9180468571490221  0.5875897382770745  1.0000
  C   C41       1.0  0.8544381980261733  0.4034149138237382  0.0899083823729043  1.0000
  C   C42       1.0  0.3544359453136893  0.09658134920476867  0.410091229280802  1.0000
  C   C43       1.0  0.1455633772316745  0.5965831576269665  0.9100915162583121  1.0000
  C   C44       1.0  0.6455626997770381  0.9034181085943658  0.5899086694391684  1.0000
  C   C45       1.0  0.7566717068979261  0.4618494998338605  0.1286674809659232  1.0000
  C   C46       1.0  0.2566694541854417  0.0381481495430691  0.3713324682609311  1.0000
  C   C47       1.0  0.2433298683599219  0.538149957965274  0.8713324177540471  1.0000
  C   C48       1.0  0.7433306559888423  0.9618513082560582  0.6286677679434265  1.0000
  C   C49       1.0  0.8595293634016417  0.5364988169940261  0.16510201269804983  1.0000
  C   C50       1.0  0.3595271106891574  0.9634982901820377  0.3348971602799935  1.0000
  C   C51       1.0  0.1404722118561992  0.4634978681082628  0.834898223328807  1.0000
  C   C52       1.0  0.6404729994851267  0.0365039403139349  0.6651020636487033  1.0000
  C   C53       1.0  0.0644285146911585  0.5468271127419584  0.16326608386597746  1.0000
  C   C54       1.0  0.5644249070694016  0.9531713807825283  0.33673308920081263  1.0000
  C   C55       1.0  0.9355730605666892  0.4531695723603306  0.836733814676478  1.0000
  C   C56       1.0  0.4355752031048824  0.0468308497134515  0.6632664722122712  1.0000
  C   C57       1.0  0.163087241708233  0.4872501756316652  0.1247124401330737  1.0000
  C   C58       1.0  0.663083634086469  0.0127460873968488  0.3752875090050196  1.0000
  C   C59       1.0  0.8369143335496148  0.5127451231222011  0.8752877958050223  1.0000
  C   C60       1.0  0.3369164760878149  0.9872561430991309  0.6247127273768527  1.0000
  C   C61       1.0  0.1822402791049385  0.604988588112839  0.2029826081924924  1.0000
  C   C62       1.0  0.682239601650295  0.8950112917600705  0.2970172399318471  1.0000
  C   C63       1.0  0.8177598310693456  0.3950094833378727  0.7970176279231183  1.0000
  C   C64       1.0  0.3177619736075457  0.1049909387359023  0.7029823214812437  1.0000
  N   N1        1.0  0.1714162417541445  0.230100565779729  0.9769723094317868  1.0000
  N   N2        1.0  0.6714155642995083  0.269899856294046  0.523026965003794  1.0000
  N   N3        1.0  0.8285838684201396  0.7699016647162509  0.0230275894656913  1.0000
  N   N4        1.0  0.3285845458747758  0.7301009878535041  0.4769729338049302  1.0000
  N   N5        1.0  0.0699430892158404  0.294644789287986  0.011324927986407803  1.0000
  N   N6        1.0  0.569942411761204  0.2053556327857891  0.488674346449173  1.0000
  N   N7        1.0  0.9300584860420003  0.7053560548595641  0.9886749708223164  1.0000
  N   N8        1.0  0.43005769841307995  0.7946452113617681  0.5113258898439454  1.0000
  N   N9        1.0  0.3679777126706654  0.3661068914247281  0.0497072155773708  1.0000
  N   N10       1.0  0.8679770352160219  0.133893530649047  0.45029205885821005  1.0000
  N   N11       1.0  0.6320223975036188  0.6338925663743993  0.9502926831425995  1.0000
  N   N12       1.0  0.13202307495826202  0.8661100861953485  0.5497078401280219  1.0000
  N   N13       1.0  0.46902452589262833  0.3028076087999096  0.0153705384912399  1.0000
  N   N14       1.0  0.9690238484379918  0.19719419962228804  0.484629073517489  1.0000
  N   N15       1.0  0.5309755842816557  0.6971932353476404  0.9846290228330972  1.0000
  N   N16       1.0  0.03097626173629211  0.8028094172221145  0.5153711629531372  1.0000
  O   O1        1.0  0.841479533926588  0.8524268272648712  0.7675501013698921  1.0000
  O   O2        1.0  0.3414787462976606  0.647574438956461  0.7324483969056317  1.0000
  O   O3        1.0  0.15851911116413933  0.14757540323110865  0.23244912255880484  1.0000
  O   O4        1.0  0.6585198987930596  0.3524250188426663  0.2675518392987328  1.0000
  O   O5        1.0  0.46655732517542253  0.8889182904430014  0.7923909513009023  1.0000
  O   O6        1.0  0.9665566477207861  0.6110788167330625  0.7076088966459224  1.0000
  O   O7        1.0  0.5334427849988614  0.1110825537045486  0.207608947507822  1.0000
  O   O8        1.0  0.0334449275370616  0.3889206410660719  0.2923920145272234  1.0000
  O   O9        1.0  0.19898471912688365  0.0209920878141219  0.8234656212071982  1.0000
  O   O10       1.0  0.6989840416722475  0.47900417521438493  0.6765339904465082  1.0000
  O   O11       1.0  0.8010153910474005  0.9790073699850124  0.17653394002837794  1.0000
  O   O12       1.0  0.3010160685020367  0.5209980552815878  0.32346692090415274  1.0000
  O   O13       1.0  0.1219564858086599  0.7245666849507229  0.2315161318551944  1.0000
  O   O14       1.0  0.6219587385211442  0.7754318085737636  0.2684833786959899  1.0000
  O   O15       1.0  0.8780421592820674  0.2754327728484114  0.7684837668647759  1.0000
  O   O16       1.0  0.37804137165314  0.2245662628769409  0.7315165199352265  1.0000
  O   O17       1.0  0.3462197567019914  0.5223026091472036  0.2085616687944878  1.0000
  O   O18       1.0  0.8462190792473478  0.9776958843772829  0.2914385167254778  1.0000
  O   O19       1.0  0.6537818185558566  0.4776968486519308  0.7914389048942639  1.0000
  O   O20       1.0  0.15378103092693615  0.02230357342184419  0.7085607070257113  1.0000
