data_image0
_chemical_formula_structural       Zn2H48C66N12O16
_chemical_formula_sum              "Zn2 H48 C66 N12 O16"
_cell_length_a       9.583445270456181
_cell_length_b       12.898498405378328
_cell_length_c       13.300044199223905
_cell_angle_alpha    72.21064073063937
_cell_angle_beta     74.80744965209865
_cell_angle_gamma    74.08712836542875

_space_group_name_H-M_alt    "P 1"
_space_group_IT_number       1

loop_
  _space_group_symop_operation_xyz
  'x, y, z'

loop_
  _atom_site_type_symbol
  _atom_site_label
  _atom_site_symmetry_multiplicity
  _atom_site_fract_x
  _atom_site_fract_y
  _atom_site_fract_z
  _atom_site_occupancy
  Zn  Zn1       1.0  0.09835124652026661  0.9226995595589713  0.31377206056286866  1.0000
  Zn  Zn2       1.0  0.9016540285046022  0.0773016382479454  0.6862298027865208  1.0000
  H   H1        1.0  0.3763346852633306  0.6615361761111913  0.3813854155347941  1.0000
  H   H2        1.0  0.6236639532728676  0.33846170245604407  0.6186164115972588  1.0000
  H   H3        1.0  0.5151557559029173  0.6523314096962238  0.45094976847318696  1.0000
  H   H4        1.0  0.4848403383541537  0.34766397335307186  0.5490517705805547  1.0000
  H   H5        1.0  0.3714761355011902  0.502130303372134  0.3288031549328281  1.0000
  H   H6        1.0  0.6285203770646889  0.49786756456048653  0.6711945578369836  1.0000
  H   H7        1.0  0.48266493674319133  0.31150942079239746  0.3097754497993677  1.0000
  H   H8        1.0  0.5173346177765341  0.6884892599901776  0.6902184494444157  1.0000
  H   H9        1.0  0.8895879135753051  0.334622918749787  0.37570482784229137  1.0000
  H   H10       1.0  0.1104068213169924  0.6653774539812717  0.6242932189430234  1.0000
  H   H11       1.0  0.7747188367168153  0.5237526555294706  0.3986305405687815  1.0000
  H   H12       1.0  0.2252769484311656  0.47624772807338894  0.601371067881594  1.0000
  H   H13       1.0  0.4109640471407446  0.7381584926388244  0.18268709828818427  1.0000
  H   H14       1.0  0.5890402442648864  0.26183853229947823  0.817312432559703  1.0000
  H   H15       1.0  0.5216993461133516  0.8716877499530468  0.024971838033515284  1.0000
  H   H16       1.0  0.478307313735229  0.12830844706311947  0.9750305086164133  1.0000
  H   H17       1.0  0.8373726183817  0.874753666109534  0.2034677450845805  1.0000
  H   H18       1.0  0.1626272937886171  0.1252433931044905  0.7965386018782539  1.0000
  H   H19       1.0  0.7288700933255897  0.738962819910647  0.3588131621161211  1.0000
  H   H20       1.0  0.27112434817620806  0.26103841359513785  0.6411922011651612  1.0000
  H   H21       1.0  0.9544964132468439  0.1554120530937411  0.4006516216989339  1.0000
  H   H22       1.0  0.04550215865290145  0.8445899874703074  0.5993489762695603  1.0000
  H   H23       1.0  0.6197996970609483  0.1736128754780921  0.2359353328411942  1.0000
  H   H24       1.0  0.3802024492801623  0.8263841471573412  0.7640623403703656  1.0000
  H   H25       1.0  0.7292188713682325  0.9051474406705963  0.8791979981393254  1.0000
  H   H26       1.0  0.27078193769141734  0.09485042909051337  0.1208026776611604  1.0000
  H   H27       1.0  0.8138035365307276  0.0645182158542781  0.0867052847115417  1.0000
  H   H28       1.0  0.1862105347666728  0.9354746310662563  0.9132966883646247  1.0000
  H   H29       1.0  0.8720477316269  0.6213897661346692  0.6254387680063046  1.0000
  H   H30       1.0  0.1279506678122786  0.3786130824364094  0.374554853860694  1.0000
  H   H31       1.0  0.12485823939987038  0.5846787761034022  0.31546815966886743  1.0000
  H   H32       1.0  0.8751375236647976  0.4153257500555513  0.6845269539241557  1.0000
  H   H33       1.0  0.33230871170806614  0.1816365969888309  0.4377320485202462  1.0000
  H   H34       1.0  0.6676879174215177  0.8183762862535318  0.5622701863464954  1.0000
  H   H35       1.0  0.4807066449494572  0.832641388180441  0.45460028321044643  1.0000
  H   H36       1.0  0.5192937089987382  0.167369811682363  0.545399508143511  1.0000
  H   H37       1.0  0.29089063026633977  0.21566114599320937  0.250977623172453  1.0000
  H   H38       1.0  0.7091072842275852  0.7843433796913575  0.749018595814924  1.0000
  H   H39       1.0  0.6408828464271965  0.3201855018492097  0.959620627768409  1.0000
  H   H40       1.0  0.3591216208146124  0.6798148465291688  0.040376375355727155  1.0000
  H   H41       1.0  0.2825273974941354  0.5030090934609249  0.1511261051525565  1.0000
  H   H42       1.0  0.7174749183184164  0.49699125539182637  0.8488697925772257  1.0000
  H   H43       1.0  0.08926752058965093  0.7769652449985006  0.11158149250825737  1.0000
  H   H44       1.0  0.9107320369191997  0.2230293015597269  0.888421158318792  1.0000
  H   H45       1.0  0.04391431077224441  0.6567105119802435  0.8401355545942053  1.0000
  H   H46       1.0  0.956082811657197  0.34328902449693993  0.15986305126725142  1.0000
  H   H47       1.0  0.9909584547729511  0.5195000121108678  0.1823965653695794  1.0000
  H   H48       1.0  0.009037808955561414  0.48049869715574534  0.8176031982023915  1.0000
  C   C1        1.0  0.4964781470508656  0.6446747943525182  0.3756892708042584  1.0000
  C   C2        1.0  0.5035196518785982  0.3553222486724081  0.6243114573123947  1.0000
  C   C3        1.0  0.5646152186381529  0.5273589442851402  0.364446879293361  1.0000
  C   C4        1.0  0.4353810514550959  0.4726397622042243  0.6355521320366436  1.0000
  C   C5        1.0  0.4854974404509492  0.4659582465612146  0.33854361300902985  1.0000
  C   C6        1.0  0.5144988551012305  0.5340404488191625  0.6614523893530874  1.0000
  C   C7        1.0  0.5485601760924653  0.358082778002867  0.327169549089021  1.0000
  C   C8        1.0  0.4514385069968655  0.6419150811236278  0.6728270123492307  1.0000
  C   C9        1.0  0.6945377576372496  0.3111204769741533  0.33977763320914534  1.0000
  C   C10       1.0  0.30545829544229985  0.6888790569629677  0.6602196677131574  1.0000
  C   C11       1.0  0.7759615070961134  0.3712397298461808  0.36522545945225465  1.0000
  C   C12       1.0  0.2240349261038403  0.6287623056377571  0.6347725286379459  1.0000
  C   C13       1.0  0.7104128700005534  0.47803649446245083  0.37799983873983223  1.0000
  C   C14       1.0  0.2895818585270078  0.5219638810458561  0.6219989602874635  1.0000
  C   C15       1.0  0.5621708189385831  0.7289662125893269  0.2815809641480982  1.0000
  C   C16       1.0  0.4378257930866668  0.27103501211033887  0.718423247801617  1.0000
  C   C17       1.0  0.5054771979597207  0.7671623594428425  0.18681997830064034  1.0000
  C   C18       1.0  0.49452575616445676  0.2328355126211292  0.813182555136166  1.0000
  C   C19       1.0  0.5662505927623301  0.8432567047189038  0.0984658530644253  1.0000
  C   C20       1.0  0.43375522111478665  0.1567386595321949  0.9015361468120775  1.0000
  C   C21       1.0  0.6857777423363063  0.8812047735630628  0.1053401423184966  1.0000
  C   C22       1.0  0.3142309185642916  0.11878808842966042  0.8946628284816429  1.0000
  C   C23       1.0  0.7450430641628006  0.8441703461618529  0.19843834818320963  1.0000
  C   C24       1.0  0.2549570968448834  0.1558258717181786  0.8015659479774585  1.0000
  C   C25       1.0  0.6826117643492611  0.7680045355241776  0.28589456608735725  1.0000
  C   C26       1.0  0.3173859963918062  0.23199252416422672  0.7141106754811233  1.0000
  C   C27       1.0  0.8892800008064586  0.1358016471488952  0.35571184095049085  1.0000
  C   C28       1.0  0.11071990837474043  0.8641995462894769  0.6442857544290703  1.0000
  C   C29       1.0  0.7160357496199483  0.1439336920628023  0.27311814294054665  1.0000
  C   C30       1.0  0.2839669938552661  0.8560650046716842  0.7268819278465986  1.0000
  C   C31       1.0  0.7625842699932976  0.9622678469545393  0.9090771829407202  1.0000
  C   C32       1.0  0.23741999595340252  0.0377291890927438  0.0909253568750472  1.0000
  C   C33       1.0  0.8069766825481113  0.0447217896627166  0.014661068733133225  1.0000
  C   C34       1.0  0.1930360960209684  0.9552718849427608  0.9853386412381653  1.0000
  C   C35       1.0  0.9999117803910166  0.6137984715798482  0.4674321447250875  1.0000
  C   C36       1.0  8.099163765962237e-05  0.3862052195111758  0.5325607644581964  1.0000
  C   C37       1.0  0.9274597153491942  0.5673966147709634  0.5711980777084521  1.0000
  C   C38       1.0  0.07253588460876165  0.4326045823934166  0.42879805912437524  1.0000
  C   C39       1.0  0.07158022374257203  0.5460223179192029  0.3962475498395932  1.0000
  C   C40       1.0  0.9284123851793996  0.45397804417724785  0.6037463825834877  1.0000
  C   C41       1.0  0.008291523778311194  0.7341436667690503  0.4355821361274367  1.0000
  C   C42       1.0  0.9917044626647852  0.265860029164898  0.5644139356313147  1.0000
  C   C43       1.0  0.3982268220923332  0.008046035109650502  0.437820964793147  1.0000
  C   C44       1.0  0.6017663976924583  0.9919635281814579  0.562182891947792  1.0000
  C   C45       1.0  0.4079291670385318  0.10293251781524052  0.4635323411738455  1.0000
  C   C46       1.0  0.5920670819706474  0.8970778638803125  0.5364692065250126  1.0000
  C   C47       1.0  0.4903485353548264  0.9053904640755662  0.4751141453914586  1.0000
  C   C48       1.0  0.5096468485886874  0.09461909318666528  0.5248893122598872  1.0000
  C   C49       1.0  0.2901622394584464  0.013868194353953804  0.37220303051106646  1.0000
  C   C50       1.0  0.7098340031860034  0.9861421901188477  0.627799269429765  1.0000
  C   C51       1.0  0.45753194864904884  0.39995306506788336  0.062178248604006156  1.0000
  C   C52       1.0  0.5424725122280238  0.6000472860877365  0.9378195067621035  1.0000
  C   C53       1.0  0.5795466386352712  0.3995533587278289  0.9763965804132653  1.0000
  C   C54       1.0  0.42046150250727987  0.6004453284889594  0.023603997133847022  1.0000
  C   C55       1.0  0.37794277469695464  0.501549634164178  0.08534012520008359  1.0000
  C   C56       1.0  0.6220632213810762  0.4984490507497484  0.9146585947107084  1.0000
  C   C57       1.0  0.420321694491463  0.2903745547122867  0.1268958865100629  1.0000
  C   C58       1.0  0.5796838421002378  0.7096257962061473  0.8731024215532202  1.0000
  C   C59       1.0  0.020956068887485954  0.5986536292592958  0.01181804309602804  1.0000
  C   C60       1.0  0.9790380370470335  0.4013450832589456  0.9881813673235629  1.0000
  C   C61       1.0  0.024594560151278682  0.5872860972412611  0.9095210628601933  1.0000
  C   C62       1.0  0.9754014801988053  0.4127134422503573  0.09047774254604944  1.0000
  C   C63       1.0  0.9956601499682239  0.5105611776599233  0.10268626320703327  1.0000
  C   C64       1.0  0.004332631414307347  0.4894383764294972  0.8973146453175361  1.0000
  C   C65       1.0  0.04649724086384318  0.7050871012634091  0.018804962439148153  1.0000
  C   C66       1.0  0.9535037915742423  0.2949099382726957  0.9811966715270658  1.0000
  N   N1        1.0  0.9172725754483937  0.0436947032345287  0.3234353817673182  1.0000
  N   N2        1.0  0.08273016166207729  0.9563039962771996  0.6765654412618005  1.0000
  N   N3        1.0  0.8082754770316571  0.0480666346590226  0.27125381057080494  1.0000
  N   N4        1.0  0.1917274961867151  0.9519312290732102  0.7287464661400949  1.0000
  N   N5        1.0  0.761964939553991  0.20237653205177253  0.3249556225248185  1.0000
  N   N6        1.0  0.23803542274880143  0.7976229981593478  0.6750431369442182  1.0000
  N   N7        1.0  0.8251557175303149  0.045747567598119994  0.8485916309554823  1.0000
  N   N8        1.0  0.174849014267444  0.9542477996674139  0.15141056846581344  1.0000
  N   N9        1.0  0.8535937573517315  0.09832440126131563  0.9147266352536293  1.0000
  N   N10       1.0  0.14641467380570117  0.9016692937336545  0.08527612962276264  1.0000
  N   N11       1.0  0.7484369234203855  0.9590502447903332  0.014552662271782408  1.0000
  N   N12       1.0  0.2515699598066235  0.04094512200082791  0.9854506425438673  1.0000
  O   O1        1.0  0.07508861496173581  0.7703373595086662  0.33749301882156857  1.0000
  O   O2        1.0  0.9249132095408259  0.229664669234829  0.6625062282705727  1.0000
  O   O3        1.0  0.9567240220096881  0.7918737509436229  0.502848163794269  1.0000
  O   O4        1.0  0.04327478599795141  0.20812745384093032  0.4971518878560062  1.0000
  O   O5        1.0  0.24575300405796716  0.922683440788404  0.39124377736399657  1.0000
  O   O6        1.0  0.7542580742135812  0.0773202379386433  0.6087562709453636  1.0000
  O   O7        1.0  0.24679905118166096  0.10174941971288828  0.30353072803531234  1.0000
  O   O8        1.0  0.7532055728021166  0.898254260437298  0.6964660040909935  1.0000
  O   O9        1.0  0.49222488958179184  0.20125636391656335  0.10615287345479628  1.0000
  O   O10       1.0  0.5077750068699418  0.7987448350763059  0.8938462264087121  1.0000
  O   O11       1.0  0.30759271453260345  0.2955328726340767  0.21063028474269882  1.0000
  O   O12       1.0  0.6924038881387915  0.7044724890671856  0.7893659278657239  1.0000
  O   O13       1.0  0.049189153440032427  0.787658867089661  0.9416195711735965  1.0000
  O   O14       1.0  0.9508142792646697  0.2123373306380714  0.058381117384804816  1.0000
  O   O15       1.0  0.06834403286421785  0.7023432705617766  0.11529388734777508  1.0000
  O   O16       1.0  0.9316537660652462  0.2976537724631498  0.8847068407688782  1.0000
