data_image0
_chemical_formula_structural       Ag2H10C14N6O6F6
_chemical_formula_sum              "Ag2 H10 C14 N6 O6 F6"
_cell_length_a       7.063401170536656
_cell_length_b       7.151337782453247
_cell_length_c       10.662403046707798
_cell_angle_alpha    92.40741424027061
_cell_angle_beta     95.87774388823951
_cell_angle_gamma    114.49636356024314

_space_group_name_H-M_alt    "P 1"
_space_group_IT_number       1

loop_
  _space_group_symop_operation_xyz
  'x, y, z'

loop_
  _atom_site_type_symbol
  _atom_site_label
  _atom_site_symmetry_multiplicity
  _atom_site_fract_x
  _atom_site_fract_y
  _atom_site_fract_z
  _atom_site_occupancy
  Ag  Ag1       1.0  0.6804335736646723  0.4437578021521135  0.4724111481274562  1.0000
  Ag  Ag2       1.0  0.3195693720674555  0.5562425608667497  0.5275872083962412  1.0000
  H   H1        1.0  0.19416933873993963  0.3521281715937762  0.795006536584701  1.0000
  H   H2        1.0  0.8058449571413746  0.6478750997176093  0.2049871190905677  1.0000
  H   H3        1.0  0.9681947106093459  0.19847066805775174  0.8655574992947024  1.0000
  H   H4        1.0  0.03180887879416626  0.8015311305265843  0.1344437759026249  1.0000
  H   H5        1.0  0.2385725415184368  0.10715931523620272  0.5304563556180781  1.0000
  H   H6        1.0  0.761423859672476  0.8928269570709305  0.46954659013903927  1.0000
  H   H7        1.0  0.3600556563043753  0.8543574750314635  0.8750143261366291  1.0000
  H   H8        1.0  0.6399499471000427  0.14563946014066437  0.12498877136485481  1.0000
  H   H9        1.0  0.09355088609319026  0.8676930313820677  0.6997097763859799  1.0000
  H   H10       1.0  0.9064532477869491  0.1323007488718488  0.3002949643248698  1.0000
  C   C1        1.0  0.6458346900066729  0.6379075105111766  0.7520803796876975  1.0000
  C   C2        1.0  0.3541491018676339  0.3620792258474098  0.24792262345995653  1.0000
  C   C3        1.0  0.7506524136542724  0.6681985140013255  0.8917965485821854  1.0000
  C   C4        1.0  0.24933873124413006  0.3318102049498324  0.108200367477572  1.0000
  C   C5        1.0  0.6764056000507567  0.1616177471432252  0.6960186508180471  1.0000
  C   C6        1.0  0.32360218486740433  0.8383838849328175  0.30398291693896345  1.0000
  C   C7        1.0  0.34077816703854313  0.08447645173793462  0.6063665674715892  1.0000
  C   C8        1.0  0.6592113608940835  0.9155164834515619  0.3936333442971147  1.0000
  C   C9        1.0  0.40860975139020894  0.9463785482569451  0.7953853258708321  1.0000
  C   C10       1.0  0.5913957609234617  0.0536182450215392  0.20462151190896094  1.0000
  C   C11       1.0  0.26213504893674167  0.9555743674886374  0.7005436194779691  1.0000
  C   C12       1.0  0.7378704633769289  0.044422425789846905  0.299463218301824  1.0000
  C   C13       1.0  0.9096826663912269  0.2689648051429502  0.6880566480655119  1.0000
  C   C14       1.0  0.09031663640690361  0.7310370180560213  0.3119480748504557  1.0000
  N   N1        1.0  0.5482829747380933  0.18863509269404943  0.6037621786104523  1.0000
  N   N2        1.0  0.4517079798747901  0.8113640304675799  0.3962390245675138  1.0000
  N   N3        1.0  0.6160543828637232  0.04829369135630659  0.793128842777854  1.0000
  N   N4        1.0  0.383945013726496  0.9517113777370627  0.2068732043392671  1.0000
  N   N5        1.0  0.034801638417846364  0.2726292364450487  0.7914361899804235  1.0000
  N   N6        1.0  0.9652028451566185  0.7273743879122707  0.20855771812517077  1.0000
  O   O1        1.0  0.765592633843511  0.7074014441554443  0.669959772786001  1.0000
  O   O2        1.0  0.234399209537635  0.2925932967776816  0.3300319343412852  1.0000
  O   O3        1.0  0.4480338423613689  0.5385918411596651  0.7376555203575919  1.0000
  O   O4        1.0  0.5519641958666598  0.4614071463817951  0.26234243014152275  1.0000
  O   O5        1.0  0.9716591666300047  0.3455817725210722  0.5884213689228233  1.0000
  O   O6        1.0  0.02833256829039493  0.6544189990464916  0.4115771425112981  1.0000
  F   F1        1.0  0.7580588145366535  0.48847569249872436  0.9256073530184139  1.0000
  F   F2        1.0  0.2419562469835199  0.51153850374741  0.0743877394210131  1.0000
  F   F3        1.0  0.9528362807076007  0.815922911966659  0.9109068888065366  1.0000
  F   F4        1.0  0.04715521658647501  0.18409875508864104  0.0890802591274422  1.0000
  F   F5        1.0  0.645074566568873  0.722129000219674  0.9757524323444288  1.0000
  F   F6        1.0  0.3549276243297683  0.2778728538674216  0.024248745333004314  1.0000
