data_image0
_chemical_formula_structural       Ca2H4C4O10
_chemical_formula_sum              "Ca2 H4 C4 O10"
_cell_length_a       5.8783282988060845
_cell_length_b       5.878421517851115
_cell_length_c       7.385563352504715
_cell_angle_alpha    75.05911788573772
_cell_angle_beta     75.05905755800073
_cell_angle_gamma    76.0529506289466

_space_group_name_H-M_alt    "P 1"
_space_group_IT_number       1

loop_
  _space_group_symop_operation_xyz
  'x, y, z'

loop_
  _atom_site_type_symbol
  _atom_site_label
  _atom_site_symmetry_multiplicity
  _atom_site_fract_x
  _atom_site_fract_y
  _atom_site_fract_z
  _atom_site_occupancy
  Ca  Ca1       1.0  0.2142275041509407  0.21422726430909483  0.39302912926104483  1.0000
  Ca  Ca2       1.0  0.7857703150999742  0.785784391750191  0.6069736845365697  1.0000
  H   H1        1.0  0.9281713848694724  0.14859545581903436  0.7851690862250179  1.0000
  H   H2        1.0  0.8514218953619661  0.07181687551468492  0.2148423298699882  1.0000
  H   H3        1.0  0.07182913113187081  0.8514019532230537  0.21484164929656663  1.0000
  H   H4        1.0  0.14858050668243547  0.9281785296196717  0.7851562429243302  1.0000
  C   C1        1.0  0.6071985154223469  0.39280543763104  0.4999962965909147  1.0000
  C   C2        1.0  0.3928131568612444  0.6071970775002171  0.49999872412146107  1.0000
  C   C3        1.0  0.6074106209004881  0.39258362731877844  0.9999958688545404  1.0000
  C   C4        1.0  0.3925901444019362  0.6074009773122242  1.3382214091760346e-06  1.0000
  O   O1        1.0  0.5887713877526934  0.21668753387323395  0.14095077908010717  1.0000
  O   O2        1.0  0.783305165001103  0.41123779906052965  0.8590433205195254  1.0000
  O   O3        1.0  0.41121163095381524  0.7832991622892466  0.8590620111006757  1.0000
  O   O4        1.0  0.21668670647165555  0.5887665254613312  0.14095018463325462  1.0000
  O   O5        1.0  0.8136820929139648  0.4444514432012667  0.45635102178830084  1.0000
  O   O6        1.0  0.5555575764054481  0.1863146830160858  0.5436435805913717  1.0000
  O   O7        1.0  0.18629759798475481  0.555561922704392  0.5436445183442729  1.0000
  O   O8        1.0  0.4444458986923366  0.8137040127037879  0.4563510631447017  1.0000
  O   O9        1.0  0.011628079942518398  0.0115769498930334  0.7205557464708504  1.0000
  O   O10       1.0  0.9883936416355324  0.9884094647218901  0.27944464923937323  1.0000
