data_image0
_chemical_formula_structural       Er4H20C36O24
_chemical_formula_sum              "Er4 H20 C36 O24"
_cell_length_a       6.572488811907771
_cell_length_b       10.642079460625341
_cell_length_c       12.799276783066025
_cell_angle_alpha    89.99988474446421
_cell_angle_beta     89.99966134737997
_cell_angle_gamma    95.17729733187619

_space_group_name_H-M_alt    "P 1"
_space_group_IT_number       1

loop_
  _space_group_symop_operation_xyz
  'x, y, z'

loop_
  _atom_site_type_symbol
  _atom_site_label
  _atom_site_symmetry_multiplicity
  _atom_site_fract_x
  _atom_site_fract_y
  _atom_site_fract_z
  _atom_site_occupancy
  Er  Er1       1.0  0.39956267873046164  0.5738675656299249  0.1268732665224235  1.0000
  Er  Er2       1.0  0.10044205672690511  0.4261323150960694  0.6268731898572639  1.0000
  Er  Er3       1.0  0.6004356964587033  0.4261299745117669  0.8731277494770138  1.0000
  Er  Er4       1.0  0.899558652876813  0.5738708876219079  0.37312860742801485  1.0000
  H   H1        1.0  0.9821096682867961  0.9722296490641114  0.279480668662643  1.0000
  H   H2        1.0  0.5178912082997513  0.027766789383392193  0.7794838559989116  1.0000
  H   H3        1.0  0.0178912085391545  0.027764120012626813  0.7205164408654453  1.0000
  H   H4        1.0  0.48210879231279347  0.9722420729289423  0.2205163786944055  1.0000
  H   H5        1.0  0.9309210372089539  0.4168252696157922  0.13339795900435547  1.0000
  H   H6        1.0  0.5690710664001842  0.5831725510351546  0.6333953701087864  1.0000
  H   H7        1.0  0.0690772025146629  0.5831713270081805  0.8666054008785194  1.0000
  H   H8        1.0  0.43092744422189366  0.4168259326158577  0.3666087710662324  1.0000
  H   H9        1.0  0.0877832800493508  0.19614491405041432  0.22847042318960575  1.0000
  H   H10       1.0  0.4122124988300442  0.8038537033358891  0.7284718890404918  1.0000
  H   H11       1.0  0.912214553338238  0.8038488520360051  0.7715298115196841  1.0000
  H   H12       1.0  0.5877931822439351  0.19615233439912325  0.2715322521172823  1.0000
  H   H13       1.0  0.34631613414720863  0.06610327456559871  0.9445434108070642  1.0000
  H   H14       1.0  0.15368673794746  0.9338984615179201  0.4445459745432103  1.0000
  H   H15       1.0  0.6536822410512783  0.9338942655785021  0.05545604260409219  1.0000
  H   H16       1.0  0.8463164732650769  0.06610097012789852  0.5554566040355765  1.0000
  H   H17       1.0  0.2452955266577561  0.8421257331193248  0.9967396119677474  1.0000
  H   H18       1.0  0.2547068579225212  0.15787678600131025  0.49674239045411633  1.0000
  H   H19       1.0  0.7547013268448667  0.1578718055356205  0.0032574975632897  1.0000
  H   H20       1.0  0.7452967596726624  0.8421254761940705  0.5032555003568078  1.0000
  C   C1        1.0  0.2986330120452649  0.2754932192346047  0.0516991106080482  1.0000
  C   C2        1.0  0.2013662628729307  0.724504999613103  0.5516997884446794  1.0000
  C   C3        1.0  0.701366613955301  0.7245024353728128  0.948301124096936  1.0000
  C   C4        1.0  0.7986359684313129  0.2754982045952231  0.4483035714265782  1.0000
  C   C5        1.0  0.783486460310563  0.4587828044805846  0.1314480378042191  1.0000
  C   C6        1.0  0.7165125661826509  0.5412206892373348  0.6314349141021224  1.0000
  C   C7        1.0  0.21651039316874693  0.5412147341683494  0.8685529781975346  1.0000
  C   C8        1.0  0.283487872517945  0.45878062645240203  0.368566883185153  1.0000
  C   C9        1.0  0.10761305809224814  0.8940279462785699  0.1411851877990173  1.0000
  C   C10       1.0  0.39239302824481115  0.10597189193406112  0.6411878860205603  1.0000
  C   C11       1.0  0.8923847753139852  0.1059658198126456  0.8588119217336966  1.0000
  C   C12       1.0  0.6076092030827525  0.8940313122802764  0.3588115673799734  1.0000
  C   C13       1.0  0.061541005441760915  0.9938263486945546  0.20615837638290907  1.0000
  C   C14       1.0  0.4384582186109398  0.0061732837912061005  0.706158758209291  1.0000
  C   C15       1.0  0.9384568279551503  0.0061674173942592005  0.7938402957380929  1.0000
  C   C16       1.0  0.5615444190712964  0.9938327509654883  0.2938406951882442  1.0000
  C   C17       1.0  0.12076150014198818  0.1181276384391836  0.17785898518619087  1.0000
  C   C18       1.0  0.37923806166396196  0.8818720810523432  0.6778596390144215  1.0000
  C   C19       1.0  0.8792364686878357  0.8818670711589506  0.8221428121103925  1.0000
  C   C20       1.0  0.6207659622625953  0.11813301167939022  0.3221421582642349  1.0000
  C   C21       1.0  0.2254760314455524  0.1438291551791693  0.08366051327646319  1.0000
  C   C22       1.0  0.274527833498361  0.8561718004248604  0.5836607474653162  1.0000
  C   C23       1.0  0.7745285660532489  0.8561693344524888  0.916337377536145  1.0000
  C   C24       1.0  0.7254760549766317  0.1438323487927491  0.4163410498143349  1.0000
  C   C25       1.0  0.26742921850117807  0.04398709155694291  0.017830251317022296  1.0000
  C   C26       1.0  0.2325704606280468  0.956011231416163  0.5178335706131775  1.0000
  C   C27       1.0  0.7325722001310098  0.9560104515762761  0.9821668582070657  1.0000
  C   C28       1.0  0.7674314997963946  0.04399008576993419  0.48216588278934575  1.0000
  C   C29       1.0  0.0588938653521183  0.7600926064393364  0.1745091321973931  1.0000
  C   C30       1.0  0.4410948136363402  0.2399052258927696  0.6744973940288969  1.0000
  C   C31       1.0  0.941107146930051  0.2399021061527264  0.8254871960355457  1.0000
  C   C32       1.0  0.558904238829271  0.76009703182433  0.3255004967889761  1.0000
  C   C33       1.0  0.2102350545825189  0.920150045690356  0.046595290352193786  1.0000
  C   C34       1.0  0.2897659384252762  0.07984913385942602  0.5465936568212655  1.0000
  C   C35       1.0  0.7897645714413528  0.07984560892306551  0.9534010378820665  1.0000
  C   C36       1.0  0.7102360219991652  0.9201521833266711  0.45340579658126495  1.0000
  O   O1        1.0  0.27509311963055444  0.36529973448093506  0.11585582093516679  1.0000
  O   O2        1.0  0.22490579593247875  0.6347011176610808  0.6158557967049063  1.0000
  O   O3        1.0  0.7249037338534167  0.6346978041691997  0.8841444137724465  1.0000
  O   O4        1.0  0.7750994787961433  0.3653020895339766  0.38414678186757095  1.0000
  O   O5        1.0  0.9670535559185324  0.7384988090439394  0.260216518119293  1.0000
  O   O6        1.0  0.5329638512817853  0.26150525166742977  0.7602223922623494  1.0000
  O   O7        1.0  0.03295215693079  0.26149685153691854  0.7397821539881377  1.0000
  O   O8        1.0  0.4670326995656922  0.738500777119434  0.23977627985031086  1.0000
  O   O9        1.0  0.3836082660112297  0.2885636560027578  0.9625465282496461  1.0000
  O   O10       1.0  0.11638539640936331  0.7114389592883725  0.4625487977473596  1.0000
  O   O11       1.0  0.616387201223766  0.7114348246711445  0.037452143871000494  1.0000
  O   O12       1.0  0.8836122697653154  0.2885642404416727  0.5374545621308399  1.0000
  O   O13       1.0  0.7177160740265903  0.5119739192008268  0.21254798791242985  1.0000
  O   O14       1.0  0.7822828289028434  0.48802460907685236  0.7125488167963993  1.0000
  O   O15       1.0  0.2822796640928757  0.4880264484965054  0.7874538093827894  1.0000
  O   O16       1.0  0.2177205177752342  0.5119757660866853  0.2874514178989571  1.0000
  O   O17       1.0  0.11808148825999609  0.6729295028160679  0.11497059512394259  1.0000
  O   O18       1.0  0.38192021038928203  0.3270694680059806  0.6149698286886789  1.0000
  O   O19       1.0  0.8819119154822134  0.3270652023145928  0.8850241705322899  1.0000
  O   O20       1.0  0.6180792484403385  0.6729356202558776  0.3850264995379149  1.0000
  O   O21       1.0  0.6776949298424524  0.45284150928846845  0.04860914816327978  1.0000
  O   O22       1.0  0.8222958195263884  0.5471612866201595  0.5486128811940958  1.0000
  O   O23       1.0  0.32230456069256525  0.5471532018012296  0.9513934304251348  1.0000
  O   O24       1.0  0.17770391017837286  0.4528456886627339  0.4513881347953586  1.0000
