data_image0
_chemical_formula_structural       Cu6H32C32N4O24
_chemical_formula_sum              "Cu6 H32 C32 N4 O24"
_cell_length_a       7.634476179276982
_cell_length_b       7.18773309408254
_cell_length_c       17.677024672025674
_cell_angle_alpha    85.70805918387124
_cell_angle_beta     82.70555729992282
_cell_angle_gamma    87.3914400894699

_space_group_name_H-M_alt    "P 1"
_space_group_IT_number       1

loop_
  _space_group_symop_operation_xyz
  'x, y, z'

loop_
  _atom_site_type_symbol
  _atom_site_label
  _atom_site_symmetry_multiplicity
  _atom_site_fract_x
  _atom_site_fract_y
  _atom_site_fract_z
  _atom_site_occupancy
  Cu  Cu1       1.0  0.17502160870481026  0.2355332723478298  0.38544175146340337  1.0000
  Cu  Cu2       1.0  0.8250941209063641  0.7646103069225632  0.6147291376783242  1.0000
  Cu  Cu3       1.0  0.9990910637854141  0.5003657170284511  0.5001392477600459  1.0000
  Cu  Cu4       1.0  0.20980434076860632  0.8724024704381748  0.037137217265943386  1.0000
  Cu  Cu5       1.0  0.7905310762518382  0.1275867458012172  0.9629127741427506  1.0000
  Cu  Cu6       1.0  0.5002692112124693  0.5000998888213175  1.8270813896502538e-05  1.0000
  H   H1        1.0  0.3668335813527008  0.5241514838451309  0.4556210402851873  1.0000
  H   H2        1.0  0.6330480976194937  0.475984539446678  0.5442767743744239  1.0000
  H   H3        1.0  0.41254165327619313  0.3227681447306736  0.49222260038953153  1.0000
  H   H4        1.0  0.5885720408357288  0.6773404666975011  0.5073281654231818  1.0000
  H   H5        1.0  0.18032092389974963  0.4765976276489425  0.9100334855271013  1.0000
  H   H6        1.0  0.8201187653560923  0.5234115072299446  0.08997737057031686  1.0000
  H   H7        1.0  0.219042094671444  0.2891633983026907  0.9551545624543106  1.0000
  H   H8        1.0  0.7814318997883446  0.7109022738589202  0.04489579097025849  1.0000
  H   H9        1.0  0.9152251610005494  0.1843187934173329  0.4801214692108855  1.0000
  H   H10       1.0  0.08524040620078215  0.8160424295511107  0.5203515439313903  1.0000
  H   H11       1.0  0.19772417338079154  0.534069967460603  0.060767285647777655  1.0000
  H   H12       1.0  0.8028985680464872  0.4659398657842145  0.9393385397861062  1.0000
  H   H13       1.0  0.8897312877390816  0.9549423019935618  0.3499422480427511  1.0000
  H   H14       1.0  0.10973750350017748  0.04509006892326538  0.6500109869117875  1.0000
  H   H15       1.0  0.19515034949429821  0.6250726030484303  0.18234121930682073  1.0000
  H   H16       1.0  0.8044529186671526  0.37471562462057056  0.8177759256234719  1.0000
  H   H17       1.0  0.7587946461112766  0.2412260607579171  0.31065394054711953  1.0000
  H   H18       1.0  0.24046435783957784  0.7586101934120177  0.6891116914194837  1.0000
  H   H19       1.0  0.7497149020416601  0.30441511013419387  0.21100344837592633  1.0000
  H   H20       1.0  0.2507788202339469  0.6961028334618721  0.7887420260635873  1.0000
  H   H21       1.0  0.9268615833849055  0.3732370992057953  0.2556099595457935  1.0000
  H   H22       1.0  0.07312321782127643  0.6266197548187692  0.7446534445117974  1.0000
  H   H23       1.0  0.6456275622473767  0.8168965756755996  0.16855734023481259  1.0000
  H   H24       1.0  0.3541429044307947  0.18284017946417214  0.8313843823754038  1.0000
  H   H25       1.0  0.3330237597655028  0.3186359496052375  0.21895855423959878  1.0000
  H   H26       1.0  0.6674168284763058  0.6815584720907567  0.7810024109176862  1.0000
  H   H27       1.0  0.6769182471716066  0.650077996193765  0.3568177369253716  1.0000
  H   H28       1.0  0.3228199907229552  0.34956844799511794  0.6430336678286532  1.0000
  H   H29       1.0  0.4913104232727223  0.5484418551065033  0.3298756234626693  1.0000
  H   H30       1.0  0.5080639409153278  0.45145496558098597  0.6701927112496973  1.0000
  H   H31       1.0  0.6785046467900958  0.5888582715870854  0.26052260856734916  1.0000
  H   H32       1.0  0.3206947042231008  0.41061481447633236  0.7393891435813057  1.0000
  C   C1        1.0  0.027207854658563194  0.05475973223647661  0.16191277208093163  1.0000
  C   C2        1.0  0.9728939575563661  0.9452426820088463  0.8380952987602225  1.0000
  C   C3        1.0  0.9389328978045982  0.08406541090948141  0.2350013524738016  1.0000
  C   C4        1.0  0.06095760640958763  0.9159821690706592  0.7649583793019441  1.0000
  C   C5        1.0  0.9524113995751121  0.9387718880812984  0.2916904276810256  1.0000
  C   C6        1.0  0.0471911810170127  0.0612562851427043  0.7082819237099256  1.0000
  C   C7        1.0  0.047355277686996516  0.7731132617743269  0.2752209958287607  1.0000
  C   C8        1.0  0.9521255027508175  0.2268242912791365  0.7248015997827435  1.0000
  C   C9        1.0  0.12235861895050697  0.7514690052223828  0.2000269347582061  1.0000
  C   C10       1.0  0.8773260086814358  0.2484192484987418  0.8000298473450014  1.0000
  C   C11       1.0  0.04948032449551928  0.19940612905783442  0.09547146541247996  1.0000
  C   C12       1.0  0.950964386713679  0.8006036555628526  0.9045685241630959  1.0000
  C   C13       1.0  0.8365209678501628  0.25984817946019934  0.25419594357252595  1.0000
  C   C14       1.0  0.16339023168446687  0.7402374667667218  0.7457198633793279  1.0000
  C   C15       1.0  0.07063631230889199  0.6224234082533542  0.3371680826252969  1.0000
  C   C16       1.0  0.9285859081218676  0.37758840565251733  0.6629461505911391  1.0000
  C   C17       1.0  0.4151592272755877  0.949341558263754  0.3340614689969924  1.0000
  C   C18       1.0  0.5846802809878542  0.05058433848849828  0.665867910467696  1.0000
  C   C19       1.0  0.524351380290497  0.8344593036113324  0.285527510837248  1.0000
  C   C20       1.0  0.4753564441925421  0.1653412299687673  0.7144217695318742  1.0000
  C   C21       1.0  0.5645172986572792  0.9029138498413188  0.2091110854789519  1.0000
  C   C22       1.0  0.4353350658603148  0.09691153553156079  0.7908380396666953  1.0000
  C   C23       1.0  0.4987691966117114  0.0775518844609167  0.18402307973506982  1.0000
  C   C24       1.0  0.5013319909030899  0.9224169237437891  0.8159399655473076  1.0000
  C   C25       1.0  0.3890470173155123  0.18209024701658907  0.23582829617845383  1.0000
  C   C26       1.0  0.6111805485153428  0.8180029984111244  0.7641287468892767  1.0000
  C   C27       1.0  0.35267405176315253  0.8975416993694906  0.4169014737047545  1.0000
  C   C28       1.0  0.6471150695129779  0.10248813050627348  0.5830360398430086  1.0000
  C   C29       1.0  0.5971151502031162  0.645307089500676  0.3096373347890661  1.0000
  C   C30       1.0  0.4023567096396333  0.35438330835923887  0.6903005418464043  1.0000
  C   C31       1.0  0.54847131570056  0.1568117196678074  0.10350414852849345  1.0000
  C   C32       1.0  0.45176235558574257  0.8431543739657671  0.8964570858422004  1.0000
  N   N1        1.0  0.11047651440129162  0.8895344307498261  0.14585104452583406  1.0000
  N   N2        1.0  0.8895375330763003  0.11039701241404741  0.8541933666057271  1.0000
  N   N3        1.0  0.34922945610189515  0.1178228758701394  0.308557947389147  1.0000
  N   N4        1.0  0.6508613514559018  0.88219081790173  0.6913682040815341  1.0000
  O   O1        1.0  0.3317175596222627  0.3929073230295046  0.4603451730992628  1.0000
  O   O2        1.0  0.6692812565318321  0.6068928819382859  0.5391753305601551  1.0000
  O   O3        1.0  0.2747614083043075  0.38093339239859614  0.9160215957404101  1.0000
  O   O4        1.0  0.7256572915490054  0.6190311746572947  0.08397121480657424  1.0000
  O   O5        1.0  0.9521641806226242  0.2901732129727037  0.443946389505818  1.0000
  O   O6        1.0  0.0485265527293279  0.7101976684762477  0.5565369547702301  1.0000
  O   O7        1.0  0.2957746865032647  0.6210625793631978  0.05440321223974107  1.0000
  O   O8        1.0  0.7047816190031428  0.3790252053257319  0.9456928293679634  1.0000
  O   O9        1.0  0.1139540210124181  0.1348535864962699  0.030793845469261793  1.0000
  O   O10       1.0  0.8866283986339171  0.865196976102297  0.9692615585052801  1.0000
  O   O11       1.0  0.013436977847483409  0.3683986362581351  0.10441512022299546  1.0000
  O   O12       1.0  0.9871064919882715  0.6316605877608483  0.8956159692276908  1.0000
  O   O13       1.0  0.009713930860407104  0.6632745413931929  0.40420160680234546  1.0000
  O   O14       1.0  0.9889751117467682  0.3367899817640492  0.5958476357867252  1.0000
  O   O15       1.0  0.1508278485061467  0.47128644015620585  0.316687950084919  1.0000
  O   O16       1.0  0.8488044075514126  0.5288321520778254  0.6835451768834913  1.0000
  O   O17       1.0  0.22615670722906603  0.001565002151053786  0.44840670706166436  1.0000
  O   O18       1.0  0.7734049908457195  0.9982493958629347  0.5514631755244606  1.0000
  O   O19       1.0  0.42091113594781143  0.7586535351132966  0.4509617678018569  1.0000
  O   O20       1.0  0.5791335761662212  0.24160037787922306  0.5490636091031431  1.0000
  O   O21       1.0  0.6898771640437574  0.0848566193742286  0.06892335567115986  1.0000
  O   O22       1.0  0.3102568156310923  0.9149075969793117  0.9310585775353811  1.0000
  O   O23       1.0  0.4478247034338382  0.2856094255100317  0.07889269429453086  1.0000
  O   O24       1.0  0.5525316152052258  0.7145068967825096  0.9210752857265517  1.0000
