data_image0
_chemical_formula_structural       Zn8H58C61O31
_chemical_formula_sum              "Zn8 H58 C61 O31"
_cell_length_a       18.383874228330317
_cell_length_b       18.55739377740461
_cell_length_c       18.692948678224262
_cell_angle_alpha    119.9741724532742
_cell_angle_beta     90.58890655543624
_cell_angle_gamma    119.27844821546083

_space_group_name_H-M_alt    "P 1"
_space_group_IT_number       1

loop_
  _space_group_symop_operation_xyz
  'x, y, z'

loop_
  _atom_site_type_symbol
  _atom_site_label
  _atom_site_symmetry_multiplicity
  _atom_site_fract_x
  _atom_site_fract_y
  _atom_site_fract_z
  _atom_site_occupancy
  Zn  Zn1       1.0  0.13391613447196693  0.5853642262897054  0.041722680842255506  1.0000
  Zn  Zn2       1.0  0.9539201573633919  0.4121744724509994  0.8755185038274078  1.0000
  Zn  Zn3       1.0  0.9616404095238238  0.5888729497413934  0.049040842676582555  1.0000
  Zn  Zn4       1.0  0.9596444524544054  0.4135378552747254  0.044710652170600405  1.0000
  Zn  Zn5       1.0  0.3725260044070922  0.4138123833371665  0.45649553226396483  1.0000
  Zn  Zn6       1.0  0.5451684207452558  0.41418185811299674  0.4564622136308146  1.0000
  Zn  Zn7       1.0  0.5450300965080146  0.5912484869375872  0.6310537905387292  1.0000
  Zn  Zn8       1.0  0.5445599946290969  0.5847691998264253  0.4569834900750891  1.0000
  H   H1        1.0  0.34683783626591236  0.0823599210970585  0.2672238157576174  1.0000
  H   H2        1.0  0.8173170921257052  0.07931597997983177  0.8471447167401608  1.0000
  H   H3        1.0  0.7469321551931926  0.6459973670592375  0.8075638922476075  1.0000
  H   H4        1.0  0.7517509237004347  0.4274091252071983  0.7541320535945033  1.0000
  H   H5        1.0  0.398207745786685  0.5830230139325322  0.8027915728303797  1.0000
  H   H6        1.0  0.09326071680253993  0.17040030165308204  0.9829370490867363  1.0000
  H   H7        1.0  0.2877159357950063  0.3201398858352249  0.2253595508045194  1.0000
  H   H8        1.0  0.4030448604215948  0.6793720398008674  0.4692425230684735  1.0000
  H   H9        1.0  0.39991210634511276  0.8285543579140439  0.5256267024621764  1.0000
  H   H10       1.0  0.21407754636253865  0.6808534909413166  0.277293010932155  1.0000
  H   H11       1.0  0.19074119199498804  0.09206691993608732  0.3164990747379122  1.0000
  H   H12       1.0  0.09764101981511421  0.9062334628652237  0.2045642583647763  1.0000
  H   H13       1.0  0.30542192263413165  0.8298890702419258  0.429618752560451  1.0000
  H   H14       1.0  0.6959579228159711  0.5994815232011702  0.28911038963136076  1.0000
  H   H15       1.0  0.8144529701774273  0.8667315713591746  0.5807670284539698  1.0000
  H   H16       1.0  0.8662146865564678  0.986921646725918  0.597066271288881  1.0000
  H   H17       1.0  0.7239531959331983  0.7804034055617634  0.427999779677755  1.0000
  H   H18       1.0  0.7763315688327094  0.8982063042531574  0.4421159310603428  1.0000
  H   H19       1.0  0.9251248114672421  0.9217785808489509  0.46851905901333885  1.0000
  H   H20       1.0  0.8478339046034904  0.80996988422023  0.3641923247943666  1.0000
  H   H21       1.0  0.8706995967997243  0.8017091113565797  0.45126035070528303  1.0000
  H   H22       1.0  0.7177905498754384  0.4488388561457414  0.6521406249238313  1.0000
  H   H23       1.0  0.2706808505420426  0.9188921025402478  0.22810078906334746  1.0000
  H   H24       1.0  0.9710181221400873  0.8234148428793304  0.955310409842518  1.0000
  H   H25       1.0  0.9196731441340801  0.7431439244253184  0.8389234207806453  1.0000
  H   H26       1.0  0.03873783879273412  0.7317334655472719  0.9437113270689254  1.0000
  H   H27       1.0  0.9852997594015351  0.6475287240330232  0.8286144572508363  1.0000
  H   H28       1.0  0.07149473362935035  0.7942917330910716  0.8153740647595741  1.0000
  H   H29       1.0  0.14261546062581215  0.7803901216179553  0.8641902024596176  1.0000
  H   H30       1.0  0.12760837651825327  0.87787739023085  0.9305082322632147  1.0000
  H   H31       1.0  0.11362106896873304  0.4274844657567484  0.5601043137674964  1.0000
  H   H32       1.0  0.18549052535257712  0.391887369564543  0.5161482411651548  1.0000
  H   H33       1.0  0.22240405939409405  0.6030179709086312  0.6041801215667277  1.0000
  H   H34       1.0  0.7342749587083192  0.4668922639108858  0.31259375146771623  1.0000
  H   H35       1.0  0.2929981293958264  0.5681736266368418  0.5573691975303703  1.0000
  H   H36       1.0  0.17434464172725933  0.4378424896708069  0.40922418820920836  1.0000
  H   H37       1.0  0.19722990449813688  0.5586186903903325  0.4508536772786088  1.0000
  H   H38       1.0  0.10063353929322717  0.46859624178915027  0.454207680480046  1.0000
  H   H39       1.0  0.3055635564249285  0.606959745064266  0.898182796104564  1.0000
  H   H40       1.0  0.07076529515830997  0.3184847822138153  0.6013015421609041  1.0000
  H   H41       1.0  0.034977243684039545  0.37693807808729923  0.6874624386410773  1.0000
  H   H42       1.0  0.026687520716492885  0.18473762760168463  0.6256900639343073  1.0000
  H   H43       1.0  0.98805102235454  0.24012135990081868  0.7095552635490564  1.0000
  H   H44       1.0  0.8769115664731899  0.21109782079879116  0.6000320646581444  1.0000
  H   H45       1.0  0.8123587800533654  0.6214941070526192  0.218938826613531  1.0000
  H   H46       1.0  0.8609377816731864  0.0949993102043294  0.5658222038175325  1.0000
  H   H47       1.0  0.9152304020409545  0.155945598277178  0.5154267847679606  1.0000
  H   H48       1.0  0.11627837534967259  0.004506239908131699  0.0232150710285026  1.0000
  H   H49       1.0  0.0524234858302037  0.0529903816062642  0.025561272311684004  1.0000
  H   H50       1.0  0.16927050239439012  0.107809122056949  0.18727738528755114  1.0000
  H   H51       1.0  0.10647955631792876  0.15640254397946754  0.19049674634054273  1.0000
  H   H52       1.0  0.9648371263135401  0.978241253027825  0.10684868766389845  1.0000
  H   H53       1.0  0.024215780337406997  0.0147461506352045  0.20725752610686504  1.0000
  H   H54       1.0  0.02845340447531425  0.9307892138034219  0.10714937638944395  1.0000
  H   H55       1.0  0.7698282174864061  0.42291104599652835  0.18671840986068128  1.0000
  H   H56       1.0  0.6868847234932857  0.9215798742618728  0.7565131152071985  1.0000
  H   H57       1.0  0.7987806322099759  0.09889333774914627  0.694306228780036  1.0000
  H   H58       1.0  0.0970690402516253  0.3242045990662844  0.03762698404611336  1.0000
  C   C1        1.0  0.871421534184968  0.22529006515441094  0.8677958284558899  1.0000
  C   C2        1.0  0.3593707619274865  0.7620762624186169  0.45839895040256107  1.0000
  C   C3        1.0  0.3057696631046411  0.7628483909283829  0.4038832286793905  1.0000
  C   C4        1.0  0.142095222990278  0.7748404004204303  0.14350069214800953  1.0000
  C   C5        1.0  0.25469227710749454  0.6796928939002528  0.3190941024421933  1.0000
  C   C6        1.0  0.22342884814234756  0.05478146661254609  0.28476086080382157  1.0000
  C   C7        1.0  0.310484500571043  0.11419632184779968  0.29874652206653  1.0000
  C   C8        1.0  0.1693703029412886  0.9448872759483464  0.22843845661066814  1.0000
  C   C9        1.0  0.2004828643943383  0.8865737534746998  0.20398775223944213  1.0000
  C   C10       1.0  0.7247670058045658  0.5571111948832979  0.27896770458450254  1.0000
  C   C11       1.0  0.7053979983130458  0.5076082441016324  0.3171891659633488  1.0000
  C   C12       1.0  0.24710175808855436  0.3234782398695799  0.1859494888497153  1.0000
  C   C13       1.0  0.7825195533677345  0.5595471267333351  0.2267174905923  1.0000
  C   C14       1.0  0.8002927840445295  0.4892406177301679  0.18526250324193674  1.0000
  C   C15       1.0  0.734052640111933  0.9480706004352936  0.6641186865232456  1.0000
  C   C16       1.0  0.13511892148673604  0.4873018372810378  0.8632979429617721  1.0000
  C   C17       1.0  0.6866783126639289  0.8865946947650798  0.6892194833657188  1.0000
  C   C18       1.0  0.7872267483341345  0.058545518418092996  0.7245844893014991  1.0000
  C   C19       1.0  0.8225372365582191  0.11362045451609501  0.812448168638291  1.0000
  C   C20       1.0  0.7544808277942252  0.5832377166192799  0.7751260304270247  1.0000
  C   C21       1.0  0.7096117201811866  0.5105215373932595  0.6888281033794925  1.0000
  C   C22       1.0  0.8118280433185701  0.5852091642639435  0.8319541109172448  1.0000
  C   C23       1.0  0.25058070071266775  0.4135662788965534  0.22064987394178104  1.0000
  C   C24       1.0  0.8025433425716882  0.5001950842003849  0.8142669891630945  1.0000
  C   C25       1.0  0.3283156319599954  0.5482767555254284  0.7735624117987783  1.0000
  C   C26       1.0  0.30236834433331683  0.5157275102112067  0.6881848889060578  1.0000
  C   C27       1.0  0.2738580705339685  0.5467258432265253  0.828032529350466  1.0000
  C   C28       1.0  0.8611496602486567  0.495717053817387  0.13437236336702088  1.0000
  C   C29       1.0  0.18588034060910263  0.47327796369700087  0.8017135359378785  1.0000
  C   C30       1.0  0.6442352881771497  0.5046247875075167  0.3678186276658124  1.0000
  C   C31       1.0  0.3631837441435763  0.5085869374504385  0.6365302885538285  1.0000
  C   C32       1.0  0.3634851151472844  0.2259499753347072  0.3573768609501329  1.0000
  C   C33       1.0  0.6350170830618467  0.7752980070031654  0.634916896986816  1.0000
  C   C34       1.0  0.19534212704817822  0.414314210145612  0.16580277642651708  1.0000
  C   C35       1.0  0.6462064038773362  0.5077404426542884  0.6364510838346646  1.0000
  C   C36       1.0  0.36288726036477925  0.5009716193897233  0.36334581168370766  1.0000
  C   C37       1.0  0.8596597583440584  0.49853587344492917  0.8686525107997269  1.0000
  C   C38       1.0  0.14187200978575726  0.503389809616877  0.14094902573568655  1.0000
  C   C39       1.0  0.1388847399173159  0.32436628584308386  0.07956271236320596  1.0000
  C   C40       1.0  0.13601943607449127  0.2384493087908552  0.04903868311301813  1.0000
  C   C41       1.0  0.19110276557441347  0.2383763780220107  0.10314388364790975  1.0000
  C   C42       1.0  0.8055885781753176  0.9087117813998091  0.559653584584531  1.0000
  C   C43       1.0  0.7865721008856281  0.8559258776784942  0.4616082219397981  1.0000
  C   C44       1.0  0.8617369833009431  0.8469822360752842  0.4351448337593169  1.0000
  C   C45       1.0  0.30590310942893933  0.5015879093399461  0.3061359235149581  1.0000
  C   C46       1.0  0.9450143156557402  0.747777628960897  0.8960110696585492  1.0000
  C   C47       1.0  0.01577386594162521  0.7263031139217091  0.8854672838681099  1.0000
  C   C48       1.0  0.09349509161365417  0.7987117794549902  0.8732517987764297  1.0000
  C   C49       1.0  0.18311657820368762  0.455222778057326  0.565549143901329  1.0000
  C   C50       1.0  0.2233400422481678  0.5394052787516584  0.5520975334561982  1.0000
  C   C51       1.0  0.17087294121152033  0.4988557533802335  0.46158782571067297  1.0000
  C   C52       1.0  0.06056215392433022  0.32976304943932183  0.6630006345294036  1.0000
  C   C53       1.0  0.9967804363976569  0.22775960943845766  0.6472759145968184  1.0000
  C   C54       1.0  0.9077341840194321  0.16921035879593663  0.5783831662210944  1.0000
  C   C55       1.0  0.11210075342373932  0.0695238661810009  0.06278206463839811  1.0000
  C   C56       1.0  0.30838392940785286  0.5900471992343908  0.3393557951413442  1.0000
  C   C57       1.0  0.1077904577295996  0.08908041557445048  0.1515719571809626  1.0000
  C   C58       1.0  0.027010673297475148  0.9982569838694457  0.14251875193195218  1.0000
  C   C59       1.0  0.25368678190480404  0.5908436575761087  0.2841232994888757  1.0000
  C   C60       1.0  0.19916445905310098  0.5031887262953632  0.1985065024073691  1.0000
  C   C61       1.0  0.3608682543083218  0.6784811059123041  0.42703147235975786  1.0000
  O   O1        1.0  0.0037844104833481638  0.5012351018633723  0.0038908641664789716  1.0000
  O   O2        1.0  0.6044786696932077  0.7347841928213439  0.6761745047653278  1.0000
  O   O3        1.0  0.6115008640209607  0.4344268821352415  0.5549200651537731  1.0000
  O   O4        1.0  0.9050798637476447  0.2697176604047016  0.9500841012104146  1.0000
  O   O5        1.0  0.4462508988564124  0.5640282475216978  0.38808573621845  1.0000
  O   O6        1.0  0.630977544194131  0.5758688124829376  0.675099948049784  1.0000
  O   O7        1.0  0.3234814528093253  0.43776602904152634  0.3827446389031692  1.0000
  O   O8        1.0  0.3228022899272887  0.2685525603150012  0.3862601685136654  1.0000
  O   O9        1.0  0.6246678583289478  0.7275730927966249  0.5531940911599164  1.0000
  O   O10       1.0  0.6277524844244409  0.4487838642800881  0.3948627485461458  1.0000
  O   O11       1.0  0.44630150098418375  0.5659469447982415  0.6782665036223677  1.0000
  O   O12       1.0  0.1773644292450881  0.5666060049425495  0.9426400790329553  1.0000
  O   O13       1.0  0.1811549508270573  0.7298475033314631  0.12599639860275155  1.0000
  O   O14       1.0  0.05184119587940463  0.4185497961804358  0.8316417037646603  1.0000
  O   O15       1.0  0.8971932123456553  0.5702732297765465  0.12811019298941773  1.0000
  O   O16       1.0  0.882495871873516  0.43788846044539287  0.8259351445148938  1.0000
  O   O17       1.0  0.05945539265928795  0.45387017679492914  0.1297335999393283  1.0000
  O   O18       1.0  0.8805361299137926  0.555019823876101  0.9514938122892431  1.0000
  O   O19       1.0  0.18036519152391137  0.5522748771002738  0.1085538733411084  1.0000
  O   O20       1.0  0.7302396954157614  0.9106542864361059  0.5788676242604468  1.0000
  O   O21       1.0  0.8726503829372447  0.6782548503207266  0.9080467901733301  1.0000
  O   O22       1.0  0.22030572361193618  0.48646899504267066  0.6524972168237043  1.0000
  O   O23       1.0  0.87247811610262  0.42413519322043675  0.10068798788404376  1.0000
  O   O24       1.0  0.1474611956540953  0.382489066304096  0.7226901335995422  1.0000
  O   O25       1.0  0.1909200266718472  0.15310100996101283  0.07103171447655404  1.0000
  O   O26       1.0  0.8758749613025714  0.2681110525828529  0.8301803181908697  1.0000
  O   O27       1.0  0.05896187029857444  0.7326934073980949  0.1135654231810363  1.0000
  O   O28       1.0  0.5018037397547275  0.5010157290027522  0.501669102162822  1.0000
  O   O29       1.0  0.612983095661967  0.5565454791582526  0.38038963441207585  1.0000
  O   O30       1.0  0.32586689663364143  0.4424457331875472  0.5535385227903477  1.0000
  O   O31       1.0  0.447207523092267  0.27056730820733316  0.3738830074632844  1.0000
