data_image0
_chemical_formula_structural       Zn4H48C44O40
_chemical_formula_sum              "Zn4 H48 C44 O40"
_cell_length_a       4.907379211
_cell_length_b       11.663571235744705
_cell_length_c       22.7617
_cell_angle_alpha    90.0
_cell_angle_beta     90.0
_cell_angle_gamma    101.22820368626597

_space_group_name_H-M_alt    "P 1"
_space_group_IT_number       1

loop_
  _space_group_symop_operation_xyz
  'x, y, z'

loop_
  _atom_site_type_symbol
  _atom_site_label
  _atom_site_symmetry_multiplicity
  _atom_site_fract_x
  _atom_site_fract_y
  _atom_site_fract_z
  _atom_site_occupancy
  Zn  Zn1       1.0  0.14933670980605032  0.6686069510296022  0.7890645250574408  1.0000
  Zn  Zn2       1.0  0.3506579995956898  0.8314004205275011  0.2890658430609321  1.0000
  Zn  Zn3       1.0  0.8506730507702969  0.3313970892406672  0.2109332782700761  1.0000
  Zn  Zn4       1.0  0.649344044739074  0.1685957528325446  0.7109367929460433  1.0000
  H   H1        1.0  0.029946807037788407  0.20614713759546532  0.0970476721861715  1.0000
  H   H2        1.0  0.4700758212979537  0.2938492008822919  0.5970419608377213  1.0000
  H   H3        1.0  0.9700747603858916  0.7938603990793426  0.9029523278138285  1.0000
  H   H4        1.0  0.5299001368459528  0.7061478465788937  0.4029554031553033  1.0000
  H   H5        1.0  0.8138522649638844  0.5766733641478581  0.8714028389795132  1.0000
  H   H6        1.0  0.6861405825792134  0.9233296369035671  0.37140327831401265  1.0000
  H   H7        1.0  0.1861501687876341  0.42332805381900573  0.1285936463445196  1.0000
  H   H8        1.0  0.3138651176126501  0.0766700328610241  0.6285967216859873  1.0000
  H   H9        1.0  0.8177346444259257  0.47504512157697587  0.8215502357029577  1.0000
  H   H10       1.0  0.6822632720793962  0.024954713305319797  0.3215497963684584  1.0000
  H   H11       1.0  0.18228003092156797  0.5249519258842099  0.1784466889555674  1.0000
  H   H12       1.0  0.3177407797816656  0.9750502010660824  0.6784488856280504  1.0000
  H   H13       1.0  0.5661654979780978  0.6175113691786649  0.7331978718637018  1.0000
  H   H14       1.0  0.9338456741823864  0.8824960023784386  0.23319567519121878  1.0000
  H   H15       1.0  0.43383407386046713  0.38249267109160456  0.2668012494673064  1.0000
  H   H16       1.0  0.066162887922431  0.11750104508274718  0.7668047641432736  1.0000
  H   H17       1.0  0.29715555518650666  0.5112923474463571  0.7235689777125601  1.0000
  H   H18       1.0  0.20284733542672478  0.9887062830993969  0.2235654630365929  1.0000
  H   H19       1.0  0.7028362852998384  0.4887081964193669  0.2764297042839488  1.0000
  H   H20       1.0  0.7971485956653696  0.011289890260655999  0.7764358549668984  1.0000
  H   H21       1.0  0.7893364473623237  0.43736699214947816  0.0168673693089687  1.0000
  H   H22       1.0  0.7106904172468091  0.0626293463282792  0.5168691266469523  1.0000
  H   H23       1.0  0.2106969722405694  0.5626309294128475  0.9831286766805648  1.0000
  H   H24       1.0  0.28929087530625  0.9373572119192843  0.4831264800080817  1.0000
  H   H25       1.0  0.1200742724703119  0.4191717029217088  0.935939758453891  1.0000
  H   H26       1.0  0.37994793622741707  0.0808281319605868  0.4359441517988571  1.0000
  H   H27       1.0  0.8799497523389377  0.5808323373485536  0.0640545301976587  1.0000
  H   H28       1.0  0.6200455677003659  0.919162796792655  0.5640505761871921  1.0000
  H   H29       1.0  0.32053011534671333  0.0955497432775516  0.9775416598935962  1.0000
  H   H30       1.0  0.17946029844486594  0.4044518398070096  0.4775407812246044  1.0000
  H   H31       1.0  0.679491886825609  0.9044499264870396  0.0224587794409032  1.0000
  H   H32       1.0  0.8204952822234617  0.5955452076541761  0.5224627334513698  1.0000
  H   H33       1.0  0.2322904852119763  0.0170038893806534  0.8783706840877414  1.0000
  H   H34       1.0  0.26765909807530625  0.4830195462322849  0.37836936608425725  1.0000
  H   H35       1.0  0.767707453406409  0.9830010249907489  0.1216293159122586  1.0000
  H   H36       1.0  0.7322997339227371  0.5169801235323064  0.6216341485917098  1.0000
  H   H37       1.0  0.3773233675900229  0.9353048224541283  0.9325309620986104  1.0000
  H   H38       1.0  0.1226289536404011  0.564703423204115  0.43253184076760226  1.0000
  H   H39       1.0  0.6226925062289936  0.0646992178161412  0.0674655232254153  1.0000
  H   H40       1.0  0.8773466150867435  0.4352883796502666  0.5674694772358819  1.0000
  H   H41       1.0  0.4404706061913117  0.3477200538371008  0.8902797242736681  1.0000
  H   H42       1.0  0.05950925966698861  0.1522675436293071  0.390282799615143  1.0000
  H   H43       1.0  0.5595636224663565  0.6522796159274904  0.10971939705734  1.0000
  H   H44       1.0  0.9404581731805595  0.8477198887193965  0.6097145643778816  1.0000
  H   H45       1.0  0.21875790674067025  0.39960320081073775  0.8387391978630774  1.0000
  H   H46       1.0  0.2812565554942097  0.1003975081726907  0.3387396371975697  1.0000
  H   H47       1.0  0.7812783747751767  0.6003920984481752  0.1612625594749062  1.0000
  H   H48       1.0  0.7187352698815063  0.8996074061987116  0.6612599234679308  1.0000
  C   C1        1.0  0.34994329239881944  0.284529534580102  0.0512606703365748  1.0000
  C   C2        1.0  0.1500801147704323  0.21547729311127742  0.5512589129985912  1.0000
  C   C3        1.0  0.6500909060375905  0.7154788761958386  0.9487410870014088  1.0000
  C   C4        1.0  0.8499007279233554  0.784521502552181  0.4487415263359082  1.0000
  C   C5        1.0  0.5394553003359732  0.2674793178392889  0.0029949432599494  1.0000
  C   C6        1.0  0.9605487294120182  0.2325205170430067  0.5029984579359166  1.0000
  C   C7        1.0  0.46056995316605764  0.7325229742287077  0.9970076927470259  1.0000
  C   C8        1.0  0.03941665057734417  0.7674712858113679  0.49700417807105873  1.0000
  C   C9        1.0  0.7631078291950998  0.3582582171215876  0.9906944560379927  1.0000
  C   C10       1.0  0.7368998715206204  0.1417407436595681  0.49069094136202546  1.0000
  C   C11       1.0  0.2369096929547254  0.6417405785418708  0.0092998326135572  1.0000
  C   C12       1.0  0.26306631752351  0.8582528073970722  0.5093068619654915  1.0000
  C   C13       1.0  0.9488615218644797  0.3475426113066789  0.945797545877504  1.0000
  C   C14       1.0  0.5511416837181145  0.1524598458790223  0.4457975458775039  1.0000
  C   C15       1.0  0.05115187945833806  0.6524692958738072  0.0542042114604797  1.0000
  C   C16       1.0  0.4488375559767661  0.8475310828742195  0.5542006967845126  1.0000
  C   C17       1.0  0.9130723204090859  0.2456486419907336  0.912197243615374  1.0000
  C   C18       1.0  0.5869169952467317  0.2543634303074498  0.4122033942983165  1.0000
  C   C19       1.0  0.08696108408318548  0.7543536500772633  0.0878005597121501  1.0000
  C   C20       1.0  0.41304753035596786  0.7456397358616798  0.5878009990466424  1.0000
  C   C21       1.0  0.683860653099437  0.1532666412267005  0.923668706643177  1.0000
  C   C22       1.0  0.816142957010534  0.3467366900601334  0.4236691459776765  1.0000
  C   C23       1.0  0.31614991653167834  0.8467391472458344  0.076333490029306  1.0000
  C   C24       1.0  0.1838399234308099  0.6532621056033179  0.5763343686982978  1.0000
  C   C25       1.0  0.5000707075096216  0.1644035637887171  0.968986059916439  1.0000
  C   C26       1.0  0.9999247516101237  0.3355997674981168  0.4689891352579139  1.0000
  C   C27       1.0  0.4999614834004831  0.8355961059758741  0.0310130614145692  1.0000
  C   C28       1.0  3.9384575821082874e-05  0.6643981540642017  0.5310156974215445  1.0000
  C   C29       1.0  0.4109960115771686  0.9758290251774399  0.8887837903144344  1.0000
  C   C30       1.0  0.0889689255553563  0.5241844650876075  0.3887837903144344  1.0000
  C   C31       1.0  0.589008414590019  0.0241855043064518  0.1112175276890568  1.0000
  C   C32       1.0  0.9110074371159345  0.475813456474711  0.611218845692548  1.0000
  C   C33       1.0  0.42501452312287574  0.8803395948782011  0.8441720082419125  1.0000
  C   C34       1.0  0.0749512230644171  0.6196756435891118  0.3441746442488949  1.0000
  C   C35       1.0  0.5749895287381861  0.1196653194932011  0.1558271130890958  1.0000
  C   C36       1.0  0.9250532484346579  0.3803257743777451  0.6558301884305635  1.0000
  C   C37       1.0  0.3018320279693185  0.3226167433388198  0.8524697188698553  1.0000
  C   C38       1.0  0.1981384430953312  0.1773769728355319  0.3524701582043548  1.0000
  C   C39       1.0  0.6981867228732881  0.6773803041223658  0.1475302811301447  1.0000
  C   C40       1.0  0.8018224417608977  0.8226183264233811  0.6475315991336288  1.0000
  C   C41       1.0  0.4720516457886887  0.288066147772625  0.8026149189208169  1.0000
  C   C42       1.0  0.027944896356196108  0.21193106480626514  0.3026166762588005  1.0000
  C   C43       1.0  0.5279768892643234  0.7119300255874279  0.1973846417446836  1.0000
  C   C44       1.0  0.9720404414707248  0.7880642344526478  0.6973846417446836  1.0000
  O   O1        1.0  0.1546847791617552  0.1907918029555589  0.0637465567158841  1.0000
  O   O2        1.0  0.3453415050310867  0.3092080319267367  0.5637474353848759  1.0000
  O   O3        1.0  0.8453449543627798  0.8092113632135707  0.9362538826186082  1.0000
  O   O4        1.0  0.6546385134973037  0.6907933860401272  0.43625300394961636  1.0000
  O   O5        1.0  0.9309404479887676  0.5467257851589835  0.841121708835459  1.0000
  O   O6        1.0  0.5690471255876944  0.953270223083365  0.341119512162976  1.0000
  O   O7        1.0  0.0690664808958843  0.45327213640334213  0.1588778518300487  1.0000
  O   O8        1.0  0.4309430967891146  0.0467268243778207  0.6588822451750076  1.0000
  O   O9        1.0  0.3746382574066232  0.3788572844708185  0.0780178984873743  1.0000
  O   O10       1.0  0.1253912781159343  0.12114517271488269  0.5780148231458995  1.0000
  O   O11       1.0  0.625380043576712  0.6211520004062621  0.9219807835091415  1.0000
  O   O12       1.0  0.8745883509957011  0.8788510006451702  0.421983419516117  1.0000
  O   O13       1.0  0.39138852247629796  0.5731245135394474  0.7514517808423804  1.0000
  O   O14       1.0  0.10862942631397488  0.9268802357142506  0.2514500235043968  1.0000
  O   O15       1.0  0.6086122780550483  0.4268777785285494  0.24854909782661136  1.0000
  O   O16       1.0  0.8913791357908423  0.0731168117469352  0.7485512944990944  1.0000
  O   O17       1.0  0.08135170843338808  0.22752153265150096  0.8673495389184467  1.0000
  O   O18       1.0  0.4186276924550043  0.2724826727364658  0.36735612893588854  1.0000
  O   O19       1.0  0.9186849624992206  0.772479011214223  0.1326522184195369  1.0000
  O   O20       1.0  0.5813413131701992  0.7275213675337966  0.632650021747061  1.0000
  O   O21       1.0  0.3842957234528939  0.1905575438513623  0.7756863503165405  1.0000
  O   O22       1.0  0.115684516711525  0.3094396687275278  0.2756885469890236  1.0000
  O   O23       1.0  0.6157165247302886  0.8094342590030124  0.22430925633850046  1.0000
  O   O24       1.0  0.8843036528070912  0.690561749239329  0.7243167250249342  1.0000
  O   O25       1.0  0.6939543671384172  0.35556248922100764  0.7891264712213939  1.0000
  O   O26       1.0  0.8060528988286606  0.1444443384703646  0.2891251532179027  1.0000
  O   O27       1.0  0.3060851808177745  0.6444310618356326  0.21087133210612313  1.0000
  O   O28       1.0  0.1939323936663726  0.855564072305576  0.7108686960991477  1.0000
  O   O29       1.0  0.6634554665673209  0.059789391740409294  0.8868551118765282  1.0000
  O   O30       1.0  0.8365208286590118  0.44021656184983027  0.3868599445559866  1.0000
  O   O31       1.0  0.3365514472067019  0.9402129003275803  0.11314137344750459  1.0000
  O   O32       1.0  0.16346570763943194  0.5597857302181666  0.6131453274579641  1.0000
  O   O33       1.0  0.21729987056773586  0.7918473441652623  0.8496017432792797  1.0000
  O   O34       1.0  0.2826516264972838  0.7081635237963794  0.3496070152932305  1.0000
  O   O35       1.0  0.7826992816328088  0.2081601925095455  0.1503938633757613  1.0000
  O   O36       1.0  0.7173410381544586  0.291834397765939  0.6503938633757613  1.0000
  O   O37       1.0  0.6142204442626706  0.8866339971518968  0.807504711862471  1.0000
  O   O38       1.0  0.8857458974515495  0.6133733744052066  0.3074990005140208  1.0000
  O   O39       1.0  0.38578320307100006  0.1133700431183726  0.19249440946853721  1.0000
  O   O40       1.0  0.1142479656717228  0.3866315399661957  0.6925001208169874  1.0000
