data_image0
_chemical_formula_structural       Zn16H80C128N48O32
_chemical_formula_sum              "Zn16 H80 C128 N48 O32"
_cell_length_a       13.258199715698929
_cell_length_b       13.372957111978065
_cell_length_c       27.56828753301791
_cell_angle_alpha    89.99994337749862
_cell_angle_beta     90.0001169761418
_cell_angle_gamma    92.5427170424774

_space_group_name_H-M_alt    "P 1"
_space_group_IT_number       1

loop_
  _space_group_symop_operation_xyz
  'x, y, z'

loop_
  _atom_site_type_symbol
  _atom_site_label
  _atom_site_symmetry_multiplicity
  _atom_site_fract_x
  _atom_site_fract_y
  _atom_site_fract_z
  _atom_site_occupancy
  Zn  Zn1       1.0  0.8158650470677244  0.8220858705559878  0.8110070465427629  1.0000
  Zn  Zn2       1.0  0.684134351765799  0.677916503677338  0.3110064284672518  1.0000
  Zn  Zn3       1.0  0.18413327397097848  0.17791422568862458  0.18899328706436347  1.0000
  Zn  Zn4       1.0  0.31586629779915404  0.32208509152795983  0.6889928169337625  1.0000
  Zn  Zn5       1.0  0.246946321564117  0.7133446198571887  0.7998958443547866  1.0000
  Zn  Zn6       1.0  0.25305480479035936  0.7866555685034128  0.2998970548494314  1.0000
  Zn  Zn7       1.0  0.7530541966176757  0.2866539812895823  0.20010412651812004  1.0000
  Zn  Zn8       1.0  0.7469442376816815  0.21334377986998018  0.7001036414938399  1.0000
  Zn  Zn9       1.0  0.21447855978163233  0.8784705519818488  0.6907359446736197  1.0000
  Zn  Zn10      1.0  0.2855190517598984  0.6215290911006051  0.19073617588817635  1.0000
  Zn  Zn11      1.0  0.7855197941032587  0.1215302927772228  0.30926438893335023  1.0000
  Zn  Zn12      1.0  0.7144799578644198  0.3784695087590109  0.8092637949840127  1.0000
  Zn  Zn13      1.0  0.15383294484473714  0.2725436367009948  0.7983593554065113  1.0000
  Zn  Zn14      1.0  0.3461679783180429  0.22745846901792527  0.29835959490213076  1.0000
  Zn  Zn15      1.0  0.8461676718748096  0.7274572099895025  0.20164025273029304  1.0000
  Zn  Zn16      1.0  0.6538325727099235  0.7725408806433051  0.7016403759706196  1.0000
  H   H1        1.0  0.026344497710930205  0.7421295171028391  0.840563473591452  1.0000
  H   H2        1.0  0.4736562446187235  0.7578750850278337  0.3405630955870934  1.0000
  H   H3        1.0  0.9736553975768346  0.2578720774581953  0.15943649728045275  1.0000
  H   H4        1.0  0.5263428635441301  0.24212576037515987  0.6594368752846053  1.0000
  H   H5        1.0  0.9671888253860247  0.8862376181592426  0.7084682721557345  1.0000
  H   H6        1.0  0.5328106939971065  0.613760458956243  0.20846862734327234  1.0000
  H   H7        1.0  0.032810184237519004  0.11376098170071461  0.29153133598082803  1.0000
  H   H8        1.0  0.46718913559830355  0.38623963857587273  0.7915313435289522  1.0000
  H   H9        1.0  0.49143841246613823  0.7160329749339382  0.7896033376404362  1.0000
  H   H10       1.0  0.008561095806555797  0.783965734516947  0.2896035893907794  1.0000
  H   H11       1.0  0.5085612857422461  0.28396412854135633  0.21039554502555555  1.0000
  H   H12       1.0  0.9914380123562907  0.21603511088604682  0.7103963814809263  1.0000
  H   H13       1.0  0.44727515077574503  0.8607040442215917  0.6559290381791885  1.0000
  H   H14       1.0  0.05272526396435501  0.63929417003164  0.1559286749713209  1.0000
  H   H15       1.0  0.552727761629285  0.13929755291272977  0.34407202090103806  1.0000
  H   H16       1.0  0.9472744670940685  0.3607036819564086  0.8440720213726325  1.0000
  H   H17       1.0  0.3124598388361122  0.5701388093009996  0.703169190561461  1.0000
  H   H18       1.0  0.1875416298916406  0.9298615620720908  0.20316954528159673  1.0000
  H   H19       1.0  0.6875400236054714  0.4298620367455682  0.29683078031060733  1.0000
  H   H20       1.0  0.8124603968491684  0.0701370403611534  0.7968311510632876  1.0000
  H   H21       1.0  0.171700029684196  0.495516487977561  0.836122629140782  1.0000
  H   H22       1.0  0.3282994800419559  0.0044840482261108  0.3361233192630096  1.0000
  H   H23       1.0  0.8283013084694559  0.5044836108413691  0.16387770446779376  1.0000
  H   H24       1.0  0.6717003495557706  0.9955160493049817  0.6638777398160872  1.0000
  H   H25       1.0  0.29959500990162263  0.09393407537323376  0.6515962709010524  1.0000
  H   H26       1.0  0.20040594401908857  0.40606606215339985  0.15159556096396196  1.0000
  H   H27       1.0  0.7004047540022071  0.9060645251296151  0.3484040627071182  1.0000
  H   H28       1.0  0.799596148410984  0.5939340373101345  0.848403684438104  1.0000
  H   H29       1.0  0.13871040187028427  0.028218042246962192  0.7801468127174405  1.0000
  H   H30       1.0  0.36128742662050684  0.47178409523560566  0.28014695162928405  1.0000
  H   H31       1.0  0.8612878863199284  0.9717813054842139  0.21985243268296983  1.0000
  H   H32       1.0  0.6387116815415724  0.5282167501677292  0.7198526565067951  1.0000
  H   H33       1.0  0.18598184112331498  0.5199546798895014  0.9421676646429591  1.0000
  H   H34       1.0  0.3140184153727645  0.9800459874603077  0.4421681170524395  1.0000
  H   H35       1.0  0.814017201347177  0.48004466848456673  0.05783230622906642  1.0000
  H   H36       1.0  0.6859821028082537  0.0199526136868045  0.5578314910848408  1.0000
  H   H37       1.0  0.20014339885233307  0.4948476700055765  0.03147055951196621  1.0000
  H   H38       1.0  0.2998554692724724  0.0051511956892369  0.5314702233137825  1.0000
  H   H39       1.0  0.7998557093128296  0.5051531753963872  0.9685304995666117  1.0000
  H   H40       1.0  0.7001458360334569  0.9948481546159157  0.46852938482369677  1.0000
  H   H41       1.0  0.2647131163831631  0.8698644392378159  0.9173057202773551  1.0000
  H   H42       1.0  0.2352870342394979  0.6301362749868746  0.4173058992494348  1.0000
  H   H43       1.0  0.7352868117507756  0.130137903837678  0.0826942505943933  1.0000
  H   H44       1.0  0.7647112539514894  0.3698630727439607  0.582693708886602  1.0000
  H   H45       1.0  0.2927044406155446  0.0157522285789398  0.9712008312486591  1.0000
  H   H46       1.0  0.2072964971473752  0.4842502991363702  0.47120081656485996  1.0000
  H   H47       1.0  0.7072961104139636  0.9842471210816086  0.028799865095336906  1.0000
  H   H48       1.0  0.7927033981411569  0.5157512954243231  0.5287995170426714  1.0000
  H   H49       1.0  0.2997063570396605  0.9921274310959234  0.061125941142215416  1.0000
  H   H50       1.0  0.2002944082682632  0.5078709625417019  0.5611262336251245  1.0000
  H   H51       1.0  0.7002941611421248  0.0078711700508478  0.9388740297306983  1.0000
  H   H52       1.0  0.799705421327147  0.49212913499040684  0.43887373724710005  1.0000
  H   H53       1.0  0.2824367523773574  0.8221448665378117  0.09607446212623932  1.0000
  H   H54       1.0  0.21756583454460102  0.6778572050675109  0.5960746911057059  1.0000
  H   H55       1.0  0.7175646514678747  0.17785672931037766  0.9039255087463831  1.0000
  H   H56       1.0  0.7824355693014056  0.3221443907803377  0.40392564250255  1.0000
  H   H57       1.0  0.0322836279960939  0.31041048612867433  0.9645404481348837  1.0000
  H   H58       1.0  0.4677149528770883  0.18959055518373455  0.4645411848035011  1.0000
  H   H59       1.0  0.9677168901872404  0.6895881150174149  0.03546024820927581  1.0000
  H   H60       1.0  0.53228494241376  0.8104110393759285  0.5354602370109023  1.0000
  H   H61       1.0  0.04977569742811029  0.26881416957247245  0.05203910148776461  1.0000
  H   H62       1.0  0.4502255868134882  0.23118615630278333  0.5520380775927408  1.0000
  H   H63       1.0  0.9502239679379586  0.7311821853866505  0.9479615948565157  1.0000
  H   H64       1.0  0.5497737184264223  0.7688191801869664  0.4479618932779986  1.0000
  H   H65       1.0  0.3479120405290743  0.2301157738005273  0.8930265645564435  1.0000
  H   H66       1.0  0.15209148290921354  0.2698846583358545  0.393025872418619  1.0000
  H   H67       1.0  0.6520908718728579  0.769885823335166  0.10697304358128433  1.0000
  H   H68       1.0  0.8479083138376993  0.7301146906828252  0.6069730102468968  1.0000
  H   H69       1.0  0.5128582113671811  0.18115951447811798  0.9246909360888155  1.0000
  H   H70       1.0  0.9871405235777148  0.31884006814662763  0.42468981683087054  1.0000
  H   H71       1.0  0.487142372506966  0.8188405836975716  0.0753090347837713  1.0000
  H   H72       1.0  0.012858584582815509  0.6811607772573894  0.575309065833956  1.0000
  H   H73       1.0  0.5344443242460956  0.14882696447789806  0.013036939642823604  1.0000
  H   H74       1.0  0.9655556748189653  0.3511733968501146  0.513038050348378  1.0000
  H   H75       1.0  0.46555632531885743  0.8511746307273993  0.9869623057581908  1.0000
  H   H76       1.0  0.0344448762105429  0.6488259528104336  0.4869626459956181  1.0000
  H   H77       1.0  0.3912909068412205  0.16598507365350199  0.06944914855544942  1.0000
  H   H78       1.0  0.10871045154366502  0.3340152193952122  0.5694499250243867  1.0000
  H   H79       1.0  0.6087088899095575  0.8340142753634651  0.9305515477881914  1.0000
  H   H80       1.0  0.8912887223123109  0.665987123036359  0.43055040858262583  1.0000
  C   C1        1.0  0.03465016328472359  0.7762638763767311  0.804992888707105  1.0000
  C   C2        1.0  0.46535019764919366  0.7237355532163434  0.3049936070220484  1.0000
  C   C3        1.0  0.9653504205894167  0.22373622179895855  0.19500708216548193  1.0000
  C   C4        1.0  0.5346488448213051  0.2762637951577318  0.6950063638499702  1.0000
  C   C5        1.0  0.0046748877641249065  0.8492689334547237  0.7380565268392874  1.0000
  C   C6        1.0  0.4953245323828525  0.6507328672410537  0.23805585735464527  1.0000
  C   C7        1.0  0.9953249089843296  0.15073041556327377  0.26194308129747423  1.0000
  C   C8        1.0  0.5046753629041378  0.3492687273203218  0.7619437507816331  1.0000
  C   C9        1.0  0.45703534033080456  0.7523658693738113  0.7589390938128349  1.0000
  C   C10       1.0  0.0429640373604769  0.7476328978912862  0.2589393956802014  1.0000
  C   C11       1.0  0.5429629478617245  0.24763347835634159  0.24106123979444768  1.0000
  C   C12       1.0  0.9570350379569704  0.25236719899690735  0.7410609379272872  1.0000
  C   C13       1.0  0.4343814187259484  0.8258315054047357  0.6911194741020665  1.0000
  C   C14       1.0  0.06561845728452201  0.6741681388855697  0.19111946957141163  1.0000
  C   C15       1.0  0.565618345177107  0.17416709509845418  0.3088804967704775  1.0000
  C   C16       1.0  0.9343814380040101  0.32583345567511657  0.8088808640361196  1.0000
  C   C17       1.0  0.2780143224260598  0.528618542240629  0.7331783020497158  1.0000
  C   C18       1.0  0.22198428982463983  0.9713825184935129  0.23317867025351555  1.0000
  C   C19       1.0  0.7219847857375613  0.4713823031620166  0.26682203155761647  1.0000
  C   C20       1.0  0.7780162612048755  0.028616831167035194  0.7668220260904804  1.0000
  C   C21       1.0  0.2069373235784866  0.4906589708097541  0.8006855530674815  1.0000
  C   C22       1.0  0.2930642652297878  0.0093408856238497  0.3006854816286905  1.0000
  C   C23       1.0  0.7930647360084963  0.5093403801379495  0.19931514327723224  1.0000
  C   C24       1.0  0.706935531520216  0.9906584633934585  0.6993148519793166  1.0000
  C   C25       1.0  0.26030505781614716  0.10191830604905049  0.6858482870082271  1.0000
  C   C26       1.0  0.23969604196444996  0.3980817668989047  0.18584761852265794  1.0000
  C   C27       1.0  0.7396947389338565  0.8980810429682577  0.31415204659978724  1.0000
  C   C28       1.0  0.7603052961876529  0.6019183319207072  0.8141519896146648  1.0000
  C   C29       1.0  0.17842534548056224  0.0678528762971453  0.7510227791249592  1.0000
  C   C30       1.0  0.321575310410907  0.43214782164084653  0.2510232613458783  1.0000
  C   C31       1.0  0.8215744841140732  0.9321472212353045  0.24897682901163887  1.0000
  C   C32       1.0  0.6784252406170596  0.5678515280203841  0.7489767095268719  1.0000
  C   C33       1.0  0.22346293058870975  0.684657466082996  0.8914056950382946  1.0000
  C   C34       1.0  0.27653789686533514  0.8153440461315994  0.39140582633996973  1.0000
  C   C35       1.0  0.7765361775749113  0.31534337931965706  0.10859463856903064  1.0000
  C   C36       1.0  0.7234641955662866  0.18465605333124555  0.608594144533342  1.0000
  C   C37       1.0  0.23077811637256931  0.6762259692217116  0.9452719407997281  1.0000
  C   C38       1.0  0.2692213662172378  0.8237739431175796  0.4452720611120996  1.0000
  C   C39       1.0  0.7692201389737862  0.3237726299939752  0.05472839280771782  1.0000
  C   C40       1.0  0.7307792176576767  0.17622615505776912  0.5547282724961138  1.0000
  C   C41       1.0  0.2090098458762171  0.5827932756222367  0.9655459718996869  1.0000
  C   C42       1.0  0.29098824733777207  0.917207345719788  0.4655460690819951  1.0000
  C   C43       1.0  0.7909877208837557  0.4172068199787943  0.03445436170707691  1.0000
  C   C44       1.0  0.7090115494122314  0.08279200329751997  0.5344542645260193  1.0000
  C   C45       1.0  0.2163203131729006  0.5687692834734291  0.015868565171516007  1.0000
  C   C46       1.0  0.2836766194004526  0.9312321863323588  0.5158687382211087  1.0000
  C   C47       1.0  0.7836757778750041  0.4312315593552468  0.9841314056987404  1.0000
  C   C48       1.0  0.7163224230708141  0.06876716204137519  0.48413159538654343  1.0000
  C   C49       1.0  0.24406965845006576  0.6478271110073733  0.04637861598988021  1.0000
  C   C50       1.0  0.2559311425957134  0.8521735559782896  0.5463787996618947  1.0000
  C   C51       1.0  0.755929449711239  0.35217373439630245  0.9536206294105727  1.0000
  C   C52       1.0  0.7440686869996967  0.14782654155381894  0.4536211712103297  1.0000
  C   C53       1.0  0.2608851173239941  0.7466476739687521  0.02714925984447091  1.0000
  C   C54       1.0  0.2391155689895825  0.7533522807570563  0.5271498366705886  1.0000
  C   C55       1.0  0.739114712269867  0.2533524235640456  0.9728499855565008  1.0000
  C   C56       1.0  0.7608850477315131  0.24664856593275888  0.47285049693746134  1.0000
  C   C57       1.0  0.2549272109027854  0.7608307521119569  0.9754489972813406  1.0000
  C   C58       1.0  0.2450740072899293  0.739171350162131  0.47544913428097874  1.0000
  C   C59       1.0  0.7450734058167683  0.2391700945785331  0.024550610855463607  1.0000
  C   C60       1.0  0.7549265765849853  0.2608287480132176  0.5245511993272276  1.0000
  C   C61       1.0  0.26755900035726654  0.8594486478105806  0.9564398197011743  1.0000
  C   C62       1.0  0.23244207119469712  0.6405519932740518  0.456440353772969  1.0000
  C   C63       1.0  0.7324400092662842  0.14054995204936918  0.04355978843538822  1.0000
  C   C64       1.0  0.7675585126794501  0.35944810490163803  0.5435596170996179  1.0000
  C   C65       1.0  0.2834670839311216  0.9408376378390032  0.986594746114314  1.0000
  C   C66       1.0  0.21653254178291803  0.5591614480758835  0.4865949405278372  1.0000
  C   C67       1.0  0.716531925693964  0.0591609620202718  0.013405587493494402  1.0000
  C   C68       1.0  0.7834672878124921  0.4408386494562251  0.5134050303443873  1.0000
  C   C69       1.0  0.2880814682639254  0.9273375308031151  0.0373954235229377  1.0000
  C   C70       1.0  0.21191932737315258  0.5726639016341579  0.5373953339019908  1.0000
  C   C71       1.0  0.7119183284860783  0.07266181821419339  0.9626049100850695  1.0000
  C   C72       1.0  0.7880812893487105  0.4273369450553091  0.46260536244168565  1.0000
  C   C73       1.0  0.2776759190618066  0.8325627664291346  0.05700565419587632  1.0000
  C   C74       1.0  0.2223241072674966  0.6674363828478036  0.5570058926491586  1.0000
  C   C75       1.0  0.7223253533994979  0.1674358353608767  0.9429946794130191  1.0000
  C   C76       1.0  0.7776757551748615  0.3325644631984233  0.44299444095853613  1.0000
  C   C77       1.0  0.2510241322522546  0.625073767907608  0.0992194113404352  1.0000
  C   C78       1.0  0.2489768938099743  0.8749267994532489  0.5992184894164156  1.0000
  C   C79       1.0  0.7489749430644181  0.37492632898092637  0.9007805595314269  1.0000
  C   C80       1.0  0.7510251986193242  0.1250733000106266  0.40078039325001685  1.0000
  C   C81       1.0  0.16019690418934124  0.2831348207615036  0.8931679289261186  1.0000
  C   C82       1.0  0.3398021598751767  0.21686710427388786  0.3931692555118361  1.0000
  C   C83       1.0  0.8398044668097172  0.7168660265722264  0.10683204194667444  1.0000
  C   C84       1.0  0.6601961940104816  0.7831337404848353  0.606831440830753  1.0000
  C   C85       1.0  0.17957801759155964  0.26272735854049495  0.945659415277959  1.0000
  C   C86       1.0  0.3204218928943519  0.23727147411510427  0.44565889998166613  1.0000
  C   C87       1.0  0.8204209263411713  0.7372697442898543  0.054340918330169116  1.0000
  C   C88       1.0  0.679579543797061  0.7627308702475447  0.5543410708908001  1.0000
  C   C89       1.0  0.10215317698287411  0.280303091549932  0.9779265214965565  1.0000
  C   C90       1.0  0.397846248018709  0.2196986736825366  0.47792717695815423  1.0000
  C   C91       1.0  0.8978465869201813  0.7196955089532652  0.022073449375994904  1.0000
  C   C92       1.0  0.6021535815782499  0.7803014238488898  0.5220735193853159  1.0000
  C   C93       1.0  0.11228526004795471  0.2575811015122866  0.027279888581169604  1.0000
  C   C94       1.0  0.38771532871105313  0.24242301297234545  0.5272791621643905  1.0000
  C   C95       1.0  0.8877168652290665  0.742419746465366  0.9727197195563522  1.0000
  C   C96       1.0  0.6122845008843498  0.7575770845597631  0.47272080870783395  1.0000
  C   C97       1.0  0.20072521419922404  0.22013417093508988  0.04571924256628531  1.0000
  C   C98       1.0  0.2992768631019728  0.2798676645275861  0.5457187764074407  1.0000
  C   C99       1.0  0.79927694392552  0.7798674255563326  0.9542810910423258  1.0000
  C   C100      1.0  0.7007229336457144  0.7201316844907526  0.4542804689936944  1.0000
  C   C101      1.0  0.2855425026893528  0.20814545963582998  0.014147865505727003  1.0000
  C   C102      1.0  0.21446094872774069  0.29185643663728206  0.5141487632783284  1.0000
  C   C103      1.0  0.7144589339997438  0.7918568847278423  0.9858510171598669  1.0000
  C   C104      1.0  0.7855404222705431  0.7081444106967896  0.4858508448588383  1.0000
  C   C105      1.0  0.27354455121604093  0.22788014699496975  0.962955791348165  1.0000
  C   C106      1.0  0.22645392437066647  0.2721186517616729  0.4629566204377512  1.0000
  C   C107      1.0  0.7264567212429398  0.7721184547960648  0.037043454053851115  1.0000
  C   C108      1.0  0.7735474794745726  0.7278829440865097  0.5370433504348782  1.0000
  C   C109      1.0  0.35739163974999844  0.21635017834614703  0.9316060451808996  1.0000
  C   C110      1.0  0.1426097522954137  0.2836494306067436  0.43160606293553644  1.0000
  C   C111      1.0  0.6426088784294778  0.7836484228016545  0.06839283748513483  1.0000
  C   C112      1.0  0.8573915858559218  0.7163506682132095  0.5683931824661601  1.0000
  C   C113      1.0  0.44914824350041027  0.18829284679379302  0.9492379490447862  1.0000
  C   C114      1.0  0.0508524693494934  0.31170672827282425  0.4492375028258665  1.0000
  C   C115      1.0  0.5508514875564643  0.8117050051949447  0.05076202182792141  1.0000
  C   C116      1.0  0.9491480816776984  0.6882926213887474  0.5507621053112575  1.0000
  C   C117      1.0  0.4614567208329349  0.17042869703064412  0.9992940244210688  1.0000
  C   C118      1.0  0.0385420080356695  0.3295722787575954  0.4992946461854545  1.0000
  C   C119      1.0  0.5385423216383387  0.8295706513430899  0.0007063091865831003  1.0000
  C   C120      1.0  0.961458510147672  0.6704263223884935  0.5007060501586977  1.0000
  C   C121      1.0  0.38175492586470483  0.18011588235031442  0.030901951288527105  1.0000
  C   C122      1.0  0.11824554693635748  0.3198852312463671  0.530902380825296  1.0000
  C   C123      1.0  0.6182449037307052  0.8198842151818014  0.9690980195836972  1.0000
  C   C124      1.0  0.8817558569096491  0.6801163646014813  0.4690979527829527  1.0000
  C   C125      1.0  0.1998497464143369  0.19493857224409084  0.09849111496776435  1.0000
  C   C126      1.0  0.30014950565255555  0.3050624126332194  0.5984913632504885  1.0000
  C   C127      1.0  0.8001493617485095  0.8050622731588959  0.9015088559039416  1.0000
  C   C128      1.0  0.6998510782208172  0.6949376855428112  0.4015082448864718  1.0000
  N   N1        1.0  0.9600611914708282  0.8192007663454677  0.7800661303345893  1.0000
  N   N2        1.0  0.5399386984974939  0.6807986728092886  0.2800657353106005  1.0000
  N   N3        1.0  0.0399386052791755  0.18079858267184784  0.21993420327342517  1.0000
  N   N4        1.0  0.46006106540633607  0.3191999276935674  0.7199345982975701  1.0000
  N   N5        1.0  0.10180337411627251  0.8271621794358667  0.7368341595779742  1.0000
  N   N6        1.0  0.39819686079621147  0.6728411212371485  0.23683338650557326  1.0000
  N   N7        1.0  0.8981964554791304  0.17283791809624205  0.26316581129425043  1.0000
  N   N8        1.0  0.6018029687991984  0.3271589762949603  0.7631665843666513  1.0000
  N   N9        1.0  0.12068783968515358  0.7802601279385967  0.7800113265608533  1.0000
  N   N10       1.0  0.37931231632706647  0.7197371032116636  0.28001160148788534  1.0000
  N   N11       1.0  0.8793118913709462  0.219737724050475  0.21998828157622805  1.0000
  N   N12       1.0  0.6206875132675691  0.2802629943207862  0.7199880066487199  1.0000
  N   N13       1.0  0.5062546839695089  0.7837185880208893  0.7183450035413161  1.0000
  N   N14       1.0  0.993744943165403  0.7162809675019303  0.21834538987130267  1.0000
  N   N15       1.0  0.4937451456266686  0.21628150951087832  0.2816553300665349  1.0000
  N   N16       1.0  0.006254164998985299  0.28371987790038133  0.7816553064716487  1.0000
  N   N17       1.0  0.34524396801948143  0.8197600524419425  0.7135821990724197  1.0000
  N   N18       1.0  0.1547561021856296  0.6802417950405228  0.21358227719011325  1.0000
  N   N19       1.0  0.6547550416048368  0.1802385474176731  0.28641777179976213  1.0000
  N   N20       1.0  0.8452438587944897  0.31976129654943003  0.7864176936814719  1.0000
  N   N21       1.0  0.3598361554591349  0.7727585319952369  0.757133707184636  1.0000
  N   N22       1.0  0.1401640345153439  0.7272417363461301  0.2571341119002427  1.0000
  N   N23       1.0  0.6401629198575378  0.2272415648932977  0.24286626368722616  1.0000
  N   N24       1.0  0.8598350408028778  0.27275836054171526  0.7428665844428723  1.0000
  N   N25       1.0  0.2440771591885991  0.5697899824062489  0.7746320660005852  1.0000
  N   N26       1.0  0.2559245810119606  0.9302095057168029  0.27463212341998405  1.0000
  N   N27       1.0  0.755923391840142  0.4302093672546405  0.22536826760779155  1.0000
  N   N28       1.0  0.7440774785742548  0.06978984523124152  0.7253682101891104  1.0000
  N   N29       1.0  0.21802231572095113  0.4052466886258515  0.7768763375674085  1.0000
  N   N30       1.0  0.2819777288322314  0.09475470843937467  0.27687621526045814  1.0000
  N   N31       1.0  0.7819775138752333  0.5947534089059162  0.22312399604044236  1.0000
  N   N32       1.0  0.718022100763953  0.9052453890923928  0.7231241183473857  1.0000
  N   N33       1.0  0.2631571062090998  0.4294942857229954  0.7332835116008456  1.0000
  N   N34       1.0  0.23684268701467903  0.0705056965031119  0.23328335741852166  1.0000
  N   N35       1.0  0.7368427233870777  0.570505811808772  0.2667168220070054  1.0000
  N   N36       1.0  0.7631571097353246  0.9294936525142034  0.7667169761894927  1.0000
  N   N37       1.0  0.21607791500626664  0.024635249113245498  0.7109292760306902  1.0000
  N   N38       1.0  0.2839225373027788  0.4753647759028325  0.21092933903869246  1.0000
  N   N39       1.0  0.7839211603096389  0.9753648477756299  0.2890703321055454  1.0000
  N   N40       1.0  0.7160780465721359  0.5246353222725162  0.7890709945695209  1.0000
  N   N41       1.0  0.19742938636282048  0.16646047301135516  0.7508725924670545  1.0000
  N   N42       1.0  0.30257199032094206  0.3335394773392296  0.250872740171431  1.0000
  N   N43       1.0  0.802570443231815  0.8335396245211015  0.2491270156695436  1.0000
  N   N44       1.0  0.6974293149857685  0.6664598729655751  0.7491272307016745  1.0000
  N   N45       1.0  0.24970758105395421  0.18814460956427587  0.7090107449315824  1.0000
  N   N46       1.0  0.2502913873755048  0.31185616629556995  0.20901157817015564  1.0000
  N   N47       1.0  0.7502915271081249  0.811856235839059  0.2909888632044969  1.0000
  N   N48       1.0  0.7497084093752733  0.6881431827213975  0.7909891181734781  1.0000
  O   O1        1.0  0.2647272400052715  0.14156544991463696  0.11922149960781783  1.0000
  O   O2        1.0  0.23527285461982222  0.3584354965209968  0.6192220232488881  1.0000
  O   O3        1.0  0.7352724910492866  0.8584324020751167  0.8807773830580107  1.0000
  O   O4        1.0  0.7647270406648445  0.6415660980414019  0.3807764966805181  1.0000
  O   O5        1.0  0.12787412286656522  0.22959418177904214  0.12438060202396885  1.0000
  O   O6        1.0  0.37212589518772893  0.2704045093871201  0.6243802102063685  1.0000
  O   O7        1.0  0.872123378199511  0.7704044167937527  0.8756190061118618  1.0000
  O   O8        1.0  0.627876197242344  0.7295955900764142  0.37561903519569045  1.0000
  O   O9        1.0  0.2964055042144055  0.731009869453878  0.8675750767722834  1.0000
  O   O10       1.0  0.20359450032906073  0.7689924355604418  0.36757661087698085  1.0000
  O   O11       1.0  0.7035928496681694  0.26899097530621674  0.13242416862780712  1.0000
  O   O12       1.0  0.7964046406815087  0.23100915835632208  0.6324240854658145  1.0000
  O   O13       1.0  0.14820314549336186  0.6449384608312342  0.8696992057778206  1.0000
  O   O14       1.0  0.351796802399555  0.8550623431509548  0.3696990278300448  1.0000
  O   O15       1.0  0.851795929823311  0.355061636057293  0.13030076509404154  1.0000
  O   O16       1.0  0.648203814319217  0.14493850353988338  0.6303002175711256  1.0000
  O   O17       1.0  0.1146666725365719  0.3593502854351272  0.8806578629127488  1.0000
  O   O18       1.0  0.38533535536827657  0.1406516657616237  0.3806585436065434  1.0000
  O   O19       1.0  0.885335321358056  0.6406475684836581  0.11934283343229174  1.0000
  O   O20       1.0  0.6146637199522543  0.8593484311251985  0.6193432409434438  1.0000
  O   O21       1.0  0.1904639650175639  0.21810747412204987  0.8615780386758164  1.0000
  O   O22       1.0  0.3095355217228644  0.28189002003071556  0.36157821738996904  1.0000
  O   O23       1.0  0.8095365531626868  0.7818911270254034  0.13842120672583755  1.0000
  O   O24       1.0  0.6904634878999119  0.7181085798295824  0.6384210280109672  1.0000
  O   O25       1.0  0.3212934634219451  0.6711274428371682  0.12504693614742732  1.0000
  O   O26       1.0  0.17870616406740683  0.8288730745414411  0.625045968507557  1.0000
  O   O27       1.0  0.678705546203922  0.3288711570217587  0.8749537601960073  1.0000
  O   O28       1.0  0.8212944854990879  0.17112852066316717  0.3749540023647101  1.0000
  O   O29       1.0  0.1896251819585757  0.5618558433919462  0.11823073360585572  1.0000
  O   O30       1.0  0.3103766464954205  0.9381439402537737  0.6182302035387652  1.0000
  O   O31       1.0  0.8103738605119162  0.4381435049821223  0.88176923726617  1.0000
  O   O32       1.0  0.6896254130884786  0.06185541069529419  0.381769041863457  1.0000
