data_image0
_chemical_formula_structural       K2Te2H48C34Se2N10O12
_chemical_formula_sum              "K2 Te2 H48 C34 Se2 N10 O12"
_cell_length_a       7.843289591263033
_cell_length_b       10.626568624564493
_cell_length_c       15.4717
_cell_angle_alpha    104.72972249786766
_cell_angle_beta     90.01913197869176
_cell_angle_gamma    99.86989034970007

_space_group_name_H-M_alt    "P 1"
_space_group_IT_number       1

loop_
  _space_group_symop_operation_xyz
  'x, y, z'

loop_
  _atom_site_type_symbol
  _atom_site_label
  _atom_site_symmetry_multiplicity
  _atom_site_fract_x
  _atom_site_fract_y
  _atom_site_fract_z
  _atom_site_occupancy
  K   K1        1.0  0.9679687458582011  0.3056483251385487  0.6801488372333893  1.0000
  K   K2        1.0  0.0320270349969931  0.6943400743494195  0.3198534666785164  1.0000
  Te  Te1       1.0  0.8714198913837877  0.9176538609915141  0.8825629088554836  1.0000
  Te  Te2       1.0  0.1285621978364375  0.0823414592761367  0.1174490037905329  1.0000
  H   H1        1.0  0.8938598802558533  0.23435440759853782  0.3716757090527949  1.0000
  H   H2        1.0  0.10615013206634671  0.765645856083168  0.6283241447878254  1.0000
  H   H3        1.0  0.9962180802508843  0.388103482938007  0.444039051980731  1.0000
  H   H4        1.0  0.0037847416676726115  0.6118987581093195  0.5559604996195661  1.0000
  H   H5        1.0  0.6686054747991437  0.353248459100044  0.4335888050678706  1.0000
  H   H6        1.0  0.3313989781736098  0.6467498272160341  0.5664094098306905  1.0000
  H   H7        1.0  0.6613475341405177  0.21838025941251973  0.4837403413419779  1.0000
  H   H8        1.0  0.3386569188322427  0.7816180269035655  0.5162565808738152  1.0000
  H   H9        1.0  0.5185290150902733  0.3345682860588468  0.6040810483747237  1.0000
  H   H10       1.0  0.4814703379812571  0.6654300002572384  0.3959152266363901  1.0000
  H   H11       1.0  0.5390285701199178  0.4820174745231967  0.566442510285178  1.0000
  H   H12       1.0  0.46097460787753164  0.5179808117928886  0.4335537653734037  1.0000
  H   H13       1.0  0.7336196945465547  0.6029472239336542  0.7037584284793612  1.0000
  H   H14       1.0  0.2663783835496645  0.3970510623824239  0.2962391389986934  1.0000
  H   H15       1.0  0.5150735181848278  0.5401510351588215  0.7247760349960259  1.0000
  H   H16       1.0  0.4849230552119863  0.45984626247444993  0.27522006688543854  1.0000
  H   H17       1.0  0.5747467263834312  0.5120368507299204  0.8688193104156883  1.0000
  H   H18       1.0  0.42525367193930924  0.48796044690335094  0.1311780847960193  1.0000
  H   H19       1.0  0.7903180518436058  0.5944593819966002  0.8626495086428392  1.0000
  H   H20       1.0  0.2096800262526202  0.4055389043194779  0.13734676615244723  1.0000
  H   H21       1.0  0.7565809016876983  0.4448667291968392  0.9685975335569026  1.0000
  H   H22       1.0  0.24342018580734506  0.5551335344848667  0.031400379748802734  1.0000
  H   H23       1.0  0.6924236082155204  0.3066468947782043  0.8746126899827615  1.0000
  H   H24       1.0  0.30757597458011093  0.6933523802206949  0.12538634309188984  1.0000
  H   H25       1.0  0.9238448248438262  0.21934719120220342  0.9064185241623761  1.0000
  H   H26       1.0  0.0761558032030081  0.7806510951138819  0.09358098277148495  1.0000
  H   H27       1.0  0.02479203147458971  0.3577726716456411  0.9935426471577884  1.0000
  H   H28       1.0  0.9752092857445549  0.6422285807188716  0.006454792504527525  1.0000
  H   H29       1.0  0.2761886306215403  0.3863535143615877  0.8897086286125814  1.0000
  H   H30       1.0  0.7238094474746787  0.6136447719544975  0.11028829252408913  1.0000
  H   H31       1.0  0.24854812186399042  0.2395855283543895  0.9283782004095259  1.0000
  H   H32       1.0  0.7514529656310529  0.7604147353273163  0.07162165192033146  1.0000
  H   H33       1.0  0.3714303127348019  0.1127048971012812  0.7969971650889179  1.0000
  H   H34       1.0  0.6285691666915201  0.8872884458007491  0.20300147835494192  1.0000
  H   H35       1.0  0.4222233233782193  0.2632051607220305  0.7626732635896545  1.0000
  H   H36       1.0  0.5777781201957239  0.7367911482284272  0.23732848352956645  1.0000
  H   H37       1.0  0.4009064535491974  0.05638952415607431  0.6380972537235934  1.0000
  H   H38       1.0  0.5990979994235631  0.9436087621600109  0.36190160751635153  1.0000
  H   H39       1.0  0.17526921875261087  0.0144298256343944  0.6574421098783035  1.0000
  H   H40       1.0  0.8247341889689468  0.9855694493644976  0.34255433847827993  1.0000
  H   H41       1.0  0.1475031508212439  0.024302812190413203  0.5023604564095621  1.0000
  H   H42       1.0  0.8525146147221039  0.9757033835881616  0.49763720299125686  1.0000
  H   H43       1.0  0.36264029759635724  0.10496647673537039  0.4929270550852537  1.0000
  H   H44       1.0  0.6373702775433543  0.8950416964088319  0.5070715947580098  1.0000
  H   H45       1.0  0.24914837897635783  0.3100677373061203  0.48512361405494187  1.0000
  H   H46       1.0  0.7508569928928138  0.6899345037412061  0.5148765843183867  1.0000
  H   H47       1.0  0.1695398588565808  0.1686277629703028  0.3955060353213895  1.0000
  H   H48       1.0  0.8304664319090024  0.8313784328082718  0.6044935611611706  1.0000
  C   C1        1.0  0.17851760487146612  0.8229044324305761  0.9038243765602232  1.0000
  C   C2        1.0  0.8214869284851147  0.1771106614933018  0.0961800052637898  1.0000
  C   C3        1.0  0.660952728535463  0.9991638380231436  0.7139370465082351  1.0000
  C   C4        1.0  0.3390500129992732  0.0008215954163902001  0.28607120401845526  1.0000
  C   C5        1.0  0.912782271024206  0.2923673489311582  0.4422410113810145  1.0000
  C   C6        1.0  0.08722136642145271  0.7076329147505476  0.5577594877218743  1.0000
  C   C7        1.0  0.10200279491453303  0.7491190342054992  0.8153821400875145  1.0000
  C   C8        1.0  0.8979895744919805  0.2508930936699514  0.18461978267593082  1.0000
  C   C9        1.0  0.7394326631475467  0.3136022783573722  0.47943477955601577  1.0000
  C   C10       1.0  0.260573064800525  0.686396007958713  0.5205634355583726  1.0000
  C   C11       1.0  0.3329089235744505  0.7950819094310901  0.9389679259692232  1.0000
  C   C12       1.0  0.6671048677026976  0.20494010527247042  0.061035080670194516  1.0000
  C   C13       1.0  0.6052530681102655  0.4285653270002001  0.6051764992424752  1.0000
  C   C14       1.0  0.3947473302124677  0.5714319706330713  0.3948196032864574  1.0000
  C   C15       1.0  0.17241809703870817  0.64221572784232  0.7604005620441896  1.0000
  C   C16       1.0  0.8275719521412912  0.3577973887159303  0.23960217932698674  1.0000
  C   C17       1.0  0.6385408164879254  0.5120892509189332  0.6999916222632478  1.0000
  C   C18       1.0  0.3614559866329899  0.487909035397152  0.3000052986576023  1.0000
  C   C19       1.0  0.705483769775924  0.4963919339201439  0.8467403710896235  1.0000
  C   C20       1.0  0.29451604274381543  0.5036083297615619  0.15325754200025443  1.0000
  C   C21       1.0  0.770436746527068  0.4071395817913626  0.8959475343367489  1.0000
  C   C22       1.0  0.22956005659384718  0.5928587045247227  0.10404874024271751  1.0000
  C   C23       1.0  0.014017070827179597  0.3150101626809985  0.9202741256188746  1.0000
  C   C24       1.0  0.9859827416925527  0.6849901010007073  0.07972508015377146  1.0000
  C   C25       1.0  0.18880524447995842  0.2911759861432515  0.8858751919507029  1.0000
  C   C26       1.0  0.8111938788674706  0.7088213114900199  0.11412349572795225  1.0000
  C   C27       1.0  0.32179301460724474  0.1750947372405705  0.7590369931690406  1.0000
  C   C28       1.0  0.6782079695184894  0.8248995943442595  0.24096182318864126  1.0000
  C   C29       1.0  0.2847882929331362  0.0972537621225626  0.6628086492401124  1.0000
  C   C30       1.0  0.7152161600396243  0.9027445241935226  0.33718956565844854  1.0000
  C   C31       1.0  0.23343530234041052  0.12165741995975309  0.5168603659136011  1.0000
  C   C32       1.0  0.7665704256076539  0.878340866356325  0.4831384955421712  1.0000
  C   C33       1.0  0.16643663342225784  0.21093448915882362  0.4682621483920358  1.0000
  C   C34       1.0  0.8335638682697848  0.7890687405713167  0.5317362827918404  1.0000
  Se  Se1       1.0  0.5555430264583308  0.8582033748509234  0.7509305073988628  1.0000
  Se  Se2       1.0  0.44444556399322027  0.14178700200266553  0.24907472597963223  1.0000
  N   N1        1.0  0.9574646291008408  0.775772934121747  0.7875511221617941  1.0000
  N   N2        1.0  0.0425177932127951  0.2242293069255794  0.21245747476470464  1.0000
  N   N3        1.0  0.7304994304462584  0.0898247994766663  0.6885837705173118  1.0000
  N   N4        1.0  0.2695022888227498  0.9101507471347503  0.31142469226935543  1.0000
  N   N5        1.0  0.0964542179515817  0.9124355931122139  0.9513194828048273  1.0000
  N   N6        1.0  0.903539323060926  0.0875706026663607  0.04868592859195792  1.0000
  N   N7        1.0  0.45672827269240207  0.7696875914167336  0.9678950103799694  1.0000
  N   N8        1.0  0.5432639703593127  0.230329479872772  0.032106482974882104  1.0000
  N   N9        1.0  0.22227377186234076  0.5510305008169851  0.7152398154960267  1.0000
  N   N10       1.0  0.7777089835447057  0.4489786610100239  0.2847641730281865  1.0000
  O   O1        1.0  0.7658211332285065  0.403725660043122  0.566400284146134  1.0000
  O   O2        1.0  0.23418181504484895  0.5962716375901493  0.433598404179989  1.0000
  O   O3        1.0  0.7002113259687663  0.43511436194383174  0.7532923226868179  1.0000
  O   O4        1.0  0.2997852474280407  0.5648829356894396  0.24670507187741467  1.0000
  O   O5        1.0  0.9483198372708588  0.4020191935104052  0.877119031829281  1.0000
  O   O6        1.0  0.0516810205000837  0.5979800814884868  0.12287806243703873  1.0000
  O   O7        1.0  0.16483426254125533  0.21310860266140003  0.7955655512537874  1.0000
  O   O8        1.0  0.8351662621362693  0.7868837515578164  0.20443356604927498  1.0000
  O   O9        1.0  0.2445172913845469  0.1832345628279697  0.6109207987465837  1.0000
  O   O10       1.0  0.7554880804846251  0.8167676782193638  0.3890781069439769  1.0000
  O   O11       1.0  0.9930776459718518  0.2223448774867904  0.49371538186465364  1.0000
  O   O12       1.0  0.0069300461238342  0.7776563748777292  0.5062852905837048  1.0000
