data_image0
_chemical_formula_structural       Na4H16C24S4N12O12
_chemical_formula_sum              "Na4 H16 C24 S4 N12 O12"
_cell_length_a       5.7947496089332375
_cell_length_b       8.421139702074449
_cell_length_c       17.4186513391424
_cell_angle_alpha    89.99997372877007
_cell_angle_beta     89.60647266841197
_cell_angle_gamma    89.99949373403936

_space_group_name_H-M_alt    "P 1"
_space_group_IT_number       1

loop_
  _space_group_symop_operation_xyz
  'x, y, z'

loop_
  _atom_site_type_symbol
  _atom_site_label
  _atom_site_symmetry_multiplicity
  _atom_site_fract_x
  _atom_site_fract_y
  _atom_site_fract_z
  _atom_site_occupancy
  Na  Na1       1.0  0.3691299271559815  0.6835079002568563  0.9813052693143474  1.0000
  Na  Na2       1.0  0.13087403132772832  0.1835056124343666  0.0186945447668379  1.0000
  Na  Na3       1.0  0.6308766716605448  0.31648245554062265  0.0186946262035264  1.0000
  Na  Na4       1.0  0.869125940431033  0.8164871183613087  0.9813024243228625  1.0000
  H   H1        1.0  0.9710814599081559  0.3463358733231772  0.24672886870575184  1.0000
  H   H2        1.0  0.5289297936162428  0.8463322707932975  0.7532642305294246  1.0000
  H   H3        1.0  0.02892971398986083  0.653672294772022  0.7532773826638532  1.0000
  H   H4        1.0  0.47107061416432583  0.15365096010174986  0.2467281470772775  1.0000
  H   H5        1.0  0.15889701248190138  0.3409673846925116  0.3761876850656449  1.0000
  H   H6        1.0  0.34108443397889954  0.8409643094392864  0.6238107861985398  1.0000
  H   H7        1.0  0.8411088776686813  0.6590597832224817  0.6238196716104341  1.0000
  H   H8        1.0  0.6588862147518171  0.1590391088395293  0.3761859417001078  1.0000
  H   H9        1.0  0.6992785814762001  0.6479324727198302  0.2900487203790121  1.0000
  H   H10       1.0  0.8007085671950309  0.14793783670565833  0.7099510843815864  1.0000
  H   H11       1.0  0.3007435411530679  0.3520756953439061  0.7099513028263971  1.0000
  H   H12       1.0  0.1992840144967758  0.8520691439634189  0.2900509933755799  1.0000
  H   H13       1.0  0.5140346326168341  0.6526213353194023  0.1628854888095432  1.0000
  H   H14       1.0  0.9859752092518832  0.15262181462398422  0.8371110560428576  1.0000
  H   H15       1.0  0.4859839313771347  0.34736783295151247  0.8371156538929796  1.0000
  H   H16       1.0  0.014029610225243499  0.8473626037402512  0.1628893992232889  1.0000
  C   C1        1.0  0.23084304650422646  0.500350668551981  0.1976981051346343  1.0000
  C   C2        1.0  0.2691562485957704  0.000359694086761  0.8023016809193779  1.0000
  C   C3        1.0  0.7691684543811592  0.4996551245686404  0.8023047026223509  1.0000
  C   C4        1.0  0.7308351532358943  0.9996365991997676  0.1976946432962734  1.0000
  C   C5        1.0  0.12941235486911037  0.41250417994453403  0.2570913879261241  1.0000
  C   C6        1.0  0.37058083727971797  0.9125043472939183  0.7429014320776943  1.0000
  C   C7        1.0  0.8705972576061854  0.587508738107502  0.742913127449043  1.0000
  C   C8        1.0  0.6293954766522846  0.0874824461415571  0.25709017296601633  1.0000
  C   C9        1.0  0.23381072519825347  0.40917052922272035  0.3289806832897355  1.0000
  C   C10       1.0  0.2661753902099592  0.909160754577172  0.6710143762289107  1.0000
  C   C11       1.0  0.7661934400939148  0.5908530762346161  0.6710266591989651  1.0000
  C   C12       1.0  0.7337973649490124  0.09082960133220301  0.3289783483101374  1.0000
  C   C13       1.0  0.4390194697496739  0.4938223054381154  0.3409557969880197  1.0000
  C   C14       1.0  0.060980918051058125  0.9938150402558532  0.6590416726853902  1.0000
  C   C15       1.0  0.5609813548383614  0.5061906126410207  0.6590503692552546  1.0000
  C   C16       1.0  0.9390228304046533  0.006183627968283599  0.34095188116635466  1.0000
  C   C17       1.0  0.5392485720162412  0.582444227630468  0.2810730203413243  1.0000
  C   C18       1.0  0.9607481641375913  0.08244381107127913  0.7189251438220766  1.0000
  C   C19       1.0  0.46075641073709767  0.417574627878139  0.7189257131157163  1.0000
  C   C20       1.0  0.0392461424996213  0.9175524822027938  0.2810769481235837  1.0000
  C   C21       1.0  0.435795667435933  0.5846948863911835  0.2094436561981823  1.0000
  C   C22       1.0  0.0641994751353536  0.0846981071496913  0.7905526446405347  1.0000
  C   C23       1.0  0.56422650972506  0.4153073442340869  0.7905557930722225  1.0000
  C   C24       1.0  0.9357864250612026  0.9153017486156615  0.2094470806246704  1.0000
  S   S1        1.0  0.1105987800939019  0.5002359174143861  0.1042016912721664  1.0000
  S   S2        1.0  0.3893922190352158  0.0002357602206686  0.8957945802494507  1.0000
  S   S3        1.0  0.8894132658405027  0.4997544383672903  0.8957953771313427  1.0000
  S   S4        1.0  0.6105956786058897  0.9997498456872405  0.10420228952718699  1.0000
  N   N1        1.0  0.5377590780220061  0.48261444074111653  0.4145383558078919  1.0000
  N   N2        1.0  0.9622240935210655  0.9826058853779218  0.5854602485950409  1.0000
  N   N3        1.0  0.4622554910611216  0.5174067897078699  0.5854684978714815  1.0000
  N   N4        1.0  0.03775345475205681  0.017393970415689405  0.414536536054527  1.0000
  N   N5        1.0  0.708128402406473  0.5641313585844899  0.429920766496025  1.0000
  N   N6        1.0  0.7918529789230746  0.0641298088736306  0.5700778467859847  1.0000
  N   N7        1.0  0.2918983498070205  0.4358934342893903  0.5700850386257555  1.0000
  N   N8        1.0  0.20810726597319024  0.9358831093398622  0.4299193699214285  1.0000
  N   N9        1.0  0.8650971856772433  0.6325847628506339  0.4523199071396178  1.0000
  N   N10       1.0  0.6348887524988742  0.13258542650797267  0.5476764422278392  1.0000
  N   N11       1.0  0.13490396591991066  0.3674222177907608  0.5476828154913136  1.0000
  N   N12       1.0  0.3651059901021654  0.8674108667672514  0.4523210582340695  1.0000
  O   O1        1.0  0.05680707985994359  0.6650475216432241  0.0829096793534916  1.0000
  O   O2        1.0  0.4432007172537312  0.1650458102770571  0.9170884441916769  1.0000
  O   O3        1.0  0.9432028052449724  0.33494045916736337  0.9170919663462911  1.0000
  O   O4        1.0  0.556802813328801  0.8349350456306723  0.0829074054033399  1.0000
  O   O5        1.0  0.9113247349959579  0.3933879671018872  0.10715492985337251  1.0000
  O   O6        1.0  0.5886611962900263  0.8933838290966705  0.8928442766656346  1.0000
  O   O7        1.0  0.08869344751516195  0.6066035761434705  0.8928502303972436  1.0000
  O   O8        1.0  0.4113284262384838  0.10660058931800619  0.1071526072987581  1.0000
  O   O9        1.0  0.29500497352420757  0.4390334282441799  0.0525529589389819  1.0000
  O   O10       1.0  0.20498233861668072  0.9390332379102304  0.9474438318896149  1.0000
  O   O11       1.0  0.7050099226985297  0.5609604899880694  0.9474504511297185  1.0000
  O   O12       1.0  0.7950087907810897  0.060955930449246416  0.0525553620039432  1.0000
