data_image0
_chemical_formula_structural       Zn8H88C100N4O26
_chemical_formula_sum              "Zn8 H88 C100 N4 O26"
_cell_length_a       13.730160627332962
_cell_length_b       13.72190730554258
_cell_length_c       24.55958997022407
_cell_angle_alpha    89.99970413025794
_cell_angle_beta     90.00038986382987
_cell_angle_gamma    90.01773426802315

_space_group_name_H-M_alt    "P 1"
_space_group_IT_number       1

loop_
  _space_group_symop_operation_xyz
  'x, y, z'

loop_
  _atom_site_type_symbol
  _atom_site_label
  _atom_site_symmetry_multiplicity
  _atom_site_fract_x
  _atom_site_fract_y
  _atom_site_fract_z
  _atom_site_occupancy
  Zn  Zn1       1.0  0.258133287506304  0.1330575609719986  0.7037856652506633  1.0000
  Zn  Zn2       1.0  0.241962826378014  0.366958404638808  0.7037930341151081  1.0000
  Zn  Zn3       1.0  0.866656233733643  0.7587638907251987  0.20360737719399674  1.0000
  Zn  Zn4       1.0  0.633305917563817  0.7412156313814935  0.20360736540434482  1.0000
  Zn  Zn5       1.0  0.7417711030781788  0.8667509885598577  0.29554540820280545  1.0000
  Zn  Zn6       1.0  0.7582154746092017  0.6332422610310715  0.2955457755809546  1.0000
  Zn  Zn7       1.0  0.13309830279000323  0.2422201291812272  0.7955099284986173  1.0000
  Zn  Zn8       1.0  0.3670215004979554  0.25777094147699137  0.795503429486885  1.0000
  H   H1        1.0  0.871293345204343  0.08603477760131278  0.7743678830850838  1.0000
  H   H2        1.0  0.6288268968083842  0.413964781027275  0.7743421119962118  1.0000
  H   H3        1.0  0.9132546911664717  0.37210951256976427  0.2734414358156981  1.0000
  H   H4        1.0  0.5866511474708034  0.1278101157160449  0.27349654119640826  1.0000
  H   H5        1.0  0.1277933710447243  0.9153047765791701  0.22433084706118928  1.0000
  H   H6        1.0  0.37221567668302674  0.5846626251252902  0.224312651101222  1.0000
  H   H7        1.0  0.0871795471398755  0.6300122096599453  0.7256428885267638  1.0000
  H   H8        1.0  0.41290188129305966  0.8700044884748268  0.7256236188845901  1.0000
  H   H9        1.0  0.7289523323994231  0.9837095167220866  0.7473902997545918  1.0000
  H   H10       1.0  0.7711737485464524  0.5162693669778947  0.747356443187108  1.0000
  H   H11       1.0  0.015485499838739302  0.2295852302664159  0.24670577221548473  1.0000
  H   H12       1.0  0.48445501124072615  0.2703620683410933  0.24675994593720665  1.0000
  H   H13       1.0  0.27041471977094744  0.017182620746155005  0.2514020813412329  1.0000
  H   H14       1.0  0.2295608170285135  0.4828265849062491  0.2513744599859677  1.0000
  H   H15       1.0  0.984457042740033  0.7720291968158008  0.7525776594797121  1.0000
  H   H16       1.0  0.5155693214362672  0.7279518095677348  0.7525703155499313  1.0000
  H   H17       1.0  0.9107464070729636  0.8290235360875615  0.6333510981100401  1.0000
  H   H18       1.0  0.5893433366648467  0.6710117839245484  0.6333560069331837  1.0000
  H   H19       1.0  0.1713326811693037  0.4113929176801748  0.13310659798492705  1.0000
  H   H20       1.0  0.32861082562750005  0.0886013456805728  0.13312812777998317  1.0000
  H   H21       1.0  0.0895381549063359  0.17068231508798704  0.3663688263550284  1.0000
  H   H22       1.0  0.4103492030068097  0.3293695374963336  0.3664062614165572  1.0000
  H   H23       1.0  0.8300336238203772  0.5894987969666446  0.8664394639951707  1.0000
  H   H24       1.0  0.6700516566759802  0.9104454546617263  0.8664248536478991  1.0000
  H   H25       1.0  0.05191462828342  0.9323884914717979  0.6602467504480313  1.0000
  H   H26       1.0  0.4481689231853069  0.5676586917659919  0.6602602448989429  1.0000
  H   H27       1.0  0.0679422350366679  0.5527587431429879  0.15972227724207497  1.0000
  H   H28       1.0  0.4319531373296853  0.9472092391369173  0.15975456914763694  1.0000
  H   H29       1.0  0.9481572983937384  0.06754251388451141  0.33953058467013614  1.0000
  H   H30       1.0  0.55175300010157  0.43247197078552096  0.339578979930394  1.0000
  H   H31       1.0  0.9338014085823758  0.4485768470503261  0.8395460928850154  1.0000
  H   H32       1.0  0.5663203496216555  0.05139222886000281  0.8395300852253695  1.0000
  H   H33       1.0  0.6711708251553786  0.8795996078577275  0.6496118342175305  1.0000
  H   H34       1.0  0.828947516113658  0.6204049580221566  0.6496084358825767  1.0000
  H   H35       1.0  0.12020740274490288  0.17152541301494745  0.14957047579520116  1.0000
  H   H36       1.0  0.37978510176198205  0.32846724785232334  0.14960616810986235  1.0000
  H   H37       1.0  0.32875908189216574  0.120376561419036  0.34958731501668433  1.0000
  H   H38       1.0  0.1711557496176752  0.37968565370241686  0.3495833844043617  1.0000
  H   H39       1.0  0.8790359007819647  0.8297806401654668  0.84960301832389  1.0000
  H   H40       1.0  0.6209661468193916  0.6701681270758685  0.8495913559259447  1.0000
  H   H41       1.0  0.6850507903654447  0.8132929098361572  0.709900421872355  1.0000
  H   H42       1.0  0.8150544434015572  0.6866957916049615  0.7099020730761934  1.0000
  H   H43       1.0  0.18608175657746537  0.1858365479723645  0.20996450418817147  1.0000
  H   H44       1.0  0.3138590405414731  0.31414097036489613  0.2099841070722447  1.0000
  H   H45       1.0  0.3148361488424456  0.18670365804364053  0.289314606994651  1.0000
  H   H46       1.0  0.18507066685941004  0.31336057160955016  0.2893096987747795  1.0000
  H   H47       1.0  0.8132123890136357  0.8145585606977122  0.7892712887957598  1.0000
  H   H48       1.0  0.6868078601855672  0.6853820229769026  0.7892671623511444  1.0000
  H   H49       1.0  0.7203686268427347  0.9080897932744847  0.5678865810944342  1.0000
  H   H50       1.0  0.7797669277376685  0.5919075157744446  0.5678948855141711  1.0000
  H   H51       1.0  0.0909957428053332  0.2261368557977264  0.06796189444137468  1.0000
  H   H52       1.0  0.4090540341290918  0.27384855343552067  0.06799256204269707  1.0000
  H   H53       1.0  0.2789181569481515  0.09179882503511291  0.4313186746353279  1.0000
  H   H54       1.0  0.2209699886545877  0.4082407660434841  0.4313295097297426  1.0000
  H   H55       1.0  0.9077495556979471  0.7809576735919777  0.9313581726504763  1.0000
  H   H56       1.0  0.5922476657812866  0.7190318750535596  0.9313572539963456  1.0000
  H   H57       1.0  0.7333538648216803  0.9926717260711656  0.4443567344510412  1.0000
  H   H58       1.0  0.7667801764158496  0.5072531220104038  0.444350981947501  1.0000
  H   H59       1.0  0.019266016622992797  0.2710673024047878  0.9530774474622914  1.0000
  H   H60       1.0  0.4808148935889421  0.2287729063452915  0.9531484207064193  1.0000
  H   H61       1.0  0.26639173991041093  0.007028938052386002  0.5558607543056266  1.0000
  H   H62       1.0  0.2335518121549356  0.4929861877607565  0.5558632497668298  1.0000
  H   H63       1.0  0.0005917778149609  0.7626394412351445  0.05762934447928099  1.0000
  H   H64       1.0  0.49933152204356196  0.7375612372198147  0.05764905995576439  1.0000
  H   H65       1.0  0.7732209370199002  0.08209915303098825  0.39653891861939866  1.0000
  H   H66       1.0  0.7263535808067445  0.41799054286244813  0.3965896497618642  1.0000
  H   H67       1.0  0.9282669808489461  0.2585416224737004  0.901725325530563  1.0000
  H   H68       1.0  0.5717441201849384  0.24155585090890946  0.9017771965872182  1.0000
  H   H69       1.0  0.2267715436440909  0.9174353916899707  0.603667984350359  1.0000
  H   H70       1.0  0.2731700201299887  0.5825802281419357  0.6036701833037412  1.0000
  H   H71       1.0  0.0941740560166835  0.7277212475670324  0.10420038295764299  1.0000
  H   H72       1.0  0.4056521675148091  0.772173633318474  0.10423389293393368  1.0000
  H   H73       1.0  0.8349039755273042  0.0692443031933294  0.4603841758147737  1.0000
  H   H74       1.0  0.6648658412558887  0.43123326140250373  0.46047005896615884  1.0000
  H   H75       1.0  0.9021835639431262  0.32700009212493353  0.9621687760333513  1.0000
  H   H76       1.0  0.5980081567767073  0.1730268884873993  0.9621728974937722  1.0000
  H   H77       1.0  0.16484161610886622  0.93036963804213  0.5398866527194102  1.0000
  H   H78       1.0  0.3350831520886431  0.5696662465369331  0.5398801668247016  1.0000
  H   H79       1.0  0.0814466877558075  0.6648864692179616  0.04068065905642019  1.0000
  H   H80       1.0  0.41822947661866994  0.8351335948772274  0.040742131087604584  1.0000
  H   H81       1.0  0.7148724203251079  0.11991912641618539  0.45818880516305416  1.0000
  H   H82       1.0  0.7846328899149171  0.37992512396679257  0.45821299412875033  1.0000
  H   H83       1.0  0.9140817933931373  0.19725173249244682  0.9655021029575078  1.0000
  H   H84       1.0  0.585880541990619  0.30274675967491055  0.9655847967922423  1.0000
  H   H85       1.0  0.2849511175613628  0.87980195557698  0.5419248546175907  1.0000
  H   H86       1.0  0.21496201816361804  0.6202069440675049  0.5419344599776463  1.0000
  H   H87       1.0  0.12596623201653054  0.7874353578594863  0.04193384568226579  1.0000
  H   H88       1.0  0.3740252934322896  0.7124688706066207  0.0419360544872873  1.0000
  C   C1        1.0  0.05563181680065551  0.07646761302298441  0.7343445033114975  1.0000
  C   C2        1.0  0.44446904000757576  0.42355754420062663  0.7343492228821018  1.0000
  C   C3        1.0  0.9237038369224352  0.5564923894016545  0.23374468069708593  1.0000
  C   C4        1.0  0.5761843845720378  0.9434387436764028  0.2337845866984266  1.0000
  C   C5        1.0  0.943958799282491  0.9242000979419984  0.2649898256914937  1.0000
  C   C6        1.0  0.556027404651701  0.5757781305190336  0.2650079114459912  1.0000
  C   C7        1.0  0.0771228768929859  0.445047842466913  0.7651865482109199  1.0000
  C   C8        1.0  0.42301039747178504  0.0549544426275688  0.7651645592408227  1.0000
  C   C9        1.0  0.9702939242791331  0.0147024015080177  0.7192353319433733  1.0000
  C   C10       1.0  0.5298139980042437  0.4853209861190209  0.7192321873992995  1.0000
  C   C11       1.0  0.9852338757044662  0.4711042326436117  0.21854882011770366  1.0000
  C   C12       1.0  0.5146669299295681  0.028844325042939503  0.21859090681971335  1.0000
  C   C13       1.0  0.029297421189170305  0.9859755126273699  0.280013897905718  1.0000
  C   C14       1.0  0.4706700658122642  0.5140227035059367  0.2800292612571268  1.0000
  C   C15       1.0  0.015811352067146303  0.5305373300086629  0.7805786664086227  1.0000
  C   C16       1.0  0.4843071571719123  0.969457730970362  0.7805577535621281  1.0000
  C   C17       1.0  0.8789951529481642  0.029381451099958204  0.7435624975588407  1.0000
  C   C18       1.0  0.6211232579012815  0.4706183925535897  0.7435389771056221  1.0000
  C   C19       1.0  0.9701173675695641  0.3797485900903085  0.2427793762113807  1.0000
  C   C20       1.0  0.5298026677398512  0.12019100099350769  0.24282492210812726  1.0000
  C   C21       1.0  0.12036972137718752  0.9715507672198671  0.25538175897488447  1.0000
  C   C22       1.0  0.37961275913919224  0.5284367480379188  0.2553784113270225  1.0000
  C   C23       1.0  0.03049088613034461  0.6220211667903113  0.7563900481095158  1.0000
  C   C24       1.0  0.4695916413844828  0.8779755701840845  0.7563677139441861  1.0000
  C   C25       1.0  0.7998374379743113  0.972166060241719  0.728229707967145  1.0000
  C   C26       1.0  0.7002884110711703  0.5278195597136275  0.728202063047149  1.0000
  C   C27       1.0  0.027301028587224607  0.30051314857180966  0.22758444505768685  1.0000
  C   C28       1.0  0.47263852376229204  0.19944817351622388  0.22762656274812085  1.0000
  C   C29       1.0  0.1996701450743146  0.0284885217703064  0.2707573023945925  1.0000
  C   C30       1.0  0.3002917893323841  0.47152268871926134  0.27074586264477307  1.0000
  C   C31       1.0  0.9730282427809273  0.7010306485719794  0.7716798503480504  1.0000
  C   C32       1.0  0.5270209314022338  0.7989487269273141  0.7716654236702993  1.0000
  C   C33       1.0  0.8107310838385615  0.8991248758027125  0.688668912771078  1.0000
  C   C34       1.0  0.6893840911646691  0.600882971699029  0.6886548599558747  1.0000
  C   C35       1.0  0.10069783230837001  0.3114204062829558  0.18826388004834627  1.0000
  C   C36       1.0  0.3992550813278156  0.18854929847274352  0.18829842059129479  1.0000
  C   C37       1.0  0.18907869011315634  0.10110998507083478  0.3105742105376591  1.0000
  C   C38       1.0  0.31084586004008935  0.3989292724893049  0.3105768639191807  1.0000
  C   C39       1.0  0.8997755976140241  0.6898005714198518  0.8110720785306212  1.0000
  C   C40       1.0  0.6002762384271351  0.8101653219396568  0.8110558625829254  1.0000
  C   C41       1.0  0.9018507886307321  0.8850973112391073  0.6643832775150854  1.0000
  C   C42       1.0  0.598252441394017  0.6149326221366352  0.6643822740528049  1.0000
  C   C43       1.0  0.11501387941224551  0.40256239802336324  0.16397998308563894  1.0000
  C   C44       1.0  0.3849227164981103  0.09741190172483978  0.16400780949492594  1.0000
  C   C45       1.0  0.09815415144318962  0.1149685059486742  0.33511555100319856  1.0000
  C   C46       1.0  0.4017568586056016  0.38506760707359416  0.3351385419059483  1.0000
  C   C47       1.0  0.8860502113972971  0.5985945398029029  0.8354137952647701  1.0000
  C   C48       1.0  0.6140295955541931  0.9013623872772457  0.8354010336626698  1.0000
  C   C49       1.0  0.9810292629187602  0.942472514069614  0.6793705665634631  1.0000
  C   C50       1.0  0.5190639539363674  0.5575645665466951  0.6793726841508131  1.0000
  C   C51       1.0  0.057653272229551106  0.48182960370058225  0.17881876975947356  1.0000
  C   C52       1.0  0.44225946728990817  0.018130708429836804  0.1788503000846617  1.0000
  C   C53       1.0  0.0188649964942655  0.057750698378974605  0.3201563564491891  1.0000
  C   C54       1.0  0.48106549352786493  0.4422666083757037  0.32018599936166936  1.0000
  C   C55       1.0  0.9436745074158636  0.5195627655235596  0.8204528568776082  1.0000
  C   C56       1.0  0.5564320672971945  0.9804052357002108  0.8204384269076852  1.0000
  C   C57       1.0  0.7242379684558813  0.8365072900958453  0.6729943094515959  1.0000
  C   C58       1.0  0.7758813840689385  0.66348831423025  0.6729913993943125  1.0000
  C   C59       1.0  0.16324587135730442  0.22477092135077473  0.17291207599328115  1.0000
  C   C60       1.0  0.33672652233322964  0.27521204636936863  0.17293554250062465  1.0000
  C   C61       1.0  0.27568029351827056  0.16351989053539026  0.32623944938536903  1.0000
  C   C62       1.0  0.2242284261796499  0.33653379475349965  0.32623421635616257  1.0000
  C   C63       1.0  0.8364875149157386  0.7760199726620269  0.8263729851806969  1.0000
  C   C64       1.0  0.6635310007047579  0.7239224534139909  0.8263645874531632  1.0000
  C   C65       1.0  0.7500824593033997  0.7500018485914383  0.5868138912699405  1.0000
  C   C66       1.0  0.25001808402345926  0.2499911585420165  0.08687127330969699  1.0000
  C   C67       1.0  0.24993485472087676  0.2500253473421026  0.4124259753493859  1.0000
  C   C68       1.0  0.750000680822467  0.7499937688941145  0.9124862663475495  1.0000
  C   C69       1.0  0.7329003262893535  0.8344190971017654  0.5531963191434811  1.0000
  C   C70       1.0  0.7672481605996924  0.6655856376577206  0.5531978490395699  1.0000
  C   C71       1.0  0.16508148824708976  0.23573743635908787  0.05327977327968369  1.0000
  C   C72       1.0  0.3349724792448114  0.2642430082455718  0.05329552823844348  1.0000
  C   C73       1.0  0.2667112966998745  0.16551256826448932  0.44604313966812  1.0000
  C   C74       1.0  0.23317557067024103  0.33452324246109544  0.446047311483859  1.0000
  C   C75       1.0  0.8342481018632952  0.767786251014556  0.9460948612352166  1.0000
  C   C76       1.0  0.665742019723922  0.7322301242201092  0.946094591631265  1.0000
  C   C77       1.0  0.7383196217348313  0.8072417454579934  0.49977039519293226  1.0000
  C   C78       1.0  0.7618668174783139  0.6927678625417639  0.49977915540475226  1.0000
  C   C79       1.0  0.19257267708104564  0.24016963608765005  0.9998725770287887  1.0000
  C   C80       1.0  0.30752921606037387  0.2598078787388971  0.999881318233768  1.0000
  C   C81       1.0  0.2614587998626945  0.19277083828494315  0.49946580643636185  1.0000
  C   C82       1.0  0.23847387114977184  0.30725209579267704  0.49946763378024867  1.0000
  C   C83       1.0  0.8071983518125238  0.7622002313584204  0.9995244557192817  1.0000
  C   C84       1.0  0.6927844157201407  0.7378666611777973  0.9995271231467125  1.0000
  C   C85       1.0  0.7639631746462356  0.06600864763262142  0.43996350906353127  1.0000
  C   C86       1.0  0.735780841245422  0.4340748422545389  0.4400032357998781  1.0000
  C   C87       1.0  0.9409284893364787  0.2636585566459003  0.9457049038710249  1.0000
  C   C88       1.0  0.5591341116669568  0.23632628808540804  0.945753891499997  1.0000
  C   C89       1.0  0.23586326668669244  0.9336453883344048  0.5602368786514302  1.0000
  C   C90       1.0  0.26406757352697957  0.5663771909601536  0.5602370537547186  1.0000
  C   C91       1.0  0.0755124738730046  0.7357633593320191  0.061019240355307085  1.0000
  C   C92       1.0  0.42434456004437493  0.7642448843369182  0.06104999421605579  1.0000
  C   C93       1.0  0.7500729173394304  0.7499958985156568  0.4550372612777806  1.0000
  C   C94       1.0  0.2500554096159817  0.24999661749737362  0.9550926087472502  1.0000
  C   C95       1.0  0.24996478682380294  0.25001089506776003  0.5442412868372698  1.0000
  C   C96       1.0  0.7499932251107354  0.7500458869602298  0.0442160701334089  1.0000
  C   C97       1.0  0.7500565301967584  0.7499939867512848  0.39521052954108155  1.0000
  C   C98       1.0  0.25005650144733244  0.24999033595685927  0.8952467399227967  1.0000
  C   C99       1.0  0.24998481359286734  0.24999896080864653  0.6040928561490444  1.0000
  C   C100      1.0  0.7500299987431943  0.7500062625739049  0.10401918593925068  1.0000
  N   N1        1.0  0.7500609454372268  0.7500023182625241  0.6420420119606546  1.0000
  N   N2        1.0  0.24999729946757301  0.2499989160501954  0.14207618513478334  1.0000
  N   N3        1.0  0.24993743244785097  0.2500263322258434  0.3572059980789674  1.0000
  N   N4        1.0  0.7500090796025918  0.7499590453643776  0.8572646604479173  1.0000
  O   O1        1.0  0.13475204548048234  0.060265758971866  0.7087082557611877  1.0000
  O   O2        1.0  0.36534995497302  0.4397508907043672  0.7087187350681885  1.0000
  O   O3        1.0  0.9399204111171856  0.6357041240324862  0.20814726467786213  1.0000
  O   O4        1.0  0.5599434631931999  0.8642184971738871  0.20819710906214076  1.0000
  O   O5        1.0  0.8650678975308068  0.9397737932505024  0.29098764413676287  1.0000
  O   O6        1.0  0.6348814867837973  0.5602595744288977  0.29104434918703237  1.0000
  O   O7        1.0  0.060483846056918415  0.3656589545337923  0.7905315164695423  1.0000
  O   O8        1.0  0.4396657602989506  0.13434819972163584  0.7904995902049874  1.0000
  O   O9        1.0  0.042523397690580104  0.14057384809662213  0.7714158519085641  1.0000
  O   O10       1.0  0.4575837354188081  0.35944440787693577  0.7714232489741729  1.0000
  O   O11       1.0  0.8598083775136021  0.5433085032837327  0.2708995143006233  1.0000
  O   O12       1.0  0.6401087013679855  0.9566295778170826  0.2709249674422195  1.0000
  O   O13       1.0  0.9568757488743671  0.8606192717067458  0.22763630513911431  1.0000
  O   O14       1.0  0.5431369399722784  0.6393031923523297  0.22761547740250873  1.0000
  O   O15       1.0  0.14115962349389832  0.4581800080567433  0.7281001200015991  1.0000
  O   O16       1.0  0.35894843771318824  0.04182698915105481  0.7280885114653939  1.0000
  O   O17       1.0  0.7262329335316622  0.8300536202956933  0.3723394659614953  1.0000
  O   O18       1.0  0.7738856776919365  0.6699498699399484  0.3723292006067282  1.0000
  O   O19       1.0  0.16943267470133355  0.22825940794480462  0.8724103244139197  1.0000
  O   O20       1.0  0.33067786400651766  0.2717112724295773  0.8724113831776561  1.0000
  O   O21       1.0  0.27319294902014957  0.1697599566604495  0.6269586255671837  1.0000
  O   O22       1.0  0.2268155561622862  0.3302297427489478  0.626972557379261  1.0000
  O   O23       1.0  0.8299863237534595  0.7741347131776878  0.12685559672684116  1.0000
  O   O24       1.0  0.6700819630091105  0.725877601687273  0.12686757696494058  1.0000
  O   O25       1.0  0.2500497915840256  0.2500012116677794  0.7496868993446452  1.0000
  O   O26       1.0  0.7499820845081971  0.7499968359715866  0.2495704757799827  1.0000
