data_image0
_chemical_formula_structural       Al2H10C21S2N2O14
_chemical_formula_sum              "Al2 H10 C21 S2 N2 O14"
_cell_length_a       6.625409808716914
_cell_length_b       11.198865426971423
_cell_length_c       12.771838197202479
_cell_angle_alpha    80.95414190168468
_cell_angle_beta     73.90658416655371
_cell_angle_gamma    71.5930180809065

_space_group_name_H-M_alt    "P 1"
_space_group_IT_number       1

loop_
  _space_group_symop_operation_xyz
  'x, y, z'

loop_
  _atom_site_type_symbol
  _atom_site_label
  _atom_site_symmetry_multiplicity
  _atom_site_fract_x
  _atom_site_fract_y
  _atom_site_fract_z
  _atom_site_occupancy
  Al  Al1       1.0  0.480679315059547  0.5057282369526206  0.4988052370972795  1.0000
  Al  Al2       1.0  0.9786882569152696  0.5098603934277576  0.49751908832787006  1.0000
  H   H1        1.0  0.2724978092665751  0.35497375342419696  0.5583396287934548  1.0000
  H   H2        1.0  0.7616356502205974  0.5804192567248309  0.3653925682687528  1.0000
  H   H3        1.0  0.6437350191994186  0.6109786149811923  0.13442417252080216  1.0000
  H   H4        1.0  0.25150985681656124  0.24307337663162087  0.35118284331853994  1.0000
  H   H5        1.0  0.48588808326989863  0.773176067966425  0.3811936558301952  1.0000
  H   H6        1.0  0.727562343200205  0.8871228776814494  0.5748570754151601  1.0000
  H   H7        1.0  0.614315207584262  0.1229573045301677  0.5684784194610374  1.0000
  H   H8        1.0  0.30745013164507634  0.3816836456447917  0.7761167125360586  1.0000
  H   H9        1.0  0.0868293732934263  0.46250154221678486  0.8774851868830639  1.0000
  H   H10       1.0  0.264126184320979  0.3174843599526014  0.9160746700056137  1.0000
  C   C1        1.0  0.8496702853963427  0.2795673741049641  0.4882085961565181  1.0000
  C   C2        1.0  0.6303055614923708  0.5147927246599553  0.6921397987912031  1.0000
  C   C3        1.0  0.12230998570879598  0.732546827440956  0.4992708196818895  1.0000
  C   C4        1.0  0.32491243228061273  0.5141734230104403  0.3005449996837157  1.0000
  C   C5        1.0  0.3991923441916114  0.473088016666722  0.884772319154159  1.0000
  C   C6        1.0  0.5398267402960144  0.568981270194577  0.10851655413577527  1.0000
  C   C7        1.0  0.5582119620446662  0.5215498004632054  0.8107154762478858  1.0000
  C   C8        1.0  0.38267305014853986  0.5197113855433885  0.1812745576617587  1.0000
  C   C9        1.0  0.5428974654554252  0.5560035160704332  0.999826941022306  1.0000
  C   C10       1.0  0.3919555578627226  0.49470286370898736  0.9922896461448757  1.0000
  C   C11       1.0  0.9299859518885258  0.1397486648060351  0.48014678775399483  1.0000
  C   C12       1.0  0.1487722820568607  0.07554455261028181  0.4257243868678131  1.0000
  C   C13       1.0  0.7819919181876642  0.07170523652846582  0.5303363254543427  1.0000
  C   C14       1.0  0.29954490803771716  0.14038180848879026  0.36032741755241193  1.0000
  C   C15       1.0  0.5033035205608414  0.0745542059992985  0.3034862932729538  1.0000
  C   C16       1.0  0.05950424269956074  0.8735205915419184  0.4888972388905586  1.0000
  C   C17       1.0  0.8453139191753963  0.9394289268594136  0.5343954234456945  1.0000
  C   C18       1.0  0.21443662281519246  0.9399188281924326  0.4312492992763381  1.0000
  C   C19       1.0  0.42868178992153366  0.875521613930758  0.3741879230188445  1.0000
  C   C20       1.0  0.5696856986070815  0.9408316195775726  0.3115648976979557  1.0000
  C   C21       1.0  0.25898557773486175  0.40413054187626324  0.8613657154004953  1.0000
  S   S1        1.0  0.6934534175585015  0.5915887287217958  0.8719162753742751  1.0000
  S   S2        1.0  0.2386233177460896  0.45826482376742206  0.11887144311167218  1.0000
  N   N1        1.0  0.6380834759416487  0.14679149480110712  0.2241340756345522  1.0000
  N   N2        1.0  0.7950108590319617  0.8672896807411093  0.26275432032382173  1.0000
  O   O1        1.0  0.6538859236904956  0.3328273456337314  0.4799629390315446  1.0000
  O   O2        1.0  0.8134306071504938  0.5367538065523265  0.6437053826104417  1.0000
  O   O3        1.0  0.9892221120136854  0.6815130070606586  0.48244036681866476  1.0000
  O   O4        1.0  0.4540725251912292  0.5357691540009526  0.34841163890082066  1.0000
  O   O5        1.0  0.3035807222041668  0.6750297326926359  0.5238610465862479  1.0000
  O   O6        1.0  0.14489958542142037  0.4877144561035535  0.3484698862028496  1.0000
  O   O7        1.0  0.978690747086894  0.3328657268647391  0.507001737960742  1.0000
  O   O8        1.0  0.5086709035454149  0.4857822474303219  0.6444198982969169  1.0000
  O   O9        1.0  0.23553421994692778  0.44615336925880206  0.5458898647510324  1.0000
  O   O10       1.0  0.728231960126742  0.5630361577073658  0.44438407652958023  1.0000
  O   O11       1.0  0.6641630870587177  0.23815442457731711  0.2562273826963448  1.0000
  O   O12       1.0  0.7075642053238127  0.11243609261698852  0.1299957014890651  1.0000
  O   O13       1.0  0.8226115082845243  0.7609689808347324  0.2347771158655121  1.0000
  O   O14       1.0  0.9432783135011814  0.9152727283388988  0.2562852188157621  1.0000
