data_image0
_chemical_formula_structural       Cu4H20C16N8O12
_chemical_formula_sum              "Cu4 H20 C16 N8 O12"
_cell_length_a       6.897285034041751
_cell_length_b       9.605103071494131
_cell_length_c       9.887217846086704
_cell_angle_alpha    89.99952827669942
_cell_angle_beta     89.99998851407594
_cell_angle_gamma    101.87684382319664

_space_group_name_H-M_alt    "P 1"
_space_group_IT_number       1

loop_
  _space_group_symop_operation_xyz
  'x, y, z'

loop_
  _atom_site_type_symbol
  _atom_site_label
  _atom_site_symmetry_multiplicity
  _atom_site_fract_x
  _atom_site_fract_y
  _atom_site_fract_z
  _atom_site_occupancy
  Cu  Cu1       1.0  0.6566521071945529  0.818054558538016  0.7208890419387755  1.0000
  Cu  Cu2       1.0  0.343349788284904  0.681947946074395  0.22088747365263114  1.0000
  Cu  Cu3       1.0  0.34335286928884295  0.18194929627276926  0.27911619076112254  1.0000
  Cu  Cu4       1.0  0.6566502281232048  0.3180537821342498  0.779110679208017  1.0000
  H   H1        1.0  0.6295454410419055  0.2860110470095236  0.03754628555550709  1.0000
  H   H2        1.0  0.370457143414221  0.21398990287485023  0.5375537762137768  1.0000
  H   H3        1.0  0.37046976105543905  0.7139981249698977  0.962455912901859  1.0000
  H   H4        1.0  0.6295375299964618  0.7860033149293884  0.462457524970773  1.0000
  H   H5        1.0  0.6948211930814097  0.4759060356071032  0.9863695562022767  1.0000
  H   H6        1.0  0.3051716039951771  0.024086708602737903  0.48638039440027814  1.0000
  H   H7        1.0  0.3051878271895204  0.5240967542200464  0.013624551026253998  1.0000
  H   H8        1.0  0.6948232199583871  0.9758969334811242  0.5136218041612395  1.0000
  H   H9        1.0  0.9949404440601414  0.43415621008114164  0.8673382507363313  1.0000
  H   H10       1.0  0.005066821148211902  0.06585141016987708  0.3673366379767629  1.0000
  H   H11       1.0  0.005075213997464775  0.5658444500042064  0.13266900478979687  1.0000
  H   H12       1.0  0.9949293794710455  0.9341471271310196  0.6326625263038179  1.0000
  H   H13       1.0  0.8415618565953195  0.11493532488449892  0.9379964325751615  1.0000
  H   H14       1.0  0.1584371137487892  0.3850738032785443  0.43799222323654863  1.0000
  H   H15       1.0  0.15842717279152643  0.8850685341342128  0.06200576590475748  1.0000
  H   H16       1.0  0.8415735842483728  0.6149247302491929  0.5619978383816928  1.0000
  H   H17       1.0  0.0348168624827849  0.1865701406704261  0.8227059063564538  1.0000
  H   H18       1.0  0.9651931277297833  0.3134368079562933  0.32269816687325903  1.0000
  H   H19       1.0  0.9651851370748686  0.8134283950829159  0.17729831495822165  1.0000
  H   H20       1.0  0.03481558709557221  0.6865649179599415  0.6773009973939138  1.0000
  C   C1        1.0  0.7190349500035255  0.3678196221000647  0.9743757187469839  1.0000
  C   C2        1.0  0.280962235865573  0.1321934420193926  0.474378603913486  1.0000
  C   C3        1.0  0.2809739197289716  0.6321927434608199  0.025624456883974692  1.0000
  C   C4        1.0  0.7190285487003293  0.8678114805199967  0.5256205603414656  1.0000
  C   C5        1.0  0.8874496588971538  0.34464705532409573  0.908708192328113  1.0000
  C   C6        1.0  0.11255229685781391  0.15536232996797855  0.4087038235195236  1.0000
  C   C7        1.0  0.11256058310858205  0.6553599900042001  0.09129805176551997  1.0000
  C   C8        1.0  0.8874407763135962  0.8446404640581945  0.5912892723027666  1.0000
  C   C9        1.0  0.9623851364119744  0.20684225812050275  0.9176738575946005  1.0000
  C   C10       1.0  0.037617709346044075  0.2931702398794441  0.41767242476126387  1.0000
  C   C11       1.0  0.03760854762535359  0.7931626636517848  0.08232631806709627  1.0000
  C   C12       1.0  0.9623855894244783  0.7068378712708352  0.5823277508871454  1.0000
  C   C13       1.0  0.10815577737304242  0.21086499438145984  0.023998815615826192  1.0000
  C   C14       1.0  0.8918479911630754  0.28913501061405356  0.5239854281206673  1.0000
  C   C15       1.0  0.8918528599757424  0.7891314116434387  0.9760155197758491  1.0000
  C   C16       1.0  0.10816881121211712  0.710864585259216  0.47600867912047556  1.0000
  N   N1        1.0  0.2217211074840861  0.21316908674091914  0.1113246818378002  1.0000
  N   N2        1.0  0.7782746227038116  0.28683334324454524  0.6113194133153143  1.0000
  N   N3        1.0  0.7782739488383541  0.7868305148343994  0.8886734710316514  1.0000
  N   N4        1.0  0.22173515896700738  0.7131619985816257  0.3886787395707926  1.0000
  N   N5        1.0  0.38409488170896117  0.9747549251149011  0.7949952108945268  1.0000
  N   N6        1.0  0.6159006919508557  0.5252458646302713  0.2949888209967141  1.0000
  N   N7        1.0  0.6159018523278377  0.025240420125378197  0.20500698761954791  1.0000
  N   N8        1.0  0.3840827664888522  0.4747537400223649  0.7050032634320047  1.0000
  O   O1        1.0  0.3801319720871775  0.8461691240236605  0.7513616166020467  1.0000
  O   O2        1.0  0.61986342414815  0.653830985989771  0.251366322279999  1.0000
  O   O3        1.0  0.61986300676611  0.1538251576825829  0.24864665035758543  1.0000
  O   O4        1.0  0.3801259106560765  0.3461739368552514  0.7486500358916999  1.0000
  O   O5        1.0  0.22454047484656312  0.010898340423224802  0.8192465869870699  1.0000
  O   O6        1.0  0.7754522791986177  0.48909906744975734  0.31924553177013587  1.0000
  O   O7        1.0  0.7754603804127883  0.9891012596000834  0.18075763432334915  1.0000
  O   O8        1.0  0.2245268299990784  0.5109005382488832  0.6807688036097658  1.0000
  O   O9        1.0  0.5515080674146587  0.05682265157186352  0.810459285191129  1.0000
  O   O10       1.0  0.4484846349860944  0.44316951392956855  0.3104404225866303  1.0000
  O   O11       1.0  0.44849301584189044  0.9431726925556134  0.18953583347472147  1.0000
  O   O12       1.0  0.5514968359783836  0.556813067929113  0.6895091828227676  1.0000
