data_image0
_chemical_formula_structural       Gd2H44C36N2O14
_chemical_formula_sum              "Gd2 H44 C36 N2 O14"
_cell_length_a       8.565198431453242
_cell_length_b       10.38242481097894
_cell_length_c       11.89821941016198
_cell_angle_alpha    66.43247288482846
_cell_angle_beta     75.04873065033335
_cell_angle_gamma    86.06981575687168

_space_group_name_H-M_alt    "P 1"
_space_group_IT_number       1

loop_
  _space_group_symop_operation_xyz
  'x, y, z'

loop_
  _atom_site_type_symbol
  _atom_site_label
  _atom_site_symmetry_multiplicity
  _atom_site_fract_x
  _atom_site_fract_y
  _atom_site_fract_z
  _atom_site_occupancy
  Gd  Gd1       1.0  0.7052784126889121  0.5828630752170839  0.35820894103823525  1.0000
  Gd  Gd2       1.0  0.2947217904809706  0.4171372606981691  0.6417922064778026  1.0000
  H   H1        1.0  0.051599724380309894  0.8945834150841276  0.42201997994698814  1.0000
  H   H2        1.0  0.9484016868571317  0.10541694053051029  0.577977574300654  1.0000
  H   H3        1.0  0.8609451825630713  0.07332036879892458  0.23001430887603652  1.0000
  H   H4        1.0  0.1390550203859959  0.9266799829372798  0.7699843118073063  1.0000
  H   H5        1.0  0.09923208643817821  0.1569657700934073  0.350790574463261  1.0000
  H   H6        1.0  0.9007693736737323  0.8430356371259012  0.6492066080245138  1.0000
  H   H7        1.0  0.927282787751352  0.2533018760552466  0.30779061210806463  1.0000
  H   H8        1.0  0.0727174151977152  0.746698475680958  0.6922080085752784  1.0000
  H   H9        1.0  0.09415364812137028  0.24427974962659957  0.18900228735719796  1.0000
  H   H10       1.0  0.9058465547540989  0.7557206073832533  0.8109954910485871  1.0000
  H   H11       1.0  0.5022539414400383  0.8423735955071193  0.9851663497702394  1.0000
  H   H12       1.0  0.4977462128553754  0.15762568880346348  0.014835169505666128  1.0000
  H   H13       1.0  0.2379952420628797  0.8420573465170236  0.21611394682837937  1.0000
  H   H14       1.0  0.7620024464869032  0.15794089952662202  0.7838867079685417  1.0000
  H   H15       1.0  0.18101631363000337  0.059420450773480085  0.02777226879526752  1.0000
  H   H16       1.0  0.8189838407390153  0.9405788282634475  0.9722300927582029  1.0000
  H   H17       1.0  0.07551196436436672  0.9061489664878054  0.05378720229451531  1.0000
  H   H18       1.0  0.9244882387319108  0.09385137470109581  0.9462131029439578  1.0000
  H   H19       1.0  0.2550878202938662  0.9691907414794728  0.9273594224595743  1.0000
  H   H20       1.0  0.7449124316768801  0.0308106513140984  0.07264051101902427  1.0000
  H   H21       1.0  0.36605920446957185  0.15336094376082338  0.4872662781958824  1.0000
  H   H22       1.0  0.6339410474275693  0.8466404543064032  0.512732813005151  1.0000
  H   H23       1.0  0.5984729391230063  0.20278829529102183  0.22798100699334617  1.0000
  H   H24       1.0  0.4015260556112921  0.7972120472931011  0.7720195224032624  1.0000
  H   H25       1.0  0.33803929713569403  0.96673091169086  0.41179286604540993  1.0000
  H   H26       1.0  0.6619609058133805  0.033269440045344795  0.5882057546379402  1.0000
  H   H27       1.0  0.5215496952411272  0.9419384551911423  0.31115436617393766  1.0000
  H   H28       1.0  0.47844934829402763  0.05806294427130611  0.6888449491852316  1.0000
  H   H29       1.0  0.37035792590032207  0.0417032147648158  0.24339513822696557  1.0000
  H   H30       1.0  0.6296411176348399  0.9582981846976252  0.7566041771322036  1.0000
  H   H31       1.0  0.0850393092517479  0.48033263614657773  0.3677101441156482  1.0000
  H   H32       1.0  0.9149608449700608  0.5196666534376463  0.6322905328826991  1.0000
  H   H33       1.0  0.34600628249094  0.44130072672044923  0.2438261591013885  1.0000
  H   H34       1.0  0.6539927122433582  0.5586996158636736  0.7561743702952202  1.0000
  H   H35       1.0  0.16319553434099987  0.6292464493350425  0.909825690776998  1.0000
  H   H36       1.0  0.8368046686816727  0.3707538971275071  0.0901737721839099  1.0000
  H   H37       1.0  0.9027454936779692  0.6611772281398486  0.050469197133878825  1.0000
  H   H38       1.0  0.0972547094183085  0.3388231130490524  0.9495311081045872  1.0000
  H   H39       1.0  0.42346427492643096  0.5330804365298931  0.8872755058270985  1.0000
  H   H40       1.0  0.5765359280962415  0.46691990993265614  0.11272395713380938  1.0000
  H   H41       1.0  0.7069048056030025  0.33786514503078285  0.593755464650755  1.0000
  H   H42       1.0  0.29309534861880593  0.6621341445534485  0.40624521234759225  1.0000
  H   H43       1.0  0.9003254085168066  0.359409739776666  0.5351802365858307  1.0000
  H   H44       1.0  0.09967479457947089  0.6405906014122351  0.46482006865264225  1.0000
  C   C1        1.0  0.885093061391096  0.8035917408150652  0.3582457214205095  1.0000
  C   C2        1.0  0.11490834999355569  0.19640860425226248  0.6417535173822628  1.0000
  C   C3        1.0  0.9690365896811527  0.9217867885725965  0.36036016751378247  1.0000
  C   C4        1.0  0.0309636620687783  0.07821462004192628  0.639637239132121  1.0000
  C   C5        1.0  0.9447998443390943  0.056128244248689896  0.28983221336288534  1.0000
  C   C6        1.0  0.0552003585363749  0.9438721127611629  0.7101655650428924  1.0000
  C   C7        1.0  0.0209656761345371  0.1828126552545513  0.2854831827125324  1.0000
  C   C8        1.0  0.979034575615387  0.8171887533599785  0.714514223933378  1.0000
  C   C9        1.0  0.5287909022468539  0.7356985075296978  0.1777614041521361  1.0000
  C   C10       1.0  0.471210558233075  0.2643028733213556  0.8222399897234569  1.0000
  C   C11       1.0  0.44024790778650674  0.8200783080924837  0.08373580348455095  1.0000
  C   C12       1.0  0.5597521976344454  0.1799199246134222  0.9162660875512288  1.0000
  C   C13       1.0  0.2929469970807901  0.867886216832936  0.11546543063079187  1.0000
  C   C14       1.0  0.7070531570674204  0.1321130780249433  0.8845344040899904  1.0000
  C   C15       1.0  0.19742506613995664  0.9541553751550896  0.025624876356083244  1.0000
  C   C16       1.0  0.8025750880082542  0.04584391970279001  0.974374958364699  1.0000
  C   C17       1.0  0.5373090355653858  0.33426828996115887  0.38456000156879366  1.0000
  C   C18       1.0  0.46269111865643  0.6657309996230651  0.6154406754295537  1.0000
  C   C19       1.0  0.46149543270909993  0.20273076774812893  0.40097599807791806  1.0000
  C   C20       1.0  0.5385024025376808  0.7972706278358858  0.5990243837169518  1.0000
  C   C21       1.0  0.5029038031640168  0.14741246687390233  0.31320210658240916  1.0000
  C   C22       1.0  0.4970951915702813  0.8525878757102203  0.6867984228141993  1.0000
  C   C23       1.0  0.42850326530198407  0.0177872482595376  0.3216703902486914  1.0000
  C   C24       1.0  0.5714957293587092  0.9822130995982336  0.6783292968703523  1.0000
  C   C25       1.0  0.10522041137044617  0.5131591587430647  0.26596188869164916  1.0000
  C   C26       1.0  0.8947797428513624  0.4868401308411594  0.7340387883066981  1.0000
  C   C27       1.0  0.2528324691534891  0.4918649478848708  0.19559879672749503  1.0000
  C   C28       1.0  0.7471676850683268  0.5081343416993603  0.8044018802708522  1.0000
  C   C29       1.0  0.2789659758332164  0.5340964527891928  0.06410553035559735  1.0000
  C   C30       1.0  0.7210354356250406  0.46590388700448676  0.9358945507247398  1.0000
  C   C31       1.0  0.14985230977572425  0.5963941518224942  0.011199976215280613  1.0000
  C   C32       1.0  0.850146684958574  0.4036061907616286  0.988800553181328  1.0000
  C   C33       1.0  0.005313320923583795  0.6138679121871817  0.08857844091835437  1.0000
  C   C34       1.0  0.9946868821726937  0.38613242900171946  0.9114218643201187  1.0000
  C   C35       1.0  0.4298601024861952  0.516679267457441  0.9824970957501907  1.0000
  C   C36       1.0  0.5701400517356134  0.48332002212678293  0.017503581248149755  1.0000
  N   N1        1.0  0.9810897939323837  0.5729052132880099  0.21481205941555012  1.0000
  N   N2        1.0  0.0189104091638939  0.4270951279008912  0.7851882458229228  1.0000
  O   O1        1.0  0.9160206819032767  0.6760182780026724  0.4244288884531146  1.0000
  O   O2        1.0  0.08397952111939591  0.32398206845987687  0.5755705745077933  1.0000
  O   O3        1.0  0.7806919467549136  0.8257392040284017  0.2934390327511169  1.0000
  O   O4        1.0  0.2193069990313177  0.1742600922246993  0.706561026127801  1.0000
  O   O5        1.0  0.6708399535039006  0.6973499456322828  0.14107983190344708  1.0000
  O   O6        1.0  0.32915904130400264  0.30265039167819197  0.8589215397707266  1.0000
  O   O7        1.0  0.4663589842672308  0.699690362603171  0.29763275799826533  1.0000
  O   O8        1.0  0.5336411700281829  0.3003089217074049  0.7023687612776403  1.0000
  O   O9        1.0  0.6636658809247605  0.3906182721183242  0.29661437584142203  1.0000
  O   O10       1.0  0.3363354327109605  0.6093799697396564  0.7033856064810922  1.0000
  O   O11       1.0  0.47156169690705946  0.3955032253831233  0.4601913524981926  1.0000
  O   O12       1.0  0.52843855506368  0.6044981674104549  0.539808580980406  1.0000
  O   O13       1.0  0.7939602363562341  0.37814434026167026  0.5132089445918953  1.0000
  O   O14       1.0  0.20603991786557427  0.6218549493225609  0.48679173240645224  1.0000
