data_image0
_chemical_formula_structural       Ni2H28C32N4O8
_chemical_formula_sum              "Ni2 H28 C32 N4 O8"
_cell_length_a       8.186471054253387
_cell_length_b       8.80787612922048
_cell_length_c       11.25317898412428
_cell_angle_alpha    93.09405299418206
_cell_angle_beta     109.7136612613575
_cell_angle_gamma    94.6595090938235

_space_group_name_H-M_alt    "P 1"
_space_group_IT_number       1

loop_
  _space_group_symop_operation_xyz
  'x, y, z'

loop_
  _atom_site_type_symbol
  _atom_site_label
  _atom_site_symmetry_multiplicity
  _atom_site_fract_x
  _atom_site_fract_y
  _atom_site_fract_z
  _atom_site_occupancy
  Ni  Ni1       1.0  0.5187745047482224  0.6474237303275673  0.7572638570142161  1.0000
  Ni  Ni2       1.0  0.48122568571412233  0.35257460997216583  0.2427362130655268  1.0000
  H   H1        1.0  0.14443449863866686  0.702230583724358  0.6746489534525821  1.0000
  H   H2        1.0  0.8555670110124113  0.2977677441772784  0.3253461106674962  1.0000
  H   H3        1.0  0.9418606676817165  0.8057154893573965  0.7774200891084676  1.0000
  H   H4        1.0  0.058140974034465415  0.19428398438268596  0.222575942571595  1.0000
  H   H5        1.0  0.38359443033597534  0.9045642486053113  0.12182198856255164  1.0000
  H   H6        1.0  0.6164025518876814  0.09543979752552903  0.8781757406816268  1.0000
  H   H7        1.0  0.5675006379331721  0.7962521817986784  0.005691172485725867  1.0000
  H   H8        1.0  0.4325002342151763  0.20375187315998738  0.9943084082304524  1.0000
  H   H9        1.0  0.9101777667858215  0.8401844111111884  0.9990129436477845  1.0000
  H   H10       1.0  0.08981909049289531  0.15981848433676762  0.0009820423152433015  1.0000
  H   H11       1.0  0.09489413890474209  0.9337165588183544  0.12531029153065995  1.0000
  H   H12       1.0  0.9051040233223875  0.06628633392037389  0.8746832399150223  1.0000
  H   H13       1.0  0.36098021149398823  0.47090024081266074  0.5117021215465698  1.0000
  H   H14       1.0  0.6390186740199512  0.5290981021963005  0.48829940305052594  1.0000
  H   H15       1.0  0.15261838784270051  0.24327521016720507  0.41895136245742043  1.0000
  H   H16       1.0  0.8473777628294672  0.7567219875773362  0.5810503278932302  1.0000
  H   H17       1.0  0.1323604730709746  0.1805515025202951  0.7921623167654914  1.0000
  H   H18       1.0  0.86764140429478  0.8194502822744241  0.20784275291916296  1.0000
  H   H19       1.0  0.3464072624089596  0.41258173022173134  0.8719512506763181  1.0000
  H   H20       1.0  0.6535948897672483  0.5874223389832308  0.12805309054657238  1.0000
  H   H21       1.0  0.9563067343369342  0.004446667873466501  0.6231537538968015  1.0000
  H   H22       1.0  0.04369253669207752  0.9955551199174978  0.376853336961986  1.0000
  H   H23       1.0  0.8566823728914272  0.10600114248834563  0.49190562607754634  1.0000
  H   H24       1.0  0.14331547180429996  0.8939994949067441  0.5080992881568704  1.0000
  H   H25       1.0  0.03728926432369659  0.44334963526695503  0.8803328006506915  1.0000
  H   H26       1.0  0.9627115006801008  0.5566532568977466  0.11965959748144436  1.0000
  H   H27       1.0  0.6243959093026847  0.10729807094071483  0.6126242199005177  1.0000
  H   H28       1.0  0.37560309403603753  0.8927014275955687  0.3873818236988811  1.0000
  C   C1        1.0  0.1915833981086835  0.7494765412408244  0.7732433248606796  1.0000
  C   C2        1.0  0.8084168101540644  0.2505217869478217  0.22675230591617182  1.0000
  C   C3        1.0  0.08092214621180462  0.8074702990537191  0.8301591193008805  1.0000
  C   C4        1.0  0.9190782012362037  0.1925291701289424  0.16983570331478862  1.0000
  C   C5        1.0  0.14680306126670217  0.8624019162473004  0.9583911893915128  1.0000
  C   C6        1.0  0.8531957099825223  0.1375952688121345  0.04160492834270006  1.0000
  C   C7        1.0  0.32536939272201704  0.8597616955741217  0.02279929643960094  1.0000
  C   C8        1.0  0.6746283412690846  0.14023778144921553  0.9771993230713536  1.0000
  C   C9        1.0  0.428229010793878  0.8010535390246789  0.9589955530792551  1.0000
  C   C10       1.0  0.5717713224138166  0.1989459398468512  0.0410028209787328  1.0000
  C   C11       1.0  0.027951387341722984  0.9217953617326485  0.02222640715839931  1.0000
  C   C12       1.0  0.9720478050233725  0.0782052438866074  0.9777663982317082  1.0000
  C   C13       1.0  0.3092115143255257  0.402721821532417  0.5714179594296525  1.0000
  C   C14       1.0  0.6907883906461407  0.5972742416237297  0.4285855026936077  1.0000
  C   C15       1.0  0.18989306124377245  0.2748435735348451  0.5200541587890015  1.0000
  C   C16       1.0  0.8101033571186849  0.7251559134643771  0.4799485788210447  1.0000
  C   C17       1.0  0.11948522229570811  0.19142802459009542  0.59724279778208  1.0000
  C   C18       1.0  0.8805124903349226  0.8085714669665477  0.4027611488923526  1.0000
  C   C19       1.0  0.18049735313308446  0.24114324398802725  0.7265701124932917  1.0000
  C   C20       1.0  0.8195069878240774  0.7588573992386571  0.273434632039006  1.0000
  C   C21       1.0  0.30058089285994083  0.37016305895894425  0.7720927380566495  1.0000
  C   C22       1.0  0.6994234445371463  0.629837586689959  0.2279128943362282  1.0000
  C   C23       1.0  0.9794669513068187  0.059457656117544395  0.5441361567702216  1.0000
  C   C24       1.0  0.020530886268758784  0.9405429861219828  0.4558705331853475  1.0000
  C   C25       1.0  0.7927069376165576  0.5388144074206237  0.8652362642204494  1.0000
  C   C26       1.0  0.20729614111314026  0.4611862094486838  0.13475928050223732  1.0000
  C   C27       1.0  0.964972233545879  0.49068601040470833  0.936507804472285  1.0000
  C   C28       1.0  0.035033994021297615  0.5093191771332783  0.0634860378738935  1.0000
  C   C29       1.0  0.5435664173912117  0.0030775834050019006  0.5625612998303993  1.0000
  C   C30       1.0  0.45643286075795697  0.9969241995415176  0.4374440153072213  1.0000
  C   C31       1.0  0.5387982537230869  0.8708174430313635  0.6370284832811492  1.0000
  C   C32       1.0  0.46120322388727436  0.12918090667022852  0.3629745715841466  1.0000
  N   N1        1.0  0.36302161129980004  0.7452518013840362  0.8367102998394245  1.0000
  N   N2        1.0  0.636978861093155  0.2547488184815094  0.16328726605738816  1.0000
  N   N3        1.0  0.363035642735035  0.45102819087065177  0.6955472875815758  1.0000
  N   N4        1.0  0.6369648118575173  0.5489724411059812  0.3044547176181354  1.0000
  O   O1        1.0  0.6925997349610072  0.5834286796619066  0.9243079121590938  1.0000
  O   O2        1.0  0.3074086635867347  0.4165730940088822  0.0756907727993976  1.0000
  O   O3        1.0  0.7461521241132946  0.5414610851608048  0.7451092638919263  1.0000
  O   O4        1.0  0.25384562411812084  0.4585383821736642  0.254885804176709  1.0000
  O   O5        1.0  0.4255077267432697  0.7546468440726529  0.589932864158186  1.0000
  O   O6        1.0  0.5744925922241036  0.2453526444877525  0.4100690613421207  1.0000
  O   O7        1.0  0.6499229557330679  0.8733509191102655  0.7492319516221784  1.0000
  O   O8        1.0  0.3500772240490448  0.1266474284561241  0.2507707820393037  1.0000
