data_image0
_chemical_formula_structural       Nd4H24C24N36
_chemical_formula_sum              "Nd4 H24 C24 N36"
_cell_length_a       9.491010891033634
_cell_length_b       9.491009328553208
_cell_length_c       13.007314037427701
_cell_angle_alpha    92.19536192983297
_cell_angle_beta     92.19553987764495
_cell_angle_gamma    119.80041063191504

_space_group_name_H-M_alt    "P 1"
_space_group_IT_number       1

loop_
  _space_group_symop_operation_xyz
  'x, y, z'

loop_
  _atom_site_type_symbol
  _atom_site_label
  _atom_site_symmetry_multiplicity
  _atom_site_fract_x
  _atom_site_fract_y
  _atom_site_fract_z
  _atom_site_occupancy
  Nd  Nd1       1.0  0.5226794403395232  0.25751705972158595  0.42697743757248946  1.0000
  Nd  Nd2       1.0  0.7424843271003639  0.47732117861342277  0.07302259329959783  1.0000
  Nd  Nd3       1.0  0.4773225863705477  0.7424859955954376  0.573023479349182  1.0000
  Nd  Nd4       1.0  0.257516924149293  0.5226782223681359  0.9269774340212539  1.0000
  H   H1        1.0  0.9612434896337733  0.9933249355494953  0.400918668318859  1.0000
  H   H2        1.0  0.006675401418796393  0.038755526518087904  0.09908249122491244  1.0000
  H   H3        1.0  0.038756269526345505  0.006675691810990302  0.5990836581531058  1.0000
  H   H4        1.0  0.9933258498308601  0.9612438744634633  0.9009175360959392  1.0000
  H   H5        1.0  0.9022694165399372  0.238193040784772  0.3351977554377826  1.0000
  H   H6        1.0  0.7618071223556983  0.0977297574631848  0.16480265437564875  1.0000
  H   H7        1.0  0.09772972968514175  0.7618063657867611  0.6648029834287572  1.0000
  H   H8        1.0  0.23819368636241475  0.9022708641496638  0.835198162963032  1.0000
  H   H9        1.0  0.772452688323348  0.701466065945397  0.7697115741879162  1.0000
  H   H10       1.0  0.2985326936347761  0.22754661675022458  0.7302880277707334  1.0000
  H   H11       1.0  0.22754750745972535  0.2985333348784992  0.2302876555453396  1.0000
  H   H12       1.0  0.7014691685803953  0.7724540030518557  0.2697128182485785  1.0000
  H   H13       1.0  0.8654180482170446  0.46808661091431264  0.7291001455050934  1.0000
  H   H14       1.0  0.5319108090480144  0.13457841620824246  0.7708966367994566  1.0000
  H   H15       1.0  0.13458003466333665  0.5319127876258207  0.2708967201459914  1.0000
  H   H16       1.0  0.46808650034147803  0.8654173299648564  0.22910010815777335  1.0000
  H   H17       1.0  0.3672012065987573  0.05819827696605983  0.007819319050057106  1.0000
  H   H18       1.0  0.9418002574726643  0.6328006333449925  0.492179948174723  1.0000
  H   H19       1.0  0.632801096178426  0.9418011202362923  0.9921799680444752  1.0000
  H   H20       1.0  0.05819949380934014  0.3671999861417562  0.5078193026693898  1.0000
  H   H21       1.0  0.1653133546632829  0.8766390904265368  0.1597651366858558  1.0000
  H   H22       1.0  0.1233596049322044  0.8346898834164949  0.34023455526929086  1.0000
  H   H23       1.0  0.834684567661249  0.12335787653552192  0.840233195876799  1.0000
  H   H24       1.0  0.8766413663112901  0.16531317174286647  0.6597655640647846  1.0000
  C   C1        1.0  0.8612757316758106  0.014878563547398504  0.4142693358796309  1.0000
  C   C2        1.0  0.9851208758494322  0.138723184967752  0.08573125363199813  1.0000
  C   C3        1.0  0.13872552351290335  0.9851208413710217  0.5857322292551503  1.0000
  C   C4        1.0  0.014878266436589406  0.8612762176669124  0.9142679474206193  1.0000
  C   C5        1.0  0.8318413879422338  0.13635525490445136  0.3813084193470433  1.0000
  C   C6        1.0  0.8636434892285789  0.1681563166115083  0.11869194726396873  1.0000
  C   C7        1.0  0.16815836727882774  0.8636453685191656  0.618692369310992  1.0000
  C   C8        1.0  0.13635670852402626  0.8318430861808184  0.8813080513762447  1.0000
  C   C9        1.0  0.7347844806765522  0.6093710644115833  0.7067685194451915  1.0000
  C   C10       1.0  0.39062976886005885  0.2652127259780174  0.7932311434724827  1.0000
  C   C11       1.0  0.2652142171083938  0.3906295568859408  0.2932307027182831  1.0000
  C   C12       1.0  0.6093708655154941  0.7347854502777127  0.20676575842902178  1.0000
  C   C13       1.0  0.7813102813770171  0.4936589614662737  0.6863837776997033  1.0000
  C   C14       1.0  0.5063396603031692  0.21869222490161636  0.8136169219405079  1.0000
  C   C15       1.0  0.2186903608766571  0.5063392226631936  0.31361619982964584  1.0000
  C   C16       1.0  0.4936629754028843  0.7813120472674984  0.18638404477266599  1.0000
  C   C17       1.0  0.38084364217479555  0.07978255099059345  0.09083625029354891  1.0000
  C   C18       1.0  0.9202168175014477  0.6191585319025422  0.4091638085950964  1.0000
  C   C19       1.0  0.6191559446123023  0.9202156329812116  0.9091629296482042  1.0000
  C   C20       1.0  0.0797835447460642  0.3808433064047352  0.5908362609474767  1.0000
  C   C21       1.0  0.28028772738682045  0.9902677906442894  0.16658201438207249  1.0000
  C   C22       1.0  0.009730345533462505  0.7197143088990859  0.3334168622749446  1.0000
  C   C23       1.0  0.7197141308892868  0.009732825220922302  0.833417293823324  1.0000
  C   C24       1.0  0.9902683522514836  0.28028631239843804  0.6665823598885299  1.0000
  N   N1        1.0  0.690282050299544  0.11053667546698885  0.41897556746792486  1.0000
  N   N2        1.0  0.889463707863122  0.30971711365120314  0.08102552138229412  1.0000
  N   N3        1.0  0.30971814745306137  0.889462727325338  0.5810244311722885  1.0000
  N   N4        1.0  0.11053649185901547  0.6902822911095614  0.9189752461648839  1.0000
  N   N5        1.0  0.6360139582340808  0.9783993249601228  0.4727421798216513  1.0000
  N   N6        1.0  0.021600276225299746  0.3639858471954015  0.027258629802823016  1.0000
  N   N7        1.0  0.3639857950174559  0.02160129649506361  0.5272578399294192  1.0000
  N   N8        1.0  0.9783988680302543  0.6360135574076938  0.972741340156752  1.0000
  N   N9        1.0  0.7366334241696748  0.918097268333682  0.4713792830060515  1.0000
  N   N10       1.0  0.08190323667795239  0.2633667943777099  0.028620975954780213  1.0000
  N   N11       1.0  0.2633679935444206  0.08190457013125753  0.5286215841241246  1.0000
  N   N12       1.0  0.9180952966120941  0.7366313914048633  0.9713781753063349  1.0000
  N   N13       1.0  0.6958427649994903  0.4056647447068472  0.5988098503326145  1.0000
  N   N14       1.0  0.594334431010914  0.30415373385695704  0.9011883970546253  1.0000
  N   N15       1.0  0.3041542663533717  0.5943346576124925  0.40118775554479685  1.0000
  N   N16       1.0  0.40566559830772764  0.6958432294835576  0.09880999286929894  1.0000
  N   N17       1.0  0.6019195833158334  0.4657469067430995  0.5675362311087542  1.0000
  N   N18       1.0  0.5342540220801553  0.3980777384023357  0.9324626809363256  1.0000
  N   N19       1.0  0.3980780609720611  0.5342537163651928  0.43246296237407494  1.0000
  N   N20       1.0  0.46574872716762866  0.6019204421055876  0.06753735395430742  1.0000
  N   N21       1.0  0.6230386650398573  0.589420359907024  0.631020581000307  1.0000
  N   N22       1.0  0.4105799529422711  0.37695957706587546  0.868980529615172  1.0000
  N   N23       1.0  0.3769606456801356  0.4105814821794528  0.36898022876858527  1.0000
  N   N24       1.0  0.5894225202384007  0.6230422615567265  0.13102113510260696  1.0000
  N   N25       1.0  0.3541927470054703  0.06949458938337473  0.258915601502956  1.0000
  N   N26       1.0  0.930504885908867  0.6458090755435608  0.24108366338370507  1.0000
  N   N27       1.0  0.6458057843150442  0.9305035944307679  0.7410827808511942  1.0000
  N   N28       1.0  0.06949486734266229  0.3541915459116255  0.7589163563673724  1.0000
  N   N29       1.0  0.49375335734993087  0.20146315579898305  0.23950923397072196  1.0000
  N   N30       1.0  0.7985375312066837  0.5062484751743173  0.2604908416292489  1.0000
  N   N31       1.0  0.5062462314066992  0.7985350301412598  0.7604907148779889  1.0000
  N   N32       1.0  0.20146327554189725  0.4937521444701008  0.739509206802467  1.0000
  N   N33       1.0  0.512922715099549  0.21128954444112943  0.13838097816397985  1.0000
  N   N34       1.0  0.7887117770876841  0.4870793552653297  0.3616183630061159  1.0000
  N   N35       1.0  0.4870785341805827  0.7887098545719912  0.8616182802499142  1.0000
  N   N36       1.0  0.21128858515982776  0.5129224830419475  0.638381706536457  1.0000
