data_image0
_chemical_formula_structural       Zr6H58C88N10O32F4
_chemical_formula_sum              "Zr6 H58 C88 N10 O32 F4"
_cell_length_a       19.068481868987863
_cell_length_b       19.064111160821188
_cell_length_c       19.064264081841802
_cell_angle_alpha    59.97506884334503
_cell_angle_beta     59.99201730567743
_cell_angle_gamma    59.99141312601033

_space_group_name_H-M_alt    "P 1"
_space_group_IT_number       1

loop_
  _space_group_symop_operation_xyz
  'x, y, z'

loop_
  _atom_site_type_symbol
  _atom_site_label
  _atom_site_symmetry_multiplicity
  _atom_site_fract_x
  _atom_site_fract_y
  _atom_site_fract_z
  _atom_site_occupancy
  Zr  Zr1       1.0  0.9077915833794776  0.4064799621181549  0.5923661566498666  1.0000
  Zr  Zr2       1.0  0.09334798339378379  0.5919246323421916  0.40695075556913446  1.0000
  Zr  Zr3       1.0  0.09326301049230785  0.40689407620683243  0.5925032030781593  1.0000
  Zr  Zr4       1.0  0.9073325040046214  0.5920448670513353  0.4073739348140324  1.0000
  Zr  Zr5       1.0  0.9077069812189081  0.5920680020831668  0.5925378460623278  1.0000
  Zr  Zr6       1.0  0.09322968513332357  0.4065606514903663  0.40700586401547406  1.0000
  H   H1        1.0  0.9276045998107351  0.4262831065420516  0.7188493350988239  1.0000
  H   H2        1.0  0.9272955586026582  0.718399347929342  0.42671602676556125  1.0000
  H   H3        1.0  0.21930182478676838  0.4265892567642382  0.42681968825394273  1.0000
  H   H4        1.0  0.9272851722049253  0.4264245924311112  0.4270003976011765  1.0000
  H   H5        1.0  0.29024295665867317  0.6324772445116196  0.14773177085213973  1.0000
  H   H6        1.0  0.6439522507920332  0.434193980707171  0.7876850696920528  1.0000
  H   H7        1.0  0.7200101587894638  0.561771558621622  0.8573701524769889  1.0000
  H   H8        1.0  0.5939396522117447  0.5545287834231797  0.9932829442221801  1.0000
  H   H9        1.0  0.3592047757602971  0.3601761084788961  0.21724789085566706  1.0000
  H   H10       1.0  0.4955924581403864  0.35931379740762986  0.09185451541689113  1.0000
  H   H11       1.0  0.13400809483039924  0.7874727899025302  0.434404627734807  1.0000
  H   H12       1.0  0.9294533674878239  0.14736979853528004  0.6326687034469813  1.0000
  H   H13       1.0  0.06311276882240692  0.21712869754645686  0.3603468816252117  1.0000
  H   H14       1.0  0.052961961017445054  0.09179692361532689  0.35937338434526106  1.0000
  H   H15       1.0  0.8607129212540058  0.8570132081897274  0.5620924315187211  1.0000
  H   H16       1.0  0.8579930031963272  0.9930840780108954  0.5546360553330986  1.0000
  H   H17       1.0  0.28690997954217323  0.14286759138205699  0.4359682971796417  1.0000
  H   H18       1.0  0.6440159629067854  0.7857103609140098  0.6340150664470843  1.0000
  H   H19       1.0  0.7202045199756102  0.8597280957048098  0.3599877533088574  1.0000
  H   H20       1.0  0.5946985289113229  0.9961176792729345  0.35888016893348873  1.0000
  H   H21       1.0  0.35938690858091615  0.21896349825867387  0.5611073407801612  1.0000
  H   H22       1.0  0.4959115446721539  0.09362221026848513  0.5515331609630179  1.0000
  H   H23       1.0  0.9364406381486108  0.6337416566882723  0.7859267637250369  1.0000
  H   H24       1.0  0.13442791750884447  0.4357318770146108  0.14323404064290904  1.0000
  H   H25       1.0  0.8606817424050988  0.5608132225629205  0.2192570259406211  1.0000
  H   H26       1.0  0.8591967758220704  0.5513828897000863  0.09376022791859383  1.0000
  H   H27       1.0  0.060272999103723676  0.3596953410038709  0.8601231548730083  1.0000
  H   H28       1.0  0.05062224577615381  0.35873570721404496  0.9963777555166118  1.0000
  H   H29       1.0  0.1155007223613255  0.8187095202161172  0.1760808845040955  1.0000
  H   H30       1.0  0.8911250781752924  0.8174899197907237  0.1755974399022408  1.0000
  H   H31       1.0  0.8897564336189419  0.1755620094074574  0.819133824509997  1.0000
  H   H32       1.0  0.11577030322082042  0.17514265720550531  0.8179625751789102  1.0000
  H   H33       1.0  0.2864027026830698  0.4358042825044209  0.6339921916322097  1.0000
  H   H34       1.0  0.643772751329152  0.6335662161069776  0.4362780515022635  1.0000
  H   H35       1.0  0.720027355447712  0.3595448656410267  0.5601082804210974  1.0000
  H   H36       1.0  0.5942808789747149  0.3584780638895353  0.5507540848271759  1.0000
  H   H37       1.0  0.36024487698414726  0.5596691316761166  0.35998102328837683  1.0000
  H   H38       1.0  0.49640389112501315  0.5503650397360358  0.3588895297588053  1.0000
  H   H39       1.0  0.468469727251808  0.6530017171986343  0.9470683836204966  1.0000
  H   H40       1.0  0.37356766182998075  0.705500628905149  0.009044227634568448  1.0000
  H   H41       1.0  0.4541297789347  0.41812615297645556  0.9776946829330838  1.0000
  H   H42       1.0  0.518723372845443  0.39282910783870745  0.8853602113131271  1.0000
  H   H43       1.0  0.149770654256116  0.9776517837907761  0.41814001914812576  1.0000
  H   H44       1.0  0.20282571673562452  0.8853160965032741  0.39282464067551354  1.0000
  H   H45       1.0  0.9310308765057161  0.9469324092471039  0.6530876427578959  1.0000
  H   H46       1.0  0.9114627599487549  0.0089007010522549  0.7055824752171133  1.0000
  H   H47       1.0  0.47742678555820117  0.9529820304291405  0.4188253088244239  1.0000
  H   H48       1.0  0.38504709137139054  0.01752148074734808  0.3935058929729677  1.0000
  H   H49       1.0  0.45340806865380046  0.9755901830637584  0.6513657616409603  1.0000
  H   H50       1.0  0.5184382855469144  0.8835406398160403  0.7041643731285067  1.0000
  H   H51       1.0  0.9199128442551084  0.6512821861739154  0.9756560217816457  1.0000
  H   H52       1.0  0.8941033670348022  0.703977733073728  0.8836421124385866  1.0000
  H   H53       1.0  0.15105524609585794  0.4188619044802451  0.9531388816255841  1.0000
  H   H54       1.0  0.2041810535908085  0.3934161150617399  0.01775262201602613  1.0000
  H   H55       1.0  0.47638691471902234  0.41885882017022874  0.6512498196852049  1.0000
  H   H56       1.0  0.38368307051646877  0.3940292652190108  0.7042615038155517  1.0000
  H   H57       1.0  0.4534999271462325  0.6509186235791447  0.41921942600325923  1.0000
  H   H58       1.0  0.5180651083681199  0.7038576112890524  0.3944465992656561  1.0000
  C   C1        1.0  0.7641176479956118  0.5005778796829148  0.7343510534693751  1.0000
  C   C2        1.0  0.0008963755891644276  0.733934021608995  0.5010427245665738  1.0000
  C   C3        1.0  0.2354002724666416  0.4993924716063488  0.2633614467673837  1.0000
  C   C4        1.0  0.001815779919581984  0.26298002653717834  0.4997116774205067  1.0000
  C   C5        1.0  0.0029109909170728543  0.2603836316872972  0.7330113534146034  1.0000
  C   C6        1.0  0.7635374068545671  0.49959373727461553  0.5020228910465718  1.0000
  C   C7        1.0  0.00367410509144159  0.7325559351009615  0.26085313348207967  1.0000
  C   C8        1.0  0.23483609356036084  0.5015291251146508  0.5000436899300951  1.0000
  C   C9        1.0  0.0021252026849440412  0.49952965957020007  0.7345740057161619  1.0000
  C   C10       1.0  0.23462779772547293  0.2626231282346865  0.5020961170348102  1.0000
  C   C11       1.0  0.0006981971791546639  0.5017082071415118  0.26307368082935056  1.0000
  C   C12       1.0  0.7638439110571439  0.7341644949162998  0.4999481673980954  1.0000
  C   C13       1.0  0.31632350756475364  0.4972309380525388  0.18827925294810655  1.0000
  C   C14       1.0  0.688532501221111  0.49833703041043265  0.8148786959852214  1.0000
  C   C15       1.0  0.33516544753531713  0.5731045346212085  0.13363890539903175  1.0000
  C   C16       1.0  0.40928989773269114  0.5744023974223538  0.06050919139762096  1.0000
  C   C17       1.0  0.6317705966064012  0.46104339673506445  0.8331663440443435  1.0000
  C   C18       1.0  0.55827661894876  0.46039822109052864  0.9070785937380418  1.0000
  C   C19       1.0  0.6747861579730384  0.5335525392358137  0.8718722558304748  1.0000
  C   C20       1.0  0.60406621044023  0.5299383736990322  0.9469176927781007  1.0000
  C   C21       1.0  0.37358164923679027  0.41940760726730275  0.1731762509389512  1.0000
  C   C22       1.0  0.44869956819017903  0.4198164986976208  0.10262562687489654  1.0000
  C   C23       1.0  0.4674424393383986  0.4959545807080232  0.04427547946477977  1.0000
  C   C24       1.0  0.5444574421419048  0.4948994534000449  0.9658934228014217  1.0000
  C   C25       1.0  0.9981086790723667  0.8145912058102595  0.49862795170631125  1.0000
  C   C26       1.0  0.9980053657902774  0.18803033738139158  0.4974256433300538  1.0000
  C   C27       1.0  0.07384124031942471  0.8329743373201737  0.4612115402962687  1.0000
  C   C28       1.0  0.0740011648808192  0.9069739226020417  0.46044579565776184  1.0000
  C   C29       1.0  0.9579208435149054  0.1333685356072535  0.5732588272268656  1.0000
  C   C30       1.0  0.9555176771424672  0.06032722506824224  0.5744856004375337  1.0000
  C   C31       1.0  0.033598959397920736  0.1730206743102016  0.41955690443050025  1.0000
  C   C32       1.0  0.02859364268685743  0.1025148023547899  0.41990508189060444  1.0000
  C   C33       1.0  0.91961591544559  0.8716038677706948  0.5337804870277695  1.0000
  C   C34       1.0  0.9188299816453737  0.9467363400278827  0.5300452042635586  1.0000
  C   C35       1.0  0.9944803913324876  0.9657815504454846  0.4949253416308041  1.0000
  C   C36       1.0  0.992044157635874  0.04414762535777329  0.49600798694395815  1.0000
  C   C37       1.0  0.3153031618582531  0.18719602346295244  0.4993440030812053  1.0000
  C   C38       1.0  0.688436804658359  0.8148776657302363  0.4977441406600748  1.0000
  C   C39       1.0  0.33296609699455365  0.13057427691941828  0.4621701125200275  1.0000
  C   C40       1.0  0.4068847938132478  0.057121960303824326  0.46097203625648586  1.0000
  C   C41       1.0  0.6317158175039738  0.8320548294712397  0.574092873580348  1.0000
  C   C42       1.0  0.5580568608285577  0.9058184470392516  0.5751239169824701  1.0000
  C   C43       1.0  0.6748940928830649  0.8731761051247061  0.419431584939865  1.0000
  C   C44       1.0  0.6041602583811995  0.9482167262699831  0.4196479447643712  1.0000
  C   C45       1.0  0.37319800944652576  0.17367613639128618  0.5333188815112422  1.0000
  C   C46       1.0  0.4483607560440035  0.10309015295900541  0.5288004042712018  1.0000
  C   C47       1.0  0.4663496464527696  0.043280878417490926  0.4945593515237618  1.0000
  C   C48       1.0  0.5441934781940959  0.9656283518286273  0.4959533237912907  1.0000
  C   C49       1.0  0.9991350480074886  0.49745180280549317  0.8151780927407017  1.0000
  C   C50       1.0  0.9982982102349711  0.49906762490356005  0.18754224809772788  1.0000
  C   C51       1.0  0.9623537725458886  0.5738433718858287  0.8322823759316548  1.0000
  C   C52       1.0  0.9612834608786541  0.5749489764447161  0.9059811751641365  1.0000
  C   C53       1.0  0.07448270292422891  0.4619785127922284  0.1308839548344524  1.0000
  C   C54       1.0  0.07527637591854848  0.46087944337063647  0.057349937765401676  1.0000
  C   C55       1.0  0.919976110487667  0.5330704834650034  0.17396128785522083  1.0000
  C   C56       1.0  0.9199844461776293  0.528639593417722  0.10328550750352872  1.0000
  C   C57       1.0  0.032711918414527516  0.4191799444147364  0.8734992051959835  1.0000
  C   C58       1.0  0.028255764421743445  0.41947097499372177  0.9484741369390121  1.0000
  C   C59       1.0  0.9945245102690803  0.49581371150399167  0.9658202378492575  1.0000
  C   C60       1.0  0.9960927947794644  0.4944586518959396  0.043467072086414885  1.0000
  C   C61       1.0  0.06690387291055096  0.848033886417852  0.14629323040265535  1.0000
  C   C62       1.0  0.06717426091541513  0.9218436344466595  0.07309134847467662  1.0000
  C   C63       1.0  0.13057351782301646  0.961787915351266  0.03346632466993086  1.0000
  C   C64       1.0  0.9394792421110196  0.8475729279420108  0.146252063883779  1.0000
  C   C65       1.0  0.9381478510897309  0.9216017960715135  0.07329539291406927  1.0000
  C   C66       1.0  0.8742208114853794  0.9613759262588103  0.03395551001678862  1.0000
  C   C67       1.0  0.9387891923949926  0.14580390479731878  0.8484837715984169  1.0000
  C   C68       1.0  0.9378994499980351  0.07261266072009684  0.9223102580794915  1.0000
  C   C69       1.0  0.8742096286479535  0.03295898188976305  0.9622114703324197  1.0000
  C   C70       1.0  0.06667822778899785  0.14578828304569677  0.8480482617446228  1.0000
  C   C71       1.0  0.06692972174610652  0.07284052625861658  0.9220893462485972  1.0000
  C   C72       1.0  0.1304275270406238  0.03350786294306119  0.9618595978501786  1.0000
  C   C73       1.0  0.0035594672098895786  0.8113276912325275  0.18212879898684525  1.0000
  C   C74       1.0  0.0024945696170137486  0.9600555350795686  0.035060507116675466  1.0000
  C   C75       1.0  0.0029823145891328963  0.18166612404050403  0.811783851703481  1.0000
  C   C76       1.0  0.002381715343645492  0.03456987969502738  0.9605549531063743  1.0000
  C   C77       1.0  0.3154282734685126  0.4986839908014388  0.4977549220482159  1.0000
  C   C78       1.0  0.6880964032543346  0.49733471900630394  0.4991114343515904  1.0000
  C   C79       1.0  0.3326361344629093  0.4618695420647185  0.5740960487898618  1.0000
  C   C80       1.0  0.406369583148404  0.4607551774922243  0.5750967735697117  1.0000
  C   C81       1.0  0.63137935055245  0.5736752012982579  0.4622844653133598  1.0000
  C   C82       1.0  0.5577559000405827  0.5746876644996063  0.46115423416046036  1.0000
  C   C83       1.0  0.6745699173378981  0.4190063180800222  0.5327480330138314  1.0000
  C   C84       1.0  0.6037677610294593  0.4192373212011447  0.5283489673564504  1.0000
  C   C85       1.0  0.3736114834374718  0.5323533723682417  0.41942678349983  1.0000
  C   C86       1.0  0.44857788728992193  0.5279530955787237  0.4196534558398782  1.0000
  C   C87       1.0  0.46609050582951994  0.4940931565074039  0.4959354015631163  1.0000
  C   C88       1.0  0.543831077323013  0.49552530543514445  0.4945027545272608  1.0000
  N   N1        1.0  0.42533974050535056  0.6512538269497483  0.00690481725425244  1.0000
  N   N2        1.0  0.49870295240209134  0.431093425094403  0.9186651480880454  1.0000
  N   N3        1.0  0.15127500135935892  0.9186233418205346  0.4310846636004443  1.0000
  N   N4        1.0  0.9161234112254065  0.006768249522877825  0.6513108063861281  1.0000
  N   N5        1.0  0.4183670447918999  0.9975595318958668  0.43172305992891324  1.0000
  N   N6        1.0  0.49842999269027644  0.9167607541206308  0.6526049889802505  1.0000
  N   N7        1.0  0.9324954874678544  0.6524714623639695  0.9168447046956415  1.0000
  N   N8        1.0  0.1526208467473111  0.43168560597264627  0.9977753696559262  1.0000
  N   N9        1.0  0.4174613467928269  0.43176750672867564  0.6525443381145025  1.0000
  N   N10       1.0  0.4982277839472857  0.6521612830217761  0.43216473828038454  1.0000
  O   O1        1.0  0.7923322142090686  0.44345399698713095  0.7012395499747085  1.0000
  O   O2        1.0  0.06295796441023789  0.7007492377743888  0.4439941499443592  1.0000
  O   O3        1.0  0.20143451731987505  0.5617604310821988  0.2912843111121219  1.0000
  O   O4        1.0  0.9455604869474427  0.2908158915607472  0.562156738018963  1.0000
  O   O5        1.0  0.06296560555042433  0.29021217892876183  0.7023024296919543  1.0000
  O   O6        1.0  0.7913721115394664  0.5620283560601467  0.44564493697895124  1.0000
  O   O7        1.0  0.9445144344560037  0.7018353846064185  0.2906714441688791  1.0000
  O   O8        1.0  0.20094520668386204  0.4451630512798558  0.5625054983476119  1.0000
  O   O9        1.0  0.9456923963755345  0.5617429551297661  0.7007268884535379  1.0000
  O   O10       1.0  0.20098299863035143  0.2903724584671608  0.4455832701310952  1.0000
  O   O11       1.0  0.06309006821214086  0.4451622592318287  0.2908386634630488  1.0000
  O   O12       1.0  0.7918424659524704  0.700264977105256  0.5622192916359837  1.0000
  O   O13       1.0  0.20559907494676827  0.2946837353077356  0.5603341581659932  1.0000
  O   O14       1.0  0.9393860370393058  0.5598941870505241  0.2951804423523329  1.0000
  O   O15       1.0  0.7956127865040017  0.705347327715927  0.4385859981023331  1.0000
  O   O16       1.0  0.06049226630331375  0.4381224364616045  0.705804427301416  1.0000
  O   O17       1.0  0.9419312253265631  0.2917032959399535  0.7041264041417178  1.0000
  O   O18       1.0  0.20599086031310077  0.5597301282524897  0.43865587542081386  1.0000
  O   O19       1.0  0.062205432759519376  0.7036905732742582  0.2921830138647152  1.0000
  O   O20       1.0  0.7955514790150106  0.43820757345093836  0.5602401637326577  1.0000
  O   O21       1.0  0.060369052543343585  0.29457957311802124  0.43855835530202103  1.0000
  O   O22       1.0  0.7958433341160217  0.5591625112389026  0.7048866440685799  1.0000
  O   O23       1.0  0.9400523321625514  0.7044781635180823  0.5596597468154344  1.0000
  O   O24       1.0  0.20644235386374293  0.4382028593235461  0.29498488288609076  1.0000
  O   O25       1.0  0.948157288979722  0.44713860495927094  0.44767660235264367  1.0000
  O   O26       1.0  0.1570382849429848  0.4472126647320423  0.4475881877025217  1.0000
  O   O27       1.0  0.9484950116264484  0.6561237193516474  0.44694221580839155  1.0000
  O   O28       1.0  0.9484646770737302  0.44646794701768033  0.656574426095119  1.0000
  O   O29       1.0  0.038895933523164714  0.5378498269091595  0.5381495449254101  1.0000
  O   O30       1.0  0.8851247481801393  0.5376815467920295  0.5383168052247244  1.0000
  O   O31       1.0  0.038741559197156106  0.5379322773961449  0.384322432011416  1.0000
  O   O32       1.0  0.03902345863189536  0.3838659177708976  0.5383672275731257  1.0000
  F   F1        1.0  0.19214379286617606  0.0688872879486697  0.9267019909346029  1.0000
  F   F2        1.0  0.19267840777655462  0.9265315780234928  0.06845028647497757  1.0000
  F   F3        1.0  0.8124318501977685  0.06788468651492958  0.9268950638024975  1.0000
  F   F4        1.0  0.8123309384639585  0.9261743190174909  0.06930418926748431  1.0000
