data_image0
_chemical_formula_structural       Zn2H16C24N4O8
_chemical_formula_sum              "Zn2 H16 C24 N4 O8"
_cell_length_a       7.859812154251807
_cell_length_b       7.859774361278083
_cell_length_c       10.894456341663998
_cell_angle_alpha    103.82968481904288
_cell_angle_beta     103.82923464984142
_cell_angle_gamma    109.71716200490825

_space_group_name_H-M_alt    "P 1"
_space_group_IT_number       1

loop_
  _space_group_symop_operation_xyz
  'x, y, z'

loop_
  _atom_site_type_symbol
  _atom_site_label
  _atom_site_symmetry_multiplicity
  _atom_site_fract_x
  _atom_site_fract_y
  _atom_site_fract_z
  _atom_site_occupancy
  Zn  Zn1       1.0  0.5549527247927841  0.555010075819844  0.9999741045298337  1.0000
  Zn  Zn2       1.0  0.8050098736940045  0.3049569620272266  0.4999781223169394  1.0000
  H   H1        1.0  0.5496350333442237  0.9360431870959403  0.03695372161968896  1.0000
  H   H2        1.0  0.8990771723331789  0.5128502652306963  0.9630544809250524  1.0000
  H   H3        1.0  0.7628466484686243  0.6490816485420082  0.463062438527892  1.0000
  H   H4        1.0  0.18603521435395018  0.29962014734996967  0.536954380632075  1.0000
  H   H5        1.0  0.47142470043881707  0.03159981655894481  0.658332218079714  1.0000
  H   H6        1.0  0.37309458416788754  0.8129636738346948  0.34175905383377625  1.0000
  H   H7        1.0  0.06299256914708451  0.12311492844244037  0.8417610594619661  1.0000
  H   H8        1.0  0.2815973492743141  0.22142802595609368  0.1583329457318428  1.0000
  H   H9        1.0  0.45856858980719306  0.7005828376145898  0.5557249114816187  1.0000
  H   H10       1.0  0.1447233317160012  0.9029759338264679  0.4442535447000253  1.0000
  H   H11       1.0  0.15299851194819075  0.894736622657973  0.9442531307142872  1.0000
  H   H12       1.0  0.9505816221444975  0.2085643461497355  0.05572952808326193  1.0000
  H   H13       1.0  0.5046890504900433  0.5086324249013003  0.7049919609776509  1.0000
  H   H14       1.0  0.8035282876962883  0.7997948055400812  0.29498369910331956  1.0000
  H   H15       1.0  0.049804757474234414  0.5535337265427954  0.7949835408600165  1.0000
  H   H16       1.0  0.7586309656486635  0.2546828298779147  0.20499669728242512  1.0000
  C   C1        1.0  0.5335660256291989  0.8897344462448656  0.9305825564461756  1.0000
  C   C2        1.0  0.9590403774363095  0.6031067473008347  0.06942104086065365  1.0000
  C   C3        1.0  0.8531105871562661  0.7090497118768511  0.569425203001778  1.0000
  C   C4        1.0  0.1397281383854434  0.2835567697034236  0.4305821426366592  1.0000
  C   C5        1.0  0.5111767524747394  0.006646733669590797  0.8554083573001988  1.0000
  C   C6        1.0  0.15109655154397936  0.6558126071239768  0.144648882666587  1.0000
  C   C7        1.0  0.9058282247356078  0.9011079192085348  0.6446550982207314  1.0000
  C   C8        1.0  0.2566448534379334  0.2611771924676205  0.3554079063299511  1.0000
  C   C9        1.0  0.4858241765779924  0.9405488108913502  0.7182920275815121  1.0000
  C   C10       1.0  0.22215163606462338  0.7675667709853754  0.2817665995264065  1.0000
  C   C11       1.0  0.017586501682352314  0.9721625507570621  0.7817684859570021  1.0000
  C   C12       1.0  0.19054715551426685  0.2358298331226294  0.2182929545245571  1.0000
  C   C13       1.0  0.479795967199756  0.7582599327325424  0.6623447046158759  1.0000
  C   C14       1.0  0.09579077190508663  0.8176044102914232  0.3376413827795375  1.0000
  C   C15       1.0  0.06762583779860182  0.845803826782465  0.8376463133965333  1.0000
  C   C16       1.0  0.008264564155155125  0.22980437359156983  0.16234940399166933  1.0000
  C   C17       1.0  0.505680501757766  0.6506876473865332  0.7443625783607004  1.0000
  C   C18       1.0  0.9061935907649358  0.7614165840683851  0.25563225425380404  1.0000
  C   C19       1.0  0.011430974671462493  0.656205572802321  0.7556352125676042  1.0000
  C   C20       1.0  0.9006871027307283  0.25567992801554595  0.24436447975082126  1.0000
  C   C21       1.0  0.5112198337853329  0.19577944181124707  0.9252644929745769  1.0000
  C   C22       1.0  0.2701689827114818  0.5858296976494514  0.07469123405009977  1.0000
  C   C23       1.0  0.8358376348924921  0.020174951987073097  0.574695937063062  1.0000
  C   C24       1.0  0.4457759884439057  0.26122085768028563  0.425268060084484  1.0000
  N   N1        1.0  0.5335721640415729  0.7170308600155622  0.8771303278853891  1.0000
  N   N2        1.0  0.8397866701048429  0.6565435481369093  0.12285458899706467  1.0000
  N   N3        1.0  0.9065517966883478  0.589797158903373  0.6228584302188693  1.0000
  N   N4        1.0  0.9670297844275808  0.2835653116829917  0.3771328054752843  1.0000
  O   O1        1.0  0.5265963865598806  0.31655423093854296  0.8620894502981216  1.0000
  O   O2        1.0  0.4541888057180189  0.6646364074100077  0.13760772140759062  1.0000
  O   O3        1.0  0.9146267314350213  0.20419669720917  0.6376154396642235  1.0000
  O   O4        1.0  0.5665522493612158  0.2766009200073326  0.3620973277830899  1.0000
  O   O5        1.0  0.4991115167503466  0.22946796121328114  0.0409181731706667  1.0000
  O   O6        1.0  0.18788539202999033  0.4576171210464963  0.9592402436658176  1.0000
  O   O7        1.0  0.7076321487075675  0.9378903828835733  0.45924151640115  1.0000
  O   O8        1.0  0.4794577368962223  0.2491069930919778  0.5409182393976267  1.0000
