data_image0
_chemical_formula_structural       C54Cl2H26N16Zn4
_chemical_formula_sum              "C54 Cl2 H26 N16 Zn4"
_cell_length_a       18.50783529534387
_cell_length_b       18.504904833527327
_cell_length_c       18.558652753155396
_cell_angle_alpha    111.41771901165266
_cell_angle_beta     111.35531696071202
_cell_angle_gamma    100.24446385734178

_space_group_name_H-M_alt    "P 1"
_space_group_IT_number       1

loop_
  _space_group_symop_operation_xyz
  'x, y, z'

loop_
  _atom_site_type_symbol
  _atom_site_label
  _atom_site_symmetry_multiplicity
  _atom_site_fract_x
  _atom_site_fract_y
  _atom_site_fract_z
  _atom_site_occupancy
  C   C1        1.0  0.5690782407412699  0.2594398125230981  0.8980095652889375  1.0000
  C   C2        1.0  0.6708426720205624  0.5192889751261024  0.8982543721801973  1.0000
  C   C3        1.0  0.27730271752810853  0.2772479040465541  0.8037485159687492  1.0000
  C   C4        1.0  0.45950115507871186  0.3814145751893819  0.6745405591976023  1.0000
  C   C5        1.0  0.38143602686157146  0.45945195385046844  0.6745612684205468  1.0000
  C   C6        1.0  0.6554420896535476  0.7333797430713603  0.2485882976062186  1.0000
  C   C7        1.0  0.7332529768865754  0.6554421404281855  0.24855261385986438  1.0000
  C   C8        1.0  0.5193177639994815  0.6707815276871757  0.8983032366238746  1.0000
  C   C9        1.0  0.4134610995913235  0.41339829239215237  0.6228599218673309  1.0000
  C   C10       1.0  0.7381489138617567  0.7382236861474711  0.28939348401069515  1.0000
  C   C11       1.0  0.7490067445437704  0.5714856043670764  0.9721062488024615  1.0000
  C   C12       1.0  0.5715537701857017  0.7489925525680052  0.9721640338148917  1.0000
  C   C13       1.0  0.25949282708184274  0.5691395059331796  0.8980834819005138  1.0000
  C   C14       1.0  0.9905360212116464  0.07887580040020498  0.6188044249525504  1.0000
  C   C15       1.0  0.07896601981852994  0.9904877438817647  0.618455360999185  1.0000
  C   C16       1.0  0.002232700692239352  0.9153196133129311  0.540533205336139  1.0000
  C   C17       1.0  0.9153713713190682  0.0023021037971064483  0.5406139881667683  1.0000
  C   C18       1.0  0.8091748417239728  0.8092351895761212  0.3543575756375076  1.0000
  C   C19       1.0  0.07200020711865558  0.07204915403837478  0.6169813802106106  1.0000
  C   C20       1.0  0.9429949386541593  0.942969397172817  0.4805391331293265  1.0000
  C   C21       1.0  0.32442310932540175  0.631368480938953  0.04321580035517066  1.0000
  C   C22       1.0  0.631339904169451  0.3244806298400249  0.04314490486871134  1.0000
  C   C23       1.0  0.9915122302577262  0.9914304677676359  0.45001567809362075  1.0000
  C   C24       1.0  0.06703338695781719  0.06728404809218348  0.5298812677130584  1.0000
  C   C25       1.0  0.8707860323090987  0.8707745330673977  0.4089463691994767  1.0000
  C   C26       1.0  0.143631099562576  0.1436600397952077  0.6910497137656577  1.0000
  C   C27       1.0  0.2049954832480836  0.20495514729687872  0.7478167470727682  1.0000
  C   C28       1.0  0.17168071920902864  0.6094171351728833  0.9723597798910147  1.0000
  C   C29       1.0  0.7330347954093526  0.5848439098345111  0.043885221349419995  1.0000
  C   C30       1.0  0.6093935202539882  0.17165390729980606  0.9722429555978422  1.0000
  C   C31       1.0  0.10636762613368936  0.6123839718414105  0.97399661857456  1.0000
  C   C32       1.0  0.6123992096668972  0.10636106746659377  0.9739359281279006  1.0000
  C   C33       1.0  0.0346684506308108  0.6134493475413477  0.975311813603234  1.0000
  C   C34       1.0  0.6134979438944653  0.03467926661956986  0.9753161281440583  1.0000
  C   C35       1.0  0.5848707422570244  0.7330491873747179  0.04392838932967174  1.0000
  C   C36       1.0  0.9677921509295759  0.6119091186953443  0.9758364802999752  1.0000
  C   C37       1.0  0.6119855326796043  0.967804387454443  0.9758693368993718  1.0000
  C   C38       1.0  0.8943199671098939  0.605486690774356  0.9753120927664226  1.0000
  C   C39       1.0  0.6055845605229633  0.89432415544794  0.9753571580093804  1.0000
  C   C40       1.0  0.4860416648383251  0.4077645462438825  0.11684524287095129  1.0000
  C   C41       1.0  0.4077311360868382  0.48604519179927075  0.11687114273767223  1.0000
  C   C42       1.0  0.8261618047831264  0.594517802288536  0.9739746334983649  1.0000
  C   C43       1.0  0.5946178065136821  0.8261667703350924  0.9740505137583142  1.0000
  C   C44       1.0  0.40305399440980944  0.4029627898799576  0.5407059921974451  1.0000
  C   C45       1.0  0.39556812140640574  0.3955194709212436  0.4694142173905789  1.0000
  C   C46       1.0  0.3904510756086453  0.3904226581968119  0.393660668588076  1.0000
  C   C47       1.0  0.38927576671726166  0.38926655991425463  0.32615265776260566  1.0000
  C   C48       1.0  0.3938391153773608  0.3938344941286402  0.2573917981817786  1.0000
  C   C49       1.0  0.40408775435667377  0.4041047557804448  0.19937413531188503  1.0000
  C   C50       1.0  0.2826520991675068  0.3607003517381743  0.8318207731247397  1.0000
  C   C51       1.0  0.3606969649288486  0.282563866841187  0.831769276301408  1.0000
  C   C52       1.0  0.6041719818640273  0.2456918178410279  0.9710723518031514  1.0000
  C   C53       1.0  0.24570699103632176  0.6042174249492264  0.9711714966423912  1.0000
  C   C54       1.0  0.42707333351598453  0.42708988270703685  0.14460315442573787  1.0000
  Cl  Cl1       1.0  0.0330227286311027  0.8382081472028486  0.478431403214621  1.0000
  Cl  Cl2       1.0  0.8387351299698835  0.0334976297402038  0.4786572930898885  1.0000
  H   H1        1.0  0.5408070479164735  0.21546784084666373  0.8288864611133633  1.0000
  H   H2        1.0  0.9840917320473254  0.13578085474380006  0.6162312167070425  1.0000
  H   H3        1.0  0.1356472675289454  0.9840240324133164  0.6152875529463484  1.0000
  H   H4        1.0  0.0629031467651586  0.1255217732319025  0.5291213387525673  1.0000
  H   H5        1.0  0.1253617406333447  0.06367537553880713  0.5290526684382327  1.0000
  H   H6        1.0  0.9488766922671131  0.010887331831526143  0.40868422086367673  1.0000
  H   H7        1.0  0.011235722938018023  0.9488014038346861  0.4089314230951685  1.0000
  H   H8        1.0  0.21558021550102077  0.5408658264257371  0.8289653427997549  1.0000
  H   H9        1.0  0.3423854822590825  0.6624344883644326  0.11259725074442867  1.0000
  H   H10       1.0  0.6624180915261064  0.3425406920433787  0.11253367746508751  1.0000
  H   H11       1.0  0.5175666078890941  0.36480674056259943  0.12433189966510122  1.0000
  H   H12       1.0  0.3647484535974501  0.5175484615160503  0.12436705245899302  1.0000
  H   H13       1.0  0.23320755741393379  0.3858187997594059  0.8246509651710879  1.0000
  H   H14       1.0  0.38576395535344693  0.2330722282641275  0.8245698713937699  1.0000
  H   H15       1.0  0.4946036352023811  0.34203792367858915  0.6599296681988065  1.0000
  H   H16       1.0  0.3420726168874708  0.49455878037017004  0.66000784027991  1.0000
  H   H17       1.0  0.6305797915089784  0.7829810266491891  0.260717467958102  1.0000
  H   H18       1.0  0.7827831174447086  0.6305012426602163  0.2606176523358315  1.0000
  H   H19       1.0  0.7756366323683396  0.6222177360967509  0.1133796682491806  1.0000
  H   H20       1.0  0.6222511951937477  0.7756667608069422  0.11342316163226931  1.0000
  H   H21       1.0  0.493938698803454  0.654330490389384  0.8293397790131036  1.0000
  H   H22       1.0  0.6544501273971545  0.493936833402735  0.8292935614651566  1.0000
  H   H23       1.0  0.8820657462094842  0.9668898410481929  0.562368760420483  1.0000
  H   H24       1.0  0.9930809798133636  0.08385279233412767  0.6805677031376334  1.0000
  H   H25       1.0  0.9668853568668822  0.8823033753296697  0.5625553131177198  1.0000
  H   H26       1.0  0.08440462935418933  0.9930313544160113  0.680350307190231  1.0000
  N   N1        1.0  0.5750814957850423  0.3391611418407195  0.9247729980836253  1.0000
  N   N2        1.0  0.4532488513661763  0.5012474250559581  0.07822059421647513  1.0000
  N   N3        1.0  0.501235155662819  0.45327358662681433  0.07820097904844661  1.0000
  N   N4        1.0  0.36273948536658207  0.41063736151723174  0.8709719019524584  1.0000
  N   N5        1.0  0.4106444648312505  0.36268395401725684  0.8709434807397115  1.0000
  N   N6        1.0  0.45479758504594514  0.40630492697059867  0.749742072664752  1.0000
  N   N7        1.0  0.4062903488461276  0.45478650888780714  0.7497479394284312  1.0000
  N   N8        1.0  0.339169124738696  0.5751313119899849  0.9248152722060468  1.0000
  N   N9        1.0  0.605885199382506  0.6544540243515515  0.18821268562376053  1.0000
  N   N10       1.0  0.6543584591950379  0.6059118799327623  0.18819977203214225  1.0000
  N   N11       1.0  0.6526849274446035  0.542209607597009  0.014295503925787021  1.0000
  N   N12       1.0  0.5421758613805494  0.6526836540088253  0.014324448654804197  1.0000
  N   N13       1.0  0.5021016896789945  0.6145120920939036  0.9250595859084001  1.0000
  N   N14       1.0  0.6145549151951144  0.5021293176802148  0.9250240812226168  1.0000
  N   N15       1.0  0.37951014984440684  0.6138224745348994  0.015046703202116908  1.0000
  N   N16       1.0  0.6138017902526942  0.3795605573418401  0.015003129526562027  1.0000
  Zn  Zn1       1.0  0.5146055332663124  0.39872032081940756  0.8625567800448551  1.0000
  Zn  Zn2       1.0  0.39864329324763764  0.5146030591411163  0.8625282755778797  1.0000
  Zn  Zn3       1.0  0.4941485212311251  0.6090691832158158  0.0780824817872699  1.0000
  Zn  Zn4       1.0  0.6090723730586731  0.4941997841569049  0.07808826432626156  1.0000
