data_image0
_chemical_formula_structural       Cu4P8H64C40Br4O28
_chemical_formula_sum              "Cu4 P8 H64 C40 Br4 O28"
_cell_length_a       10.077581010770798
_cell_length_b       10.815651923957683
_cell_length_c       16.341018280002558
_cell_angle_alpha    90.00002873828791
_cell_angle_beta     89.9999386309665
_cell_angle_gamma    98.42727376230344

_space_group_name_H-M_alt    "P 1"
_space_group_IT_number       1

loop_
  _space_group_symop_operation_xyz
  'x, y, z'

loop_
  _atom_site_type_symbol
  _atom_site_label
  _atom_site_symmetry_multiplicity
  _atom_site_fract_x
  _atom_site_fract_y
  _atom_site_fract_z
  _atom_site_occupancy
  Cu  Cu1       1.0  0.42517278775713413  0.46658767462763956  0.927407260796336  1.0000
  Cu  Cu2       1.0  0.42517482321795097  0.9665902815327531  0.572591024460557  1.0000
  Cu  Cu3       1.0  0.574824999657764  0.5334131051466214  0.0725920721714317  1.0000
  Cu  Cu4       1.0  0.5748282315566512  0.0334123223682141  0.4274070845918415  1.0000
  P   P1        1.0  0.5118790268270956  0.489744843796636  0.8051639360309364  1.0000
  P   P2        1.0  0.5118805471896621  0.9897456437820865  0.6948349116633068  1.0000
  P   P3        1.0  0.48811943824132686  0.5102540576803632  0.19483478497932077  1.0000
  P   P4        1.0  0.4881253234996592  0.0102559983994723  0.30516319738799774  1.0000
  P   P5        1.0  0.2236381479390062  0.8686200574086129  0.5479200293053947  1.0000
  P   P6        1.0  0.22363638491003  0.36861933235547173  0.9520783559679767  1.0000
  P   P7        1.0  0.7763631330416133  0.1313778823497529  0.4520817514886061  1.0000
  P   P8        1.0  0.7763614025063816  0.6313814474183203  0.04791914112888659  1.0000
  H   H1        1.0  0.3999404092760771  0.511594936390381  0.6196516698282293  1.0000
  H   H2        1.0  0.3999415806438123  0.0115932130320857  0.8803477005769833  1.0000
  H   H3        1.0  0.6000569083649125  0.48840303948090763  0.380348275096189  1.0000
  H   H4        1.0  0.6000613175391509  0.988408456234666  0.11965102043227918  1.0000
  H   H5        1.0  0.4536427762918507  0.35955542554790304  0.6187734678162329  1.0000
  H   H6        1.0  0.45364565727211215  0.8595544332744397  0.8812253739640068  1.0000
  H   H7        1.0  0.5463545413491389  0.640442550323378  0.3812264771081856  1.0000
  H   H8        1.0  0.5463572409108508  0.14044723599231193  0.11877334704525568  1.0000
  H   H9        1.0  0.6783157184485804  0.3357064518738683  0.6796784065679231  1.0000
  H   H10       1.0  0.6783209948810908  0.8357072797486397  0.8203208901998449  1.0000
  H   H11       1.0  0.3216807649477574  0.6642924676602959  0.32032215031389194  1.0000
  H   H12       1.0  0.3216828941356483  0.16429438049023307  0.17967966667999485  1.0000
  H   H13       1.0  0.7990630642944937  0.47176540262596933  0.7019866691342854  1.0000
  H   H14       1.0  0.7990668656770552  0.9717690410826165  0.7980132061041443  1.0000
  H   H15       1.0  0.20093326251070204  0.5282325822738229  0.29801388774742316  1.0000
  H   H16       1.0  0.20093817076559617  0.028233544762443302  0.20198796273243147  1.0000
  H   H17       1.0  0.7207311100550698  0.6871123712195485  0.6999795130160604  1.0000
  H   H18       1.0  0.7207300679616752  0.18711437251383967  0.8000215407526099  1.0000
  H   H19       1.0  0.2792662075864243  0.3128856046515836  0.3000198199513875  1.0000
  H   H20       1.0  0.2792739776461914  0.8128882223594118  0.19997901612732955  1.0000
  H   H21       1.0  0.5636903005881422  0.7043730240677987  0.6545442109325847  1.0000
  H   H22       1.0  0.563687722838175  0.20437225366114126  0.8454569527554197  1.0000
  H   H23       1.0  0.4363083210709037  0.29562681204374297  0.34545512203474965  1.0000
  H   H24       1.0  0.4363143410996316  0.7956303592686425  0.15454299216821704  1.0000
  H   H25       1.0  0.659072441892036  0.43681255795103613  0.5336740650583636  1.0000
  H   H26       1.0  0.6590723663931399  0.9368125708015  0.9663265029210348  1.0000
  H   H27       1.0  0.34092503233957683  0.56318635255478  0.4663264918231319  1.0000
  H   H28       1.0  0.3409272461011952  0.0631872562816937  0.0336728300459725  1.0000
  H   H29       1.0  0.6015757703842084  0.5862722216273754  0.5291107465271094  1.0000
  H   H30       1.0  0.6015751237121806  0.08627243177411971  0.9708891277947982  1.0000
  H   H31       1.0  0.39842368551848045  0.413726670821596  0.4708891983967545  1.0000
  H   H32       1.0  0.39842464537278494  0.913728329943602  0.02911081712927909  1.0000
  H   H33       1.0  0.771569225831847  0.723396041962161  0.47852818655491086  1.0000
  H   H34       1.0  0.7715694780762236  0.22339695752266667  0.021472128724056492  1.0000
  H   H35       1.0  0.22843122090512216  0.2766028414587752  0.521472982282553  1.0000
  H   H36       1.0  0.2284291435813088  0.7766028785893438  0.978529040114182  1.0000
  H   H37       1.0  0.8522200320598046  0.596536266971718  0.4430156633613647  1.0000
  H   H38       1.0  0.8522192348111375  0.09653720967334319  0.05698455514617958  1.0000
  H   H39       1.0  0.1477792672497387  0.40346169084349987  0.5569867293902604  1.0000
  H   H40       1.0  0.1477815251081012  0.9034635430163503  0.9430166136915047  1.0000
  H   H41       1.0  0.8913499686217181  0.8876364521371658  0.5717500277035938  1.0000
  H   H42       1.0  0.8913500700332551  0.3876347622387471  0.9282485337437404  1.0000
  H   H43       1.0  0.1086503215251255  0.1123614966490862  0.42824991721982986  1.0000
  H   H44       1.0  0.1086478739712575  0.612366952170362  0.07175263509503788  1.0000
  H   H45       1.0  0.9433311812003213  0.7777129310538843  0.6425399498461459  1.0000
  H   H46       1.0  0.9433282704417323  0.2777102975005974  0.8574591515648533  1.0000
  H   H47       1.0  0.0566679615196009  0.2222840921264861  0.35746060703446847  1.0000
  H   H48       1.0  0.05666638787465671  0.7222895747247976  0.1425420172747067  1.0000
  H   H49       1.0  0.03776054246122132  0.7484132631935838  0.385369612670786  1.0000
  H   H50       1.0  0.0377626225025338  0.24841420821162793  0.11462936134731187  1.0000
  H   H51       1.0  0.9622412082938041  0.25158748046760576  0.6146309442096083  1.0000
  H   H52       1.0  0.9622414231058446  0.7515883866614674  0.885370583575664  1.0000
  H   H53       1.0  0.9740591416591471  0.883909851101805  0.4233932719318999  1.0000
  H   H54       1.0  0.9740579988174005  0.3839089345427169  0.0766063521147871  1.0000
  H   H55       1.0  0.025942609094869305  0.11609089255969712  0.5766085088624207  1.0000
  H   H56       1.0  0.02594291769296581  0.6160927527813486  0.9233948167230037  1.0000
  H   H57       1.0  0.04043959295060519  0.5871008752445306  0.5892767057308816  1.0000
  H   H58       1.0  0.04043972331096771  0.08709917640708652  0.9107229286032632  1.0000
  H   H59       1.0  0.9595616880315204  0.4128970645133733  0.4107232391922152  1.0000
  H   H60       1.0  0.9595579075107709  0.9129006687334283  0.08927885219226538  1.0000
  H   H61       1.0  0.10238568644863481  0.591150251657119  0.48604627693863717  1.0000
  H   H62       1.0  0.10238480368428068  0.0911502377771782  0.013954436405228395  1.0000
  H   H63       1.0  0.8976157511246254  0.40884862273515676  0.5139536679845733  1.0000
  H   H64       1.0  0.8976162694172204  0.9088523841812729  0.9860467324326758  1.0000
  C   C1        1.0  0.46351443477303883  0.4506078923082554  0.6498358038405597  1.0000
  C   C2        1.0  0.4635162196335969  0.9506059585858962  0.8501636744721921  1.0000
  C   C3        1.0  0.5364830394590855  0.5493910181974044  0.35016414108395816  1.0000
  C   C4        1.0  0.5364875127935208  0.04939476701812848  0.14983504653662996  1.0000
  C   C5        1.0  0.6921565190646676  0.4325441150356752  0.7025044134343899  1.0000
  C   C6        1.0  0.6921590172848086  0.9325458929878608  0.7974955192145783  1.0000
  C   C7        1.0  0.30784095516694526  0.5674547954701482  0.2974961434470983  1.0000
  C   C8        1.0  0.30784487173242786  0.0674557672508556  0.20250442570829108  1.0000
  C   C9        1.0  0.6165242017152296  0.6425571435645028  0.691738315428317  1.0000
  C   C10       1.0  0.616522832827627  0.14255727979324462  0.8082621801827087  1.0000
  C   C11       1.0  0.38347426335268153  0.35744175791265326  0.3082610175389035  1.0000
  C   C12       1.0  0.38348022194546155  0.8574453241081982  0.19173776474059415  1.0000
  C   C13       1.0  0.6104989022133864  0.5135741248838172  0.6513271050498374  1.0000
  C   C14       1.0  0.6104983008212275  0.013573338060986399  0.8486727385192052  1.0000
  C   C15       1.0  0.38949857201822624  0.4864247856219991  0.3486734518316509  1.0000
  C   C16       1.0  0.38950344993481434  0.9864274055998907  0.15132659444724783  1.0000
  C   C17       1.0  0.6638881750941152  0.5288902133891896  0.5639133208104282  1.0000
  C   C18       1.0  0.6638875859068137  0.02889040578537561  0.9360871045854038  1.0000
  C   C19       1.0  0.3361092991374975  0.47110869711663395  0.4360872360710672  1.0000
  C   C20       1.0  0.33611317401292956  0.9711103469041549  0.06391345229531  1.0000
  C   C21       1.0  0.8436110993194533  0.659963601892436  0.49527924994127653  1.0000
  C   C22       1.0  0.843611066050713  0.1599626396403124  0.0047203839853154  1.0000
  C   C23       1.0  0.15638851317336844  0.3400362251912199  0.5047219188966279  1.0000
  C   C24       1.0  0.15638870303323668  0.840038122077729  0.9952807848527031  1.0000
  C   C25       1.0  0.9799857119229287  0.7357728598090532  0.514372887085173  1.0000
  C   C26       1.0  0.9799858751519396  0.23577213380991682  0.9856267876711653  1.0000
  C   C27       1.0  0.020014421632275497  0.2642241543429691  0.4856276697951144  1.0000
  C   C28       1.0  0.0200138939325143  0.7642286279079615  0.014373769209882396  1.0000
  C   C29       1.0  0.9682103366365384  0.8279511536559385  0.5848421994229156  1.0000
  C   C30       1.0  0.9682083214114316  0.32794854050229116  0.9151562907185562  1.0000
  C   C31       1.0  0.0317899535092963  0.172046795130619  0.4151589694144489  1.0000
  C   C32       1.0  0.031788475167168394  0.6720522483006306  0.08484426616347919  1.0000
  C   C33       1.0  0.034842554532907855  0.8104595363624583  0.43855664019458357  1.0000
  C   C34       1.0  0.03484143673728109  0.3104586120694535  0.06144296891628898  1.0000
  C   C35       1.0  0.9651601870569027  0.1895411982705397  0.5614445286424399  1.0000
  C   C36       1.0  0.9651596363647315  0.6895440098888344  0.9385575879646452  1.0000
  C   C37       1.0  0.0803481883731578  0.648345962295288  0.5387333411230698  1.0000
  C   C38       1.0  0.08034755759494772  0.14834616753422133  0.9612668996623552  1.0000
  C   C39       1.0  0.9196539268526253  0.3516510338000458  0.46126721575655677  1.0000
  C   C40       1.0  0.9196515338364861  0.8516564724807623  0.038733657219232484  1.0000
  Br  Br1       1.0  0.4468450069740939  0.674254777750356  0.9924056864952107  1.0000
  Br  Br2       1.0  0.44683130515789315  0.17424926115635486  0.5075777975479312  1.0000
  Br  Br3       1.0  0.5531540844608857  0.3257478622635332  0.007590586687605597  1.0000
  Br  Br4       1.0  0.5531525052744968  0.8257450935414  0.49240440062826707  1.0000
  O   O1        1.0  0.41304192158064984  0.42708405063726923  0.732901631454254  1.0000
  O   O2        1.0  0.4130459819074517  0.9270829911255731  0.7670972602945338  1.0000
  O   O3        1.0  0.5869534143897681  0.5729139432907145  0.2670983134708179  1.0000
  O   O4        1.0  0.5869587413559643  0.07291772544979121  0.23290023680002744  1.0000
  O   O5        1.0  0.6487045427283463  0.4300626120618817  0.7878895592267694  1.0000
  O   O6        1.0  0.6487073385750862  0.9300652810984786  0.7121097893991288  1.0000
  O   O7        1.0  0.3512939223385558  0.5699362894155938  0.21211099765439195  1.0000
  O   O8        1.0  0.3512976978685671  0.0699373047462686  0.2878901555235131  1.0000
  O   O9        1.0  0.5527529126152332  0.632115181335216  0.7723122609080659  1.0000
  O   O10       1.0  0.5527535018956301  0.13211432377683247  0.7276876614179526  1.0000
  O   O11       1.0  0.447244874800667  0.3678855984387326  0.22768584814576795  1.0000
  O   O12       1.0  0.4472502305309832  0.8678864018273558  0.27231167154783975  1.0000
  O   O13       1.0  0.7994773560689838  0.5909315473354723  0.5672539595928681  1.0000
  O   O14       1.0  0.7994766158085014  0.0909308033934053  0.9327463971915575  1.0000
  O   O15       1.0  0.20051912732684232  0.4090673721988479  0.43274720924592447  1.0000
  O   O16       1.0  0.20052398751858655  0.9090690146622155  0.067255995559961  1.0000
  O   O17       1.0  0.0956526128791992  0.9104159918950928  0.5965443436374115  1.0000
  O   O18       1.0  0.09565176441106621  0.41041429837844845  0.9034523048223019  1.0000
  O   O19       1.0  0.9043496589367026  0.0895819388349324  0.4034574371562626  1.0000
  O   O20       1.0  0.904346023004841  0.5895864813955002  0.0965458042315319  1.0000
  O   O21       1.0  0.17249099168883936  0.8700792402986439  0.45306977624530015  1.0000
  O   O22       1.0  0.1724903676392699  0.37008111250631975  0.04692915010609509  1.0000
  O   O23       1.0  0.8275094550471138  0.12991964312260512  0.5469326165061046  1.0000
  O   O24       1.0  0.8275107054642561  0.6299215094514992  0.9530695709039347  1.0000
  O   O25       1.0  0.2061776227361065  0.7189934527884247  0.5670620234809787  1.0000
  O   O26       1.0  0.20617886382930808  0.21899269088751797  0.9329381580979186  1.0000
  O   O27       1.0  0.7938216765749502  0.2810045050263242  0.43293853339974925  1.0000
  O   O28       1.0  0.7938199144213769  0.7810080798582388  0.06706056291255887  1.0000
