data_image0
_chemical_formula_structural       Cd2H8C4O12
_chemical_formula_sum              "Cd2 H8 C4 O12"
_cell_length_a       5.986045443837414
_cell_length_b       6.3452778415623845
_cell_length_c       8.968800638342547
_cell_angle_alpha    76.14970553968682
_cell_angle_beta     72.52299959459634
_cell_angle_gamma    78.87474719108599

_space_group_name_H-M_alt    "P 1"
_space_group_IT_number       1

loop_
  _space_group_symop_operation_xyz
  'x, y, z'

loop_
  _atom_site_type_symbol
  _atom_site_label
  _atom_site_symmetry_multiplicity
  _atom_site_fract_x
  _atom_site_fract_y
  _atom_site_fract_z
  _atom_site_occupancy
  Cd  Cd1       1.0  0.7076454361737916  0.054832173523472194  0.35326104501008615  1.0000
  Cd  Cd2       1.0  0.612910538706153  0.43901264902846276  0.9388285012732283  1.0000
  H   H1        1.0  0.9784431812924909  0.7049857622999269  0.19988476589509918  1.0000
  H   H2        1.0  0.7586565927047461  0.5938936534177798  0.3294881110692955  1.0000
  H   H3        1.0  0.26916898066493644  0.9165324599018162  0.4587876178057043  1.0000
  H   H4        1.0  0.42551176631076276  0.7607204575627333  0.5747444392551202  1.0000
  H   H5        1.0  0.9011805750113665  0.725885018225945  0.7117540228659961  1.0000
  H   H6        1.0  0.05746255117721694  0.5663265259778285  0.8242176100093772  1.0000
  H   H7        1.0  0.6326338078640037  0.7369373378750409  0.11900517553930715  1.0000
  H   H8        1.0  0.588742701037205  0.8824132743890798  0.961135235543921  1.0000
  C   C1        1.0  0.6319718244218252  0.3631043286302571  0.5953326260890676  1.0000
  C   C2        1.0  0.6983034162718129  0.13232349490233017  0.6930131142401803  1.0000
  C   C3        1.0  0.22940001778142263  0.16452016731563646  0.2053438230057054  1.0000
  C   C4        1.0  0.09549770125127569  0.310209231426171  0.0840897051745344  1.0000
  O   O1        1.0  0.6703975831140172  0.37945490084625516  0.44484291651176716  1.0000
  O   O2        1.0  0.5464633201931123  0.5182532027810467  0.6686880530428283  1.0000
  O   O3        1.0  0.775028039998894  0.9756137573689259  0.6197163212586217  1.0000
  O   O4        1.0  0.6695471043398341  0.11753180411176342  0.8415736068236015  1.0000
  O   O5        1.0  0.4338366042974542  0.20811877793850897  0.19071360282288904  1.0000
  O   O6        1.0  0.1244713218198896  0.017027796037147904  0.3094130562672106  1.0000
  O   O7        1.0  0.1969851126842812  0.4614336905493984  0.9820344173272701  1.0000
  O   O8        1.0  0.8900062855601262  0.2681883340529296  0.09956642402652696  1.0000
  O   O9        1.0  0.808349097677464  0.7298359988128238  0.24740930375579506  1.0000
  O   O10       1.0  0.3797585903852578  0.9139060027807909  0.5227634709584521  1.0000
  O   O11       1.0  0.9487129677313108  0.570987986387962  0.7589349786688188  1.0000
  O   O12       1.0  0.5362497932236964  0.7513535920750981  0.043429776360795806  1.0000
