data_image0
_chemical_formula_structural       Zn2H40C70N4O12
_chemical_formula_sum              "Zn2 H40 C70 N4 O12"
_cell_length_a       16.489118506693796
_cell_length_b       17.87540112646163
_cell_length_c       28.053326056429892
_cell_angle_alpha    89.91985173861033
_cell_angle_beta     90.1485748992841
_cell_angle_gamma    89.90954911184629

_space_group_name_H-M_alt    "P 1"
_space_group_IT_number       1

loop_
  _space_group_symop_operation_xyz
  'x, y, z'

loop_
  _atom_site_type_symbol
  _atom_site_label
  _atom_site_symmetry_multiplicity
  _atom_site_fract_x
  _atom_site_fract_y
  _atom_site_fract_z
  _atom_site_occupancy
  Zn  Zn1       1.0  0.4160911781940086  0.4997196789776623  0.4999175969040763  1.0000
  Zn  Zn2       1.0  0.5839807565949329  0.5001429208281822  0.4993258013176742  1.0000
  H   H1        1.0  0.6460231845977943  0.3696230211832585  0.12216759959336798  1.0000
  H   H2        1.0  0.37584147070974433  0.651664045852783  0.8772036232597104  1.0000
  H   H3        1.0  0.41124326974514946  0.4205840652425863  0.6508854894237714  1.0000
  H   H4        1.0  0.5854183831161494  0.5831922930528606  0.34912743205084945  1.0000
  H   H5        1.0  0.4128136942082321  0.41750131385047945  0.7403769009348338  1.0000
  H   H6        1.0  0.5835248142222724  0.5876289678612778  0.259652664580301  1.0000
  H   H7        1.0  0.621518188133237  0.3517084713429881  0.877248171338664  1.0000
  H   H8        1.0  0.35738667343551356  0.6350054079065757  0.12266730298671999  1.0000
  H   H9        1.0  0.6253158122335378  0.3513141361314567  0.9654765570238483  1.0000
  H   H10       1.0  0.3573100693117937  0.6389282977669309  0.0344735089897412  1.0000
  H   H11       1.0  0.645737420638248  0.36728156376277354  0.0339164012123803  1.0000
  H   H12       1.0  0.3726217426503168  0.651726649535334  0.9654003252109149  1.0000
  H   H13       1.0  0.3690158912290329  0.8785149502101675  0.5156145740418268  1.0000
  H   H14       1.0  0.6308816612468178  0.12206864733597911  0.5201981946941459  1.0000
  H   H15       1.0  0.3695294813974712  0.12179428044846932  0.5161153460175782  1.0000
  H   H16       1.0  0.6301497009368475  0.8773032242175985  0.522981583497284  1.0000
  H   H17       1.0  0.3698954976544115  0.739076061923427  0.5060845330298562  1.0000
  H   H18       1.0  0.6301991899492947  0.2615181568517784  0.5102898362970052  1.0000
  H   H19       1.0  0.37026611745240967  0.26125264858382025  0.506327865369002  1.0000
  H   H20       1.0  0.629661656246796  0.7379345431472899  0.5131146866900025  1.0000
  H   H21       1.0  0.1348304635920101  0.41250911040351923  0.4466770083914327  1.0000
  H   H22       1.0  0.8647319971699828  0.5883420966550473  0.5526667009645934  1.0000
  H   H23       1.0  0.135615209865513  0.587418770981422  0.5533491981550753  1.0000
  H   H24       1.0  0.8650347092856308  0.4114296574006032  0.4473496161100599  1.0000
  H   H25       1.0  0.287392941403759  0.4166603087977093  0.4487215078329426  1.0000
  H   H26       1.0  0.7121788076373078  0.5840520230214351  0.5501752799265773  1.0000
  H   H27       1.0  0.28817632110018815  0.5832137066132718  0.5507809876108567  1.0000
  H   H28       1.0  0.7124900957981168  0.41555071198849447  0.4494245481361574  1.0000
  H   H29       1.0  0.4138790367242677  0.32662703591270054  0.3362996637424089  1.0000
  H   H30       1.0  0.4184628866038196  0.37757483833249955  0.3907387336387558  1.0000
  H   H31       1.0  0.33745347059573305  0.39246672017544876  0.3502001715905365  1.0000
  H   H32       1.0  0.5932452439891874  0.6714804673931808  0.6632588026434122  1.0000
  H   H33       1.0  0.6657511155062109  0.602925294443459  0.64741483590916  1.0000
  H   H34       1.0  0.5835930396893829  0.6220895465102387  0.6084907016064918  1.0000
  H   H35       1.0  0.3352718890942725  0.3915611357900701  0.2623028705843922  1.0000
  H   H36       1.0  0.39825137630730717  0.4018601285809141  0.21159186889200748  1.0000
  H   H37       1.0  0.419773103997592  0.33177504166130944  0.2545760461861448  1.0000
  H   H38       1.0  0.6091590030707222  0.5944803523914998  0.7870432603816226  1.0000
  H   H39       1.0  0.6692978048883444  0.6052984128132975  0.7351972862687289  1.0000
  H   H40       1.0  0.5868298956333078  0.6665759890966356  0.745591406681214  1.0000
  C   C1        1.0  0.4999860412637034  0.35263462829532694  0.5019574946615606  1.0000
  C   C2        1.0  0.5001718261891098  0.6472149626974683  0.5032700038925526  1.0000
  C   C3        1.0  0.5000670650435382  0.4963013773721414  0.4063620698900223  1.0000
  C   C4        1.0  0.4998116948626148  0.5038060721050925  0.593146830309081  1.0000
  C   C5        1.0  0.5539567533162852  0.45070228553477404  0.17963872241278267  1.0000
  C   C6        1.0  0.4539471782280414  0.5586002643789102  0.819860043560091  1.0000
  C   C7        1.0  0.446543402211148  0.549843718873838  0.179914590771439  1.0000
  C   C8        1.0  0.5458672805921694  0.44698864140718797  0.8198254601754442  1.0000
  C   C9        1.0  0.5469159317579937  0.5472692326639219  0.2792037753188268  1.0000
  C   C10       1.0  0.4510778229712145  0.4562679210253221  0.7206255950859273  1.0000
  C   C11       1.0  0.5477457806103487  0.5448386483360467  0.3286239545371288  1.0000
  C   C12       1.0  0.45038476330707056  0.45795722722811394  0.6711881766174344  1.0000
  C   C13       1.0  0.4512276941928022  0.4413111718686693  0.3277739972151466  1.0000
  C   C14       1.0  0.5508198543236631  0.5582654215017726  0.6714180407142153  1.0000
  C   C15       1.0  0.450291843960592  0.44366494366557424  0.2774012220160387  1.0000
  C   C16       1.0  0.5522005154223919  0.5561738564265255  0.7217878022458706  1.0000
  C   C17       1.0  0.49837688828743143  0.4969650077099105  0.2542766096520666  1.0000
  C   C18       1.0  0.5018111289545002  0.5050829476957829  0.7452688591580454  1.0000
  C   C19       1.0  0.5010817014473047  0.5019752588268388  0.10176795096663942  1.0000
  C   C20       1.0  0.4992506347088009  0.5019964292306013  0.8978694499646522  1.0000
  C   C21       1.0  0.5535614354209598  0.452980877846251  0.1269305500690621  1.0000
  C   C22       1.0  0.45397039016796015  0.5565925629007253  0.8725821227710497  1.0000
  C   C23       1.0  0.6053114340512593  0.4059209455103954  0.1019650798989815  1.0000
  C   C24       1.0  0.4095708312023659  0.6097772114131956  0.8974702426740677  1.0000
  C   C25       1.0  0.4487330850470812  0.5504878425343164  0.1271645164083353  1.0000
  C   C26       1.0  0.5443002199858497  0.4474692904765051  0.8725784188527896  1.0000
  C   C27       1.0  0.49939081897918663  0.492973630864725  0.3529116401252139  1.0000
  C   C28       1.0  0.5006519722149746  0.5078643935253311  0.6465729040139224  1.0000
  C   C29       1.0  0.548069283326086  0.44821002798099113  0.9737387034664167  1.0000
  C   C30       1.0  0.4492782442170551  0.5536917566453142  0.0259272385964593  1.0000
  C   C31       1.0  0.4516577474801052  0.5559761412108771  0.9737914977581141  1.0000
  C   C32       1.0  0.5520002434084432  0.45101020846270495  0.025804576392197  1.0000
  C   C33       1.0  0.4996442317591274  0.5020740918297334  0.948878593128434  1.0000
  C   C34       1.0  0.500792565981591  0.5022572723837866  0.050755578679798  1.0000
  C   C35       1.0  0.5901421184932971  0.3943743625182988  0.947260003781345  1.0000
  C   C36       1.0  0.39829711830311954  0.6003257620907901  0.05256021743910111  1.0000
  C   C37       1.0  0.5882869824183388  0.3937579094466272  0.8974811836550032  1.0000
  C   C38       1.0  0.3976492229446222  0.5986791439645031  0.10234952351386542  1.0000
  C   C39       1.0  0.6043045199275737  0.40499927436288624  0.0521955587470657  1.0000
  C   C40       1.0  0.40826972928874733  0.6091227129067319  0.9472534110614035  1.0000
  C   C41       1.0  0.42588405478839764  0.8473442096179156  0.5153012916128645  1.0000
  C   C42       1.0  0.5739958989724911  0.15286169890188006  0.5170753272592847  1.0000
  C   C43       1.0  0.42641226179336655  0.1527110116573311  0.5147776646484914  1.0000
  C   C44       1.0  0.5733467652174299  0.8466803459279288  0.5194317608998062  1.0000
  C   C45       1.0  0.42631638765222135  0.7701468435073124  0.5099946409983502  1.0000
  C   C46       1.0  0.573695557024628  0.23004256457257816  0.511468685983516  1.0000
  C   C47       1.0  0.4267742058158602  0.2298675090636664  0.50923657289772  1.0000
  C   C48       1.0  0.573111942001482  0.769523637581493  0.5139921733617996  1.0000
  C   C49       1.0  0.4997960107375477  0.7305185636284435  0.50906558212764  1.0000
  C   C50       1.0  0.5002475549677001  0.2692594046828988  0.5073754226485789  1.0000
  C   C51       1.0  0.49957951543071033  0.8869308243994992  0.5197683338931398  1.0000
  C   C52       1.0  0.5002206559649238  0.11290472330744449  0.518529216868636  1.0000
  C   C53       1.0  0.49971703674308543  0.9658013587215921  0.522587966368242  1.0000
  C   C54       1.0  0.5001125469975561  0.03410358121634259  0.522129868336421  1.0000
  C   C55       1.0  0.16653256999948238  0.45115978566490605  0.4701626118560682  1.0000
  C   C56       1.0  0.833276684154285  0.5492374410273299  0.5293809689171809  1.0000
  C   C57       1.0  0.16694817229395645  0.5488160237020735  0.5297065874652844  1.0000
  C   C58       1.0  0.8334598387048542  0.45046531720351635  0.4705906148665946  1.0000
  C   C59       1.0  0.25062579113259187  0.4531292668750452  0.4711327504604768  1.0000
  C   C60       1.0  0.7491932499423013  0.547208898559269  0.5281570727374074  1.0000
  C   C61       1.0  0.2510470448616289  0.5468705161390375  0.5284397585830902  1.0000
  C   C62       1.0  0.7493470520590861  0.45239095494558496  0.4715801033777892  1.0000
  C   C63       1.0  0.12279392730007999  0.5000139586029421  0.5000069986780886  1.0000
  C   C64       1.0  0.8773185734145129  0.4998803122879422  0.500034212392535  1.0000
  C   C65       1.0  0.037022510814836096  0.5000160713919044  0.5001133741294339  1.0000
  C   C66       1.0  0.963096547941653  0.49996249986253355  0.5001071059092794  1.0000
  C   C67       1.0  0.4031381430811081  0.38147680529397116  0.3528467658864828  1.0000
  C   C68       1.0  0.6005608287409173  0.616653866036053  0.6460665747320675  1.0000
  C   C69       1.0  0.39844262640567507  0.3896873358872881  0.2498618643683557  1.0000
  C   C70       1.0  0.6069912921406625  0.608080242261714  0.748975545625619  1.0000
  N   N1        1.0  0.4999937640764287  0.49972839450362005  0.2027725672641125  1.0000
  N   N2        1.0  0.5002156349968843  0.5031519642047256  0.7967921201035537  1.0000
  N   N3        1.0  0.29191575845060663  0.5000146618739052  0.4996917861896862  1.0000
  N   N4        1.0  0.7081829085313488  0.49980348997798524  0.4998065472942629  1.0000
  O   O1        1.0  0.43090930559844753  0.38472473795739154  0.4998304578106882  1.0000
  O   O2        1.0  0.5692746752166896  0.6152065419449286  0.5012652650060332  1.0000
  O   O3        1.0  0.43158967473802073  0.6145565901614133  0.5011778071721977  1.0000
  O   O4        1.0  0.5686017223359698  0.3852592220411069  0.5001514692134137  1.0000
  O   O5        1.0  0.4316129604942418  0.49736633924076307  0.4272542605757081  1.0000
  O   O6        1.0  0.568217024351341  0.5024681831966404  0.5721962422501932  1.0000
  O   O7        1.0  0.43065764120428435  0.5003002214360208  0.5729399476790319  1.0000
  O   O8        1.0  0.5691983807860836  0.4995638491124196  0.42660682552676116  1.0000
  O   O9        1.0  0.5978656783386854  0.4081935573957978  0.20271097842066146  1.0000
  O   O10       1.0  0.41652543907820666  0.6060032955709218  0.7967068801840611  1.0000
  O   O11       1.0  0.5851849754015817  0.40117079978219294  0.7966888905547762  1.0000
  O   O12       1.0  0.4005414687455229  0.5897720288251093  0.2032156796034528  1.0000
