data_image0
_chemical_formula_structural       Cu4H28C32N12O16
_chemical_formula_sum              "Cu4 H28 C32 N12 O16"
_cell_length_a       9.165845095141497
_cell_length_b       9.951782498215039
_cell_length_c       10.239934327822994
_cell_angle_alpha    95.45884359086345
_cell_angle_beta     89.99941766438731
_cell_angle_gamma    89.99979623215133

_space_group_name_H-M_alt    "P 1"
_space_group_IT_number       1

loop_
  _space_group_symop_operation_xyz
  'x, y, z'

loop_
  _atom_site_type_symbol
  _atom_site_label
  _atom_site_symmetry_multiplicity
  _atom_site_fract_x
  _atom_site_fract_y
  _atom_site_fract_z
  _atom_site_occupancy
  Cu  Cu1       1.0  0.8293848909937439  0.9086158524924102  0.773986301239333  1.0000
  Cu  Cu2       1.0  0.3293848569126184  0.09138164362539669  0.7260129868130534  1.0000
  Cu  Cu3       1.0  0.1706156478305303  0.0913848022493653  0.22601770230478027  1.0000
  Cu  Cu4       1.0  0.6706167729482502  0.9086159965354451  0.2739868218430672  1.0000
  H   H1        1.0  0.39499880633362494  0.6974864993379981  0.7614293145449198  1.0000
  H   H2        1.0  0.89500270336373  0.30251376215772297  0.7385667125810613  1.0000
  H   H3        1.0  0.6050006414651393  0.3025171768212829  0.23857693139292735  1.0000
  H   H4        1.0  0.10500438156675782  0.6974808668313984  0.2614279249192464  1.0000
  H   H5        1.0  0.17958688869560296  0.40835750190402814  0.7124226364506328  1.0000
  H   H6        1.0  0.6795836436883462  0.5916396083434562  0.7875779751636642  1.0000
  H   H7        1.0  0.820415832140398  0.5916461845033041  0.28758068073030785  1.0000
  H   H8        1.0  0.3204190771743498  0.4083600506496623  0.21242202675015426  1.0000
  H   H9        1.0  0.16955580461499412  0.5650031251823293  0.5309755390134187  1.0000
  H   H10       1.0  0.6695500203710552  0.43499100199170454  0.9690239015723919  1.0000
  H   H11       1.0  0.8304381881765937  0.4349985458269145  0.4690266086988972  1.0000
  H   H12       1.0  0.33044942747304873  0.5650056253381237  0.030976786709771918  1.0000
  H   H13       1.0  0.0009804484081855005  0.7673588593978806  0.5689408019565223  1.0000
  H   H14       1.0  0.5009769775009119  0.2326369891452345  0.9310574047074668  1.0000
  H   H15       1.0  0.9990091803805757  0.23264181587632754  0.4310573441565282  1.0000
  H   H16       1.0  0.49902247035426944  0.7673596450211662  0.06894133108043123  1.0000
  H   H17       1.0  0.8334796179439579  0.7536916767320534  0.9880771298148476  1.0000
  H   H18       1.0  0.3334835915699657  0.24631084941930226  0.5119226025551528  1.0000
  H   H19       1.0  0.16651655688654196  0.24631102078136285  0.011920233282907613  1.0000
  H   H20       1.0  0.6665180382722583  0.7536898121567789  0.488079448489529  1.0000
  H   H21       1.0  0.913866323345829  0.6035753654711796  0.038960412961586116  1.0000
  H   H22       1.0  0.4138700644894443  0.3964264430202107  0.4610410220220729  1.0000
  H   H23       1.0  0.08613094246786092  0.3964323722897447  0.961039385782428  1.0000
  H   H24       1.0  0.5861304743590168  0.6035711937246192  0.5389597628863498  1.0000
  H   H25       1.0  0.19272086116572498  0.76121091087618  0.8991815791253758  1.0000
  H   H26       1.0  0.6927243897633489  0.23879322769884948  0.6008147031229784  1.0000
  H   H27       1.0  0.807272040665751  0.23880089874579366  0.10080884369376261  1.0000
  H   H28       1.0  0.3072761490831368  0.7611963200346566  0.39918921372249383  1.0000
  C   C1        1.0  0.2487029108611551  0.9668399418401847  0.9668101172370245  1.0000
  C   C2        1.0  0.74870146542456  0.0331568841235921  0.5331888628587863  1.0000
  C   C3        1.0  0.7512987190630867  0.033167847185986005  0.033175037779351206  1.0000
  C   C4        1.0  0.2513067104292546  0.9668356713360992  0.46682120132756927  1.0000
  C   C5        1.0  0.3895171242068614  0.8008372977050372  0.8074905345591931  1.0000
  C   C6        1.0  0.8895197664004968  0.19916297977444944  0.6925074970367504  1.0000
  C   C7        1.0  0.6104823236190954  0.1991643732928594  0.19251161312726592  1.0000
  C   C8        1.0  0.11048513648099603  0.8008346603795856  0.30749231160385193  1.0000
  C   C9        1.0  0.5220460488123989  0.8823305627531326  0.7872450373199344  1.0000
  C   C10       1.0  0.022043880529928096  0.11766418184701175  0.7127548254857247  1.0000
  C   C11       1.0  0.4779632180668684  0.11767009197048142  0.21275896618280402  1.0000
  C   C12       1.0  0.9779621133765772  0.8823284146366887  0.28724352374540274  1.0000
  C   C13       1.0  0.9593206254723866  0.6391578476826254  0.8510999712620021  1.0000
  C   C14       1.0  0.45932041365327353  0.3608421324063186  0.648899351061175  1.0000
  C   C15       1.0  0.040677731365832415  0.36084282415513513  0.14889915105680984  1.0000
  C   C16       1.0  0.5406833981976575  0.6391605479997652  0.3511028932360319  1.0000
  C   C17       1.0  0.11600385972794669  0.5013984205701689  0.7225494662165844  1.0000
  C   C18       1.0  0.6160010935022626  0.4985969389270011  0.7774505786920543  1.0000
  C   C19       1.0  0.8839955880929651  0.4986052692622637  0.2774528747327382  1.0000
  C   C20       1.0  0.3840016273654783  0.5014007012315743  0.22254922995889367  1.0000
  C   C21       1.0  0.10852323375839032  0.5857675230027651  0.6216258000966164  1.0000
  C   C22       1.0  0.6085163781881705  0.41422988989415876  0.8783735327681301  1.0000
  C   C23       1.0  0.891475123055159  0.4142341445791118  0.37837732384214473  1.0000
  C   C24       1.0  0.3914819786636414  0.5857697793629056  0.12162354042497732  1.0000
  C   C25       1.0  0.016659027366891597  0.6966083341857541  0.6427507987748415  1.0000
  C   C26       1.0  0.5166583001097607  0.3033894679234733  0.8572474524963454  1.0000
  C   C27       1.0  0.9833360564502129  0.3033903154059843  0.3572491065437405  1.0000
  C   C28       1.0  0.48334332976821065  0.6966102047450633  0.14274864443412136  1.0000
  C   C29       1.0  0.2746870533732563  0.8374022189456767  0.8840801914163167  1.0000
  C   C30       1.0  0.7746885263291148  0.1625965142682375  0.6159197118298394  1.0000
  C   C31       1.0  0.7253069394530414  0.16260553933179273  0.1159137498604323  1.0000
  C   C32       1.0  0.22531092149487367  0.8373970677183353  0.38408556779366176  1.0000
  N   N1        1.0  0.9414284952078377  0.7236303999151518  0.7546667788376527  1.0000
  N   N2        1.0  0.44142860948113594  0.2763686486508448  0.7453316402339213  1.0000
  N   N3        1.0  0.0585644065658073  0.2763712642597865  0.24533732137409467  1.0000
  N   N4        1.0  0.558571929395498  0.7236310274382518  0.25466348045458903  1.0000
  N   N5        1.0  0.8922557217616217  0.6667522262767492  0.9668448198186753  1.0000
  N   N6        1.0  0.3922580233372345  0.3332490423846152  0.5331552349409705  1.0000
  N   N7        1.0  0.1077393620182079  0.33325246614546694  0.03315957027703582  1.0000
  N   N8        1.0  0.6077392425102276  0.6667496174574481  0.4668417416258779  1.0000
  N   N9        1.0  0.04355376748337389  0.5259255796301333  0.835582716427162  1.0000
  N   N10       1.0  0.5435534718545085  0.4740751285246959  0.664418498498826  1.0000
  N   N11       1.0  0.9564424073043085  0.4740831572954676  0.16442010769485196  1.0000
  N   N12       1.0  0.4564492490187746  0.5259225150521658  0.3355803339049928  1.0000
  O   O1        1.0  0.2763629766498497  0.08165621861747502  0.9280456163469851  1.0000
  O   O2        1.0  0.7763685402010195  0.9183425110301117  0.5719532947438566  1.0000
  O   O3        1.0  0.7236331982063078  0.9183495276574831  0.07194617916229624  1.0000
  O   O4        1.0  0.2236341806325157  0.0816510641130748  0.4280539373583921  1.0000
  O   O5        1.0  0.19497481041300804  0.9483084937702346  0.07874530791149685  1.0000
  O   O6        1.0  0.6949743403280452  0.05169222754991411  0.4212521515740022  1.0000
  O   O7        1.0  0.8050202734559022  0.05169827559742401  0.9212426792458646  1.0000
  O   O8        1.0  0.3050381996192115  0.9482983466673363  0.5787469806103618  1.0000
  O   O9        1.0  0.5174787613026481  0.005251041542912598  0.7635232722447044  1.0000
  O   O10       1.0  0.0174750764540832  0.9947477494861231  0.7364799491359976  1.0000
  O   O11       1.0  0.4825272325555048  0.9947475909346795  0.23648151425781094  1.0000
  O   O12       1.0  0.9825265533901726  0.0052498804198606005  0.2635227882615112  1.0000
  O   O13       1.0  0.6419030471117609  0.8175554732586648  0.7964802898876047  1.0000
  O   O14       1.0  0.1419007304792856  0.18244080152157244  0.7035157011214325  1.0000
  O   O15       1.0  0.3581007647245897  0.1824441652224493  0.20352556950381742  1.0000
  O   O16       1.0  0.8580998084154958  0.8175538308994631  0.29647796016277544  1.0000
