data_image0
_chemical_formula_structural       Zn4H13C29NO15
_chemical_formula_sum              "Zn4 H13 C29 N1 O15"
_cell_length_a       16.116013848249292
_cell_length_b       16.123817196451796
_cell_length_c       16.1248197058816
_cell_angle_alpha    89.85768306832772
_cell_angle_beta     83.94061251440365
_cell_angle_gamma    84.37812949779682

_space_group_name_H-M_alt    "P 1"
_space_group_IT_number       1

loop_
  _space_group_symop_operation_xyz
  'x, y, z'

loop_
  _atom_site_type_symbol
  _atom_site_label
  _atom_site_symmetry_multiplicity
  _atom_site_fract_x
  _atom_site_fract_y
  _atom_site_fract_z
  _atom_site_occupancy
  Zn  Zn1       1.0  0.5703522865845797  0.571495680898977  0.42934812138003753  1.0000
  Zn  Zn2       1.0  0.5712443443202274  0.4227104784161995  0.5631827659157409  1.0000
  Zn  Zn3       1.0  0.4343771516183779  0.43688020213023987  0.42971868358938536  1.0000
  Zn  Zn4       1.0  0.4206067700794164  0.5705975101209332  0.5775922100367694  1.0000
  H   H1        1.0  0.427925787748265  0.008268127876263503  0.5726342976708237  1.0000
  H   H2        1.0  0.9438048402484113  0.3362914318444226  0.3937213272841332  1.0000
  H   H3        1.0  0.089668238840872  0.2838982845886875  0.33202291487388885  1.0000
  H   H4        1.0  0.018459108130222994  0.2907634024498834  0.25439295581297466  1.0000
  H   H5        1.0  0.0892312483132898  0.3682286243848836  0.2604537122712145  1.0000
  H   H6        1.0  0.5711154376604171  0.9918895600650971  0.4282230387212066  1.0000
  H   H7        1.0  0.9813852589985925  0.5592290804897859  0.5692994857778614  1.0000
  H   H8        1.0  0.6676176360452999  0.5771695912810915  0.06387308688539403  1.0000
  H   H9        1.0  0.5866772721473765  0.6614256660908778  0.0720236156591127  1.0000
  H   H10       1.0  0.6420077601800783  0.713111863361334  0.9310363436533958  1.0000
  H   H11       1.0  0.7206472364259182  0.7068371656794171  0.0011714677641095205  1.0000
  H   H12       1.0  0.7228617397056992  0.6287511474166793  0.9228566035061476  1.0000
  H   H13       1.0  0.9432104117579029  0.42095088158617944  0.3219933813767354  1.0000
  C   C1        1.0  0.48973991365865277  0.4887090702009971  0.7241134928275841  1.0000
  C   C2        1.0  0.5166512588718674  0.5150304926120911  0.18590561545008194  1.0000
  C   C3        1.0  0.8164989516451228  0.483207439513734  0.48052526700915604  1.0000
  C   C4        1.0  0.5123231456419789  0.5109502738839281  0.27551644508735507  1.0000
  C   C5        1.0  0.9814335726656507  0.47398296567938303  0.46984691431875075  1.0000
  C   C6        1.0  0.020839191569912388  0.5197359780428457  0.5230425428223028  1.0000
  C   C7        1.0  0.10770124512749388  0.5172225646957004  0.5198523986210404  1.0000
  C   C8        1.0  0.8927655592254808  0.47882504294162237  0.47548237003297783  1.0000
  C   C9        1.0  0.18403564430903427  0.5148534249281056  0.516961732941283  1.0000
  C   C10       1.0  0.7259924124330083  0.4885300855902699  0.48666616244706506  1.0000
  C   C11       1.0  0.273130589576617  0.5109217143212419  0.5122712626434092  1.0000
  C   C12       1.0  0.47979045110901103  0.8898749994438263  0.5205337376951318  1.0000
  C   C13       1.0  0.513602324921983  0.2760144312851551  0.4867372835250662  1.0000
  C   C14       1.0  0.4889737474566544  0.7247423696066804  0.511777965698684  1.0000
  C   C15       1.0  0.518387446054433  0.18640688123929286  0.48159245563117975  1.0000
  C   C16       1.0  0.5246938804435003  0.0234259825842358  0.4750346179035104  1.0000
  C   C17       1.0  0.47444018368118146  0.9770581735935056  0.5257607744298056  1.0000
  C   C18       1.0  0.6287840185490123  0.6207464440820161  0.027909987238494693  1.0000
  C   C19       1.0  0.681473345964136  0.670112822590383  0.9666737220589424  1.0000
  C   C20       1.0  0.4205491776258724  0.4249204336723055  0.01935703376855  1.0000
  C   C21       1.0  0.983722925103201  0.37691194360719743  0.3559115889946653  1.0000
  C   C22       1.0  0.04948558811783241  0.3271628643260128  0.2973734758920727  1.0000
  C   C23       1.0  0.5208331856365971  0.11055055137415341  0.4789758836165916  1.0000
  C   C24       1.0  0.48375616430849533  0.8139719161645473  0.5167863480152448  1.0000
  C   C25       1.0  0.48503915682719884  0.4846098081717257  0.8138368816341311  1.0000
  C   C26       1.0  0.4768549608379828  0.477617969421658  0.977277358239554  1.0000
  C   C27       1.0  0.5254579220464562  0.5234328106452538  0.02261520278427301  1.0000
  C   C28       1.0  0.52040501841892  0.5188142181504816  0.11010545185390436  1.0000
  C   C29       1.0  0.4814338504290631  0.4816467012416368  0.8896232678008359  1.0000
  N   N1        1.0  0.37370285866330016  0.38112102857416363  0.05225912746826819  1.0000
  O   O1        1.0  0.5006173992271526  0.4998610600586205  0.49957139572686043  1.0000
  O   O2        1.0  0.5597341790063695  0.30562249657153023  0.5366967459340515  1.0000
  O   O3        1.0  0.43862582786306337  0.6888510391022464  0.5632175239848394  1.0000
  O   O4        1.0  0.4637917975454684  0.31592869203147694  0.44114100349829494  1.0000
  O   O5        1.0  0.5438782121582831  0.6900283450741467  0.4560690968557779  1.0000
  O   O6        1.0  0.5778300886513036  0.5727116808597399  0.980095751800448  1.0000
  O   O7        1.0  0.027480094186422804  0.4239668147801581  0.4114835313225952  1.0000
  O   O8        1.0  0.6908474468350005  0.5427281380622162  0.44073380588282857  1.0000
  O   O9        1.0  0.30415962546864245  0.556754670444917  0.5636314723685132  1.0000
  O   O10       1.0  0.545211024349065  0.4375891106409853  0.6841840602319919  1.0000
  O   O11       1.0  0.4627341510869698  0.46166051396043173  0.3106280728696333  1.0000
  O   O12       1.0  0.43842184235356285  0.54282103550414  0.694164291470038  1.0000
  O   O13       1.0  0.5590417108098646  0.5574371033367811  0.30967344546566267  1.0000
  O   O14       1.0  0.6913482389637337  0.4383422996396292  0.5372547289547568  1.0000
  O   O15       1.0  0.31426152181305866  0.461602957684228  0.45677498682903206  1.0000
