data_image0
_chemical_formula_structural       Cu4H36C20N4O20
_chemical_formula_sum              "Cu4 H36 C20 N4 O20"
_cell_length_a       6.944322035808047
_cell_length_b       9.94983755440274
_cell_length_c       11.37883296544706
_cell_angle_alpha    90.00102530469769
_cell_angle_beta     90.0000773382432
_cell_angle_gamma    90.00168328579286

_space_group_name_H-M_alt    "P 1"
_space_group_IT_number       1

loop_
  _space_group_symop_operation_xyz
  'x, y, z'

loop_
  _atom_site_type_symbol
  _atom_site_label
  _atom_site_symmetry_multiplicity
  _atom_site_fract_x
  _atom_site_fract_y
  _atom_site_fract_z
  _atom_site_occupancy
  Cu  Cu1       1.0  0.6198492097250534  0.05043644572026552  0.9818008835547191  1.0000
  Cu  Cu2       1.0  0.880137226420892  0.9495694341160505  0.4818078221600075  1.0000
  Cu  Cu3       1.0  0.11984948070317356  0.4495866876429988  0.018189139082302606  1.0000
  Cu  Cu4       1.0  0.3801537908057781  0.550412242273268  0.518195655799282  1.0000
  H   H1        1.0  0.7195450446091128  0.29315741992622435  0.22441147579318255  1.0000
  H   H2        1.0  0.7804309015785335  0.7068422438301101  0.7243992696526577  1.0000
  H   H3        1.0  0.21956980072946658  0.2068557728802958  0.7755927131473329  1.0000
  H   H4        1.0  0.28042668019639894  0.7931373125316983  0.27559970897085867  1.0000
  H   H5        1.0  0.7712206531760515  0.8120772051042452  0.0466820899179652  1.0000
  H   H6        1.0  0.7287823709520891  0.18793795671825822  0.5466739256022494  1.0000
  H   H7        1.0  0.2712118050517631  0.6879634628426177  0.9533080912226454  1.0000
  H   H8        1.0  0.22879071906830006  0.31204226576916483  0.45331445396827535  1.0000
  H   H9        1.0  0.5941011573828803  0.8135286858591612  0.9475520736035324  1.0000
  H   H10       1.0  0.9058866642137386  0.18647449039954017  0.44754345482553504  1.0000
  H   H11       1.0  0.0941152969208616  0.686503191625107  0.052444951227009505  1.0000
  H   H12       1.0  0.4058894694312869  0.31351050238000516  0.5524512633876384  1.0000
  H   H13       1.0  0.7324293524461749  0.029623388181462915  0.20288258636034587  1.0000
  H   H14       1.0  0.7675753599750548  0.9703748352341679  0.7028938688851626  1.0000
  H   H15       1.0  0.23244754707776136  0.47039409853580605  0.7971110703058957  1.0000
  H   H16       1.0  0.2675763284358865  0.5295923874104392  0.29710861138070044  1.0000
  H   H17       1.0  0.8592069218303846  0.13434819095443376  0.11716027912374473  1.0000
  H   H18       1.0  0.640781814207031  0.8656663875311282  0.6171618622545055  1.0000
  H   H19       1.0  0.3592066070615231  0.3656830464368641  0.8828449361060609  1.0000
  H   H20       1.0  0.1408001246279511  0.6343051749506474  0.38284048429508744  1.0000
  H   H21       1.0  0.5365478599662338  0.13624064152926962  0.35250236050674033  1.0000
  H   H22       1.0  0.963448450178184  0.8637455351264977  0.8525104056450632  1.0000
  H   H23       1.0  0.036539893156650294  0.36375961491840064  0.6474910893659784  1.0000
  H   H24       1.0  0.46346646419728177  0.6362399225536991  0.14749228140859574  1.0000
  H   H25       1.0  0.4103527424723551  0.2832724294225599  0.31032338413508853  1.0000
  H   H26       1.0  0.08964091342881628  0.7167092983374489  0.8103076176152445  1.0000
  H   H27       1.0  0.9103688287844631  0.21670863841453789  0.6896845211366982  1.0000
  H   H28       1.0  0.5896171421852682  0.7832842922871138  0.18968412923874212  1.0000
  H   H29       1.0  0.3396720101069447  0.999114540983726  0.21301234946403017  1.0000
  H   H30       1.0  0.1603229310706382  0.0008722523221891004  0.7130222462798842  1.0000
  H   H31       1.0  0.8396651001632377  0.5008672800560421  0.7870060258162966  1.0000
  H   H32       1.0  0.6603541463892809  0.4991316412531079  0.2869915471868723  1.0000
  H   H33       1.0  0.23346290955718974  0.14756424460760806  0.15459271484375145  1.0000
  H   H34       1.0  0.2665232987897354  0.8524374465324771  0.6545968579701766  1.0000
  H   H35       1.0  0.733448744737771  0.3523989915496843  0.8454062154152241  1.0000
  H   H36       1.0  0.7665590747896754  0.6476111624083672  0.34539859124981837  1.0000
  C   C1        1.0  0.5156935054830355  0.2934362513717091  0.08429682578203312  1.0000
  C   C2        1.0  0.9842922979363136  0.7065656011943134  0.584290103253835  1.0000
  C   C3        1.0  0.015715593486206093  0.20658868824696697  0.9157141787965486  1.0000
  C   C4        1.0  0.4842883106024443  0.7934062288119111  0.41571260566948354  1.0000
  C   C5        1.0  0.6161785454867822  0.22180602190258722  0.1858199047320781  1.0000
  C   C6        1.0  0.8838088594158503  0.7781898456833789  0.6858177243692439  1.0000
  C   C7        1.0  0.11618753529337059  0.27819693284425995  0.8141859327230777  1.0000
  C   C8        1.0  0.38381764719837713  0.7217959288752243  0.3141883939659494  1.0000
  C   C9        1.0  0.4656376536195025  0.1866771488996833  0.2785812572036832  1.0000
  C   C10       1.0  0.03435163176963839  0.8133079565498708  0.7785827790024985  1.0000
  C   C11       1.0  0.9656404266330865  0.3133151444826014  0.7214179182247167  1.0000
  C   C12       1.0  0.5343643152050817  0.6866794338991442  0.22141857656696126  1.0000
  C   C13       1.0  0.2963479621235479  0.10220920135057551  0.23438440340753175  1.0000
  C   C14       1.0  0.20363837296255838  0.897780034580713  0.734390955089822  1.0000
  C   C15       1.0  0.7963470296243997  0.3977674324300225  0.7656189874281412  1.0000
  C   C16       1.0  0.7036649828444296  0.6022350761032842  0.2656149734174918  1.0000
  C   C17       1.0  0.1357520220110402  0.09919529304010415  0.3246158680976877  1.0000
  C   C18       1.0  0.3642330166896102  0.9007957695484595  0.8246200004073856  1.0000
  C   C19       1.0  0.6357597084423218  0.4007909920221665  0.6753803228016013  1.0000
  C   C20       1.0  0.8642550406882136  0.5992227552312033  0.1753755516454589  1.0000
  N   N1        1.0  0.7228042359444657  0.10375150459709208  0.14067204249097645  1.0000
  N   N2        1.0  0.7771902973218657  0.8962484743630204  0.64067864745347  1.0000
  N   N3        1.0  0.2228051240981727  0.396272812703181  0.8593321499631872  1.0000
  N   N4        1.0  0.2772030103087316  0.6037209629480885  0.35932823710303563  1.0000
  O   O1        1.0  0.7092667861643418  0.8634396111883972  0.9814936195992133  1.0000
  O   O2        1.0  0.7907282895754333  0.13656324729030445  0.48149024170115967  1.0000
  O   O3        1.0  0.20926300784712734  0.6365916993462761  0.01849737493713381  1.0000
  O   O4        1.0  0.29073738422226103  0.3634132670066848  0.5185017184887216  1.0000
  O   O5        1.0  0.5196963209432466  0.23575599419888968  0.9817574761912695  1.0000
  O   O6        1.0  0.980303075270612  0.7642458646038366  0.48175192230209535  1.0000
  O   O7        1.0  0.019709239140510693  0.26427707071019313  0.018249138545734005  1.0000
  O   O8        1.0  0.48030555288306687  0.7357329158973729  0.5182455095227213  1.0000
  O   O9        1.0  0.4275862985479648  0.40050158522296914  0.1041370946522306  1.0000
  O   O10       1.0  0.0724012695113387  0.5995000893723843  0.604126486583674  1.0000
  O   O11       1.0  0.9276123609553861  0.09950497518938314  0.8958752231305456  1.0000
  O   O12       1.0  0.5724084991851299  0.9005082107245177  0.3958687575151672  1.0000
  O   O13       1.0  0.0492633944628906  0.9872914661873016  0.342506929233359  1.0000
  O   O14       1.0  0.4507331929790865  0.012702973792841004  0.8425058947490885  1.0000
  O   O15       1.0  0.5492725980707219  0.5126922210479209  0.6574909267370261  1.0000
  O   O16       1.0  0.9507406826528636  0.48732618917324555  0.1574800828788412  1.0000
  O   O17       1.0  0.0920768848554658  0.20930468133843064  0.3757107077744309  1.0000
  O   O18       1.0  0.40791687551942596  0.7906964611005096  0.8757140235547993  1.0000
  O   O19       1.0  0.5920829057273238  0.2906756499536983  0.6242845581774434  1.0000
  O   O20       1.0  0.9079317621475338  0.7093410830988917  0.1242842112028342  1.0000
