data_image0
_chemical_formula_structural       Zn2H40C60N4O10
_chemical_formula_sum              "Zn2 H40 C60 N4 O10"
_cell_length_a       8.70653410497436
_cell_length_b       10.950255961966773
_cell_length_c       14.7344
_cell_angle_alpha    109.84786119097976
_cell_angle_beta     105.15004040315131
_cell_angle_gamma    95.52937032827126

_space_group_name_H-M_alt    "P 1"
_space_group_IT_number       1

loop_
  _space_group_symop_operation_xyz
  'x, y, z'

loop_
  _atom_site_type_symbol
  _atom_site_label
  _atom_site_symmetry_multiplicity
  _atom_site_fract_x
  _atom_site_fract_y
  _atom_site_fract_z
  _atom_site_occupancy
  Zn  Zn1       1.0  0.6328766725309194  0.88177104716263  0.7638811026839891  1.0000
  Zn  Zn2       1.0  0.3671225310669683  0.1182300253838449  0.23611931643260686  1.0000
  H   H1        1.0  0.44935250431922913  0.0785661362973329  0.5332826518824093  1.0000
  H   H2        1.0  0.5835093703261549  0.4550552359770634  0.5334980056081379  1.0000
  H   H3        1.0  0.5506464514931224  0.9214339445279478  0.466715442679977  1.0000
  H   H4        1.0  0.41649102319031783  0.5449458365694042  0.4665039546352717  1.0000
  H   H5        1.0  0.2601311792527738  0.1851622803741648  0.4425820167179353  1.0000
  H   H6        1.0  0.6820693271230951  0.2587380756317756  0.44303584943259733  1.0000
  H   H7        1.0  0.7398689664781557  0.814837800451116  0.5574155829195676  1.0000
  H   H8        1.0  0.3179296286892495  0.7412620051934979  0.5569642811814788  1.0000
  H   H9        1.0  0.9546789825466745  0.1768972759574368  0.6287910288693511  1.0000
  H   H10       1.0  0.17445984405581777  0.45238056392140175  0.6290710543915738  1.0000
  H   H11       1.0  0.04532210531730389  0.82310181314665  0.37120578734074894  1.0000
  H   H12       1.0  0.8255400538895825  0.5476185251826848  0.37092829279509937  1.0000
  H   H13       1.0  0.148638710638906  0.0712273994742247  0.7222426181428859  1.0000
  H   H14       1.0  0.074097728282787  0.6506573653426955  0.7221037261281965  1.0000
  H   H15       1.0  0.8513566754176763  0.928772681351056  0.2777542464585638  1.0000
  H   H16       1.0  0.9259036073667345  0.3493427154825852  0.2778967720039064  1.0000
  H   H17       1.0  0.7841141867669705  0.1018001803908106  0.7251675366824202  1.0000
  H   H18       1.0  0.4413798913987961  0.6243142753113133  0.7252409662032805  1.0000
  H   H19       1.0  0.215885958963959  0.898199900434463  0.2748327776906693  1.0000
  H   H20       1.0  0.5586195599846205  0.3756877889563484  0.27475974141584913  1.0000
  H   H21       1.0  0.9907180545593094  0.3099079139914949  0.8143371647525087  1.0000
  H   H22       1.0  0.3235901213623293  0.5052492206835453  0.8146249082170203  1.0000
  H   H23       1.0  0.009284718794333487  0.6900931585549728  0.18566380564113427  1.0000
  H   H24       1.0  0.6764090822355513  0.4947518518629225  0.18537483221567905  1.0000
  H   H25       1.0  0.05209231675341639  0.2333272035211706  0.09119429371433803  1.0000
  H   H26       1.0  0.5381442053821246  0.857432225660908  0.0907592985953585  1.0000
  H   H27       1.0  0.947909018896098  0.7666728773041029  0.9088062044177648  1.0000
  H   H28       1.0  0.46185832018597495  0.1425678551643657  0.9092420619796614  1.0000
  H   H29       1.0  0.8520198844257435  0.028422729371655502  0.989097986979658  1.0000
  H   H30       1.0  0.6363855115889905  0.9604363555791906  0.9884339634865287  1.0000
  H   H31       1.0  0.14798026130518588  0.9715773514536181  0.01090232739343125  1.0000
  H   H32       1.0  0.36361607184606726  0.0395647169672841  0.01156750183199761  1.0000
  H   H33       1.0  0.1931260815425304  0.443469949008481  0.8864677063359567  1.0000
  H   H34       1.0  0.8068752541069912  0.5565301318167997  0.11353347048004285  1.0000
  H   H35       1.0  0.16727230426267425  0.4277045572142981  0.17021714839915356  1.0000
  H   H36       1.0  0.5020523532290609  0.741883814381076  0.17007716981711243  1.0000
  H   H37       1.0  0.8327278414682553  0.5722955236109826  0.8297838446578326  1.0000
  H   H38       1.0  0.4979477925018685  0.2581162664441976  0.8299238232398738  1.0000
  H   H39       1.0  0.3809159027873292  0.6308695523924968  0.2627239981949573  1.0000
  H   H40       1.0  0.6190830530250152  0.3691305284327839  0.7372754537352223  1.0000
  C   C1        1.0  0.34163880115750084  0.1000309497837293  0.5549515506521986  1.0000
  C   C2        1.0  0.7130695028800459  0.455381512249339  0.5552096684484482  1.0000
  C   C3        1.0  0.6583572792465944  0.8999671475991633  0.44504763543879733  1.0000
  C   C4        1.0  0.2869306428508835  0.5446185685759417  0.4447913246085379  1.0000
  C   C5        1.0  0.23545171450016508  0.1593904217495563  0.5032765196899334  1.0000
  C   C6        1.0  0.7675136129340885  0.3448710446264514  0.5036459873312255  1.0000
  C   C7        1.0  0.7645443659039372  0.8406076756333363  0.496719951665476  1.0000
  C   C8        1.0  0.23248559066379929  0.6551300279200234  0.4963537531014738  1.0000
  C   C9        1.0  0.097608124723827  0.1869513454050917  0.5313471755144761  1.0000
  C   C10       1.0  0.9336725341320147  0.3454849200444912  0.5315905006203681  1.0000
  C   C11       1.0  0.9023891455988604  0.8130467519778009  0.4686488009160571  1.0000
  C   C12       1.0  0.06632761159892198  0.6545151607807895  0.4684084563849353  1.0000
  C   C13       1.0  0.0656861376144064  0.1571620242304306  0.6107064168770933  1.0000
  C   C14       1.0  0.04521114472943571  0.4540198790522894  0.6109154550742417  1.0000
  C   C15       1.0  0.934311628279353  0.8428380565948501  0.38929013655848627  1.0000
  C   C16       1.0  0.9547885054304217  0.5459782183306032  0.38908292492600793  1.0000
  C   C17       1.0  0.1726914547737834  0.0985532852071813  0.6619574710811876  1.0000
  C   C18       1.0  0.9895062900261632  0.5634116851702515  0.6620219897175376  1.0000
  C   C19       1.0  0.8273058155489038  0.9014448121757113  0.33803986271713876  1.0000
  C   C20       1.0  0.010495045623358084  0.4365883956550292  0.33797782973066864  1.0000
  C   C21       1.0  0.3114325932665308  0.0688125583709436  0.6343149346140537  1.0000
  C   C22       1.0  0.822906786586067  0.5655111589343775  0.6343920715268183  1.0000
  C   C23       1.0  0.6885663625458136  0.9311875224543371  0.3656831599483326  1.0000
  C   C24       1.0  0.17709360693039858  0.4344899136120972  0.36560921003268737  1.0000
  C   C25       1.0  0.42168071631861187  0.0026231025536632  0.6887941249885756  1.0000
  C   C26       1.0  0.7668486335397375  0.6856492558922227  0.6883529760434826  1.0000
  C   C27       1.0  0.5783182394937326  0.9973769782716105  0.3112046482577072  1.0000
  C   C28       1.0  0.23315270210978412  0.3143508249330509  0.31164955814031  1.0000
  C   C29       1.0  0.849053504170449  0.1349068089537582  0.8061454664404482  1.0000
  C   C30       1.0  0.45718115099681705  0.6718306127985514  0.8061139133484618  1.0000
  C   C31       1.0  0.15094688934602368  0.8650942635927095  0.19385513643516827  1.0000
  C   C32       1.0  0.5428183003866066  0.3281714514691103  0.19388747295455747  1.0000
  C   C33       1.0  0.965056464611223  0.2518019776127502  0.8575766833732176  1.0000
  C   C34       1.0  0.3922796211335609  0.6063571796821208  0.8576171397012687  1.0000
  C   C35       1.0  0.03494343333417047  0.7481971114913364  0.14242334249735225  1.0000
  C   C36       1.0  0.6077198302498559  0.3936448845855409  0.14238424660175752  1.0000
  C   C37       1.0  0.042693792013857  0.2945035087113155  0.9627044989608821  1.0000
  C   C38       1.0  0.4195127911935971  0.6683814064916902  0.962607187670166  1.0000
  C   C39       1.0  0.9573087335542496  0.7054965721139652  0.03729686161413072  1.0000
  C   C40       1.0  0.5804897343745097  0.3316186743335834  0.03739485158874336  1.0000
  C   C41       1.0  0.9979616799891814  0.21131793510019747  0.010202449738571257  1.0000
  C   C42       1.0  0.5114955415997001  0.7987808426263925  0.009874732065803565  1.0000
  C   C43       1.0  0.002038465741755071  0.7886821457250832  0.9897978646345182  1.0000
  C   C44       1.0  0.48850604183535734  0.20122022992007518  0.9901267332527227  1.0000
  C   C45       1.0  0.8828513052035589  0.0948710244201294  0.9529567838802322  1.0000
  C   C46       1.0  0.5695932820793388  0.8580827947630637  0.9525683283581048  1.0000
  C   C47       1.0  0.11714884052737767  0.9051290564051512  0.047042851808967674  1.0000
  C   C48       1.0  0.4304068636515908  0.1419172860622098  0.04743266469888142  1.0000
  C   C49       1.0  0.1663148318086272  0.418957576298105  0.02048395133012091  1.0000
  C   C50       1.0  0.3535168449211383  0.6015185719848333  0.02042516815988196  1.0000
  C   C51       1.0  0.8336865038408874  0.5810425045271685  0.9795172254858785  1.0000
  C   C52       1.0  0.6464835485953272  0.39848250056163437  0.9795761133996239  1.0000
  C   C53       1.0  0.2343269312228955  0.4846600970099574  0.9691089696191925  1.0000
  C   C54       1.0  0.7656741566410902  0.5153389920941294  0.030891918694287396  1.0000
  C   C55       1.0  0.2193854713422567  0.4743174366953369  0.12744789328568373  1.0000
  C   C56       1.0  0.40725154646117545  0.652673534526663  0.12739302991808193  1.0000
  C   C57       1.0  0.7806129888990155  0.5256806606875557  0.8725509816394422  1.0000
  C   C58       1.0  0.592748351484218  0.3473255545774236  0.8726076746363843  1.0000
  C   C59       1.0  0.3394706379259702  0.5895584144055519  0.17977963635302538  1.0000
  C   C60       1.0  0.6605306977235514  0.4104416664197217  0.8202215404629811  1.0000
  N   N1        1.0  0.806806525217361  0.05618298898685481  0.8525284061053641  1.0000
  N   N2        1.0  0.5458737397759208  0.7965197183079198  0.8523222481804994  1.0000
  N   N3        1.0  0.19319362051357558  0.9438170918384259  0.1474725869516221  1.0000
  N   N4        1.0  0.4541266537405519  0.2034813542385479  0.14767903337901342  1.0000
  O   O1        1.0  0.5315561255819219  0.9543025600047415  0.6517173814553062  1.0000
  O   O2        1.0  0.6195788745940262  0.6966811624355032  0.6513139988409195  1.0000
  O   O3        1.0  0.46844258244488657  0.0456965290993452  0.3482811032884499  1.0000
  O   O4        1.0  0.3804243943306886  0.3033218935533526  0.34868754855776984  1.0000
  O   O5        1.0  0.4062970515545955  0.9940408281806725  0.7698859725922135  1.0000
  O   O6        1.0  0.8636497801971713  0.7753980403540623  0.7691495418707819  1.0000
  O   O7        1.0  0.5937007143391639  0.0059592526446011  0.2301132955789527  1.0000
  O   O8        1.0  0.13635368750398408  0.2246010487500172  0.23085307132851804  1.0000
  O   O9        1.0  0.9877845615567722  0.2388173720418081  0.47584014422712084  1.0000
  O   O10       1.0  0.01221583195969336  0.7611837005046596  0.5241584225968056  1.0000
