data_image0
_chemical_formula_structural       Er8Si6H96C168O48
_chemical_formula_sum              "Er8 Si6 H96 C168 O48"
_cell_length_a       17.49705843844592
_cell_length_b       17.497212212720168
_cell_length_c       24.89211498845137
_cell_angle_alpha    89.99625121836151
_cell_angle_beta     90.00202329657583
_cell_angle_gamma    114.59732045251849

_space_group_name_H-M_alt    "P 1"
_space_group_IT_number       1

loop_
  _space_group_symop_operation_xyz
  'x, y, z'

loop_
  _atom_site_type_symbol
  _atom_site_label
  _atom_site_symmetry_multiplicity
  _atom_site_fract_x
  _atom_site_fract_y
  _atom_site_fract_z
  _atom_site_occupancy
  Er  Er1       1.0  0.0022010326807944004  0.6164523965897502  0.9999872052398189  1.0000
  Er  Er2       1.0  0.9977894580319955  0.38354892646495387  0.9999837613202301  1.0000
  Er  Er3       1.0  0.38354265378715974  0.9977888437833189  0.49999794329731617  1.0000
  Er  Er4       1.0  0.6164641194594721  0.002213187917554548  0.4999824631865906  1.0000
  Er  Er5       1.0  0.755725131960375  0.6688297225115178  7.687631701000004e-06  1.0000
  Er  Er6       1.0  0.24427631823465387  0.33120778056930783  0.9999695040976206  1.0000
  Er  Er7       1.0  0.3310967307637682  0.24424880486155595  0.5000315528729614  1.0000
  Er  Er8       1.0  0.6688880165213646  0.7557473459410177  0.4999464430689215  1.0000
  Si  Si1       1.0  0.9999523459227574  0.9999761085465836  0.2500160092912154  1.0000
  Si  Si2       1.0  5.75392605455e-05  3.123619077170001e-05  0.7500310848935712  1.0000
  Si  Si3       1.0  0.3795438365330739  0.6204427984202072  0.7500098677176865  1.0000
  Si  Si4       1.0  0.6204701609675851  0.379609953096363  0.7499746559579634  1.0000
  Si  Si5       1.0  0.6203914385919873  0.3795090076650781  0.24997455636631116  1.0000
  Si  Si6       1.0  0.37956791919393845  0.6204207426515537  0.2500182039993817  1.0000
  H   H1        1.0  0.08065085514830629  0.8188175248271037  0.1251498588122288  1.0000
  H   H2        1.0  0.9193453345721423  0.18119710795305366  0.1251228579360628  1.0000
  H   H3        1.0  0.18120164828319926  0.9193564531810311  0.3748704467710837  1.0000
  H   H4        1.0  0.8186554585888928  0.08054763577236912  0.37484114982459005  1.0000
  H   H5        1.0  0.919453306436516  0.1813108298201769  0.8748514361251692  1.0000
  H   H6        1.0  0.080549032379345  0.8186636783364634  0.8748683972083667  1.0000
  H   H7        1.0  0.8188929253601528  0.08070783726655142  0.625138884197824  1.0000
  H   H8        1.0  0.181296127642419  0.9194150647799831  0.6251617539597943  1.0000
  H   H9        1.0  0.8445820953306437  0.8737013844409844  0.19963957902904636  1.0000
  H   H10       1.0  0.1553173647715624  0.1262248666380898  0.1996574381591643  1.0000
  H   H11       1.0  0.1262200868681802  0.1553594872883011  0.3003786580739813  1.0000
  H   H12       1.0  0.8736937194190516  0.8445909126699362  0.3003672916631217  1.0000
  H   H13       1.0  0.15544487212300603  0.12629889331778807  0.8003898392526239  1.0000
  H   H14       1.0  0.8446334412528601  0.8737569353886842  0.8003647483893345  1.0000
  H   H15       1.0  0.873797166641772  0.8446732627095132  0.6996491524018822  1.0000
  H   H16       1.0  0.12631320592677037  0.1553917490396799  0.6996589129049722  1.0000
  H   H17       1.0  0.8183322912292468  0.7690964532146367  0.1273557219305701  1.0000
  H   H18       1.0  0.18161792046619502  0.23083395553744882  0.1273581615955237  1.0000
  H   H19       1.0  0.23085106462919916  0.18164186440083802  0.3726592789613505  1.0000
  H   H20       1.0  0.7689803042048027  0.8182435505320454  0.3725974933894705  1.0000
  H   H21       1.0  0.18175707528232718  0.2309884987892019  0.8726274958094677  1.0000
  H   H22       1.0  0.8182736955112517  0.769055960413553  0.8726077836226267  1.0000
  H   H23       1.0  0.7692213312194481  0.8184359134250627  0.6273412132782852  1.0000
  H   H24       1.0  0.2309738899821667  0.18170825007636182  0.6274074193473921  1.0000
  H   H25       1.0  0.1088070428050614  0.9259177485507877  0.1969299082073874  1.0000
  H   H26       1.0  0.8911313897000213  0.0741006710301663  0.196922813028408  1.0000
  H   H27       1.0  0.07407819466249779  0.8911723447149741  0.3030932108102959  1.0000
  H   H28       1.0  0.9258438463548657  0.10877785382568568  0.303103862819647  1.0000
  H   H29       1.0  0.8912440139815913  0.0741470066191781  0.8031147747661221  1.0000
  H   H30       1.0  0.10880893657947871  0.9258504093578636  0.8031287006537937  1.0000
  H   H31       1.0  0.9259691577787236  0.10888227183095715  0.696947455014417  1.0000
  H   H32       1.0  0.07415057050675239  0.8911915194228329  0.6969167176274951  1.0000
  H   H33       1.0  0.1989492995309803  0.7000293001306233  0.8727611068141883  1.0000
  H   H34       1.0  0.8010457752387907  0.2999834843890881  0.8727272650961808  1.0000
  H   H35       1.0  0.2999891413826319  0.801088838768294  0.6272598078818419  1.0000
  H   H36       1.0  0.7000376675763462  0.19897900611197628  0.6272341252668667  1.0000
  H   H37       1.0  0.801042460111823  0.2999572401757007  0.1272345657176146  1.0000
  H   H38       1.0  0.1989326599542522  0.7000134263861781  0.1272756382348703  1.0000
  H   H39       1.0  0.7000055422222785  0.19892694277373826  0.372733051876132  1.0000
  H   H40       1.0  0.29996141128464154  0.8010392055713709  0.3727422634107569  1.0000
  H   H41       1.0  0.30180363706837443  0.7264528280957239  0.7981353423349091  1.0000
  H   H42       1.0  0.69820602245985  0.27358847947834164  0.7980941170414226  1.0000
  H   H43       1.0  0.27354187039011174  0.6982236739167718  0.7018862853397323  1.0000
  H   H44       1.0  0.7264849877579563  0.30187956046762565  0.7018243770186743  1.0000
  H   H45       1.0  0.6981580593475413  0.2735072885567717  0.20184586801911308  1.0000
  H   H46       1.0  0.30180753540279437  0.7264329940887109  0.2018955289524698  1.0000
  H   H47       1.0  0.7264071344358457  0.3017465102199353  0.2980796587445269  1.0000
  H   H48       1.0  0.27355360012160895  0.6981667833027673  0.2981254970841647  1.0000
  H   H49       1.0  0.2500769145617312  0.46251571790030976  0.7966607999980937  1.0000
  H   H50       1.0  0.7499182329785583  0.5375241630367853  0.796655286859334  1.0000
  H   H51       1.0  0.5374756342015202  0.7498657256567256  0.7033330338216146  1.0000
  H   H52       1.0  0.46252368239566977  0.2501331422601609  0.7033155087230297  1.0000
  H   H53       1.0  0.74984505388705  0.5374441806084675  0.20331840119507658  1.0000
  H   H54       1.0  0.2501683836094272  0.4625093319722637  0.20331989736118317  1.0000
  H   H55       1.0  0.46248494347275226  0.2500762008550623  0.2966417492000062  1.0000
  H   H56       1.0  0.5374886362135172  0.7498855214591629  0.2966717269183476  1.0000
  H   H57       1.0  0.1506826582222516  0.4384502697857967  0.8726922194040228  1.0000
  H   H58       1.0  0.849309915034631  0.5615597476823382  0.8726900948574611  1.0000
  H   H59       1.0  0.5615585963409515  0.8492796980893899  0.627310180269788  1.0000
  H   H60       1.0  0.4384569273183486  0.15069935535008477  0.6273070870151116  1.0000
  H   H61       1.0  0.8492781865182905  0.5615380629374445  0.1273026492318436  1.0000
  H   H62       1.0  0.15073976914732165  0.43843870341932245  0.12729995385405599  1.0000
  H   H63       1.0  0.4384224780477268  0.15070232528319147  0.37269312517161524  1.0000
  H   H64       1.0  0.5615511299614936  0.8492997888540899  0.37269581663547047  1.0000
  H   H65       1.0  0.3892900588262478  0.6389453240474623  0.1296203344253612  1.0000
  H   H66       1.0  0.6106416525921431  0.3609353350422353  0.1295700679874585  1.0000
  H   H67       1.0  0.36102811755487346  0.6106924528891541  0.3704209826078753  1.0000
  H   H68       1.0  0.6384522607412677  0.3889939395853475  0.3704135060115235  1.0000
  H   H69       1.0  0.6109324232301248  0.3614547982648945  0.8703970250667934  1.0000
  H   H70       1.0  0.38910538708001496  0.638653423971796  0.8704236019923641  1.0000
  H   H71       1.0  0.6391116177863195  0.3894029290345954  0.6295939724800874  1.0000
  H   H72       1.0  0.3613882378358966  0.6109006579069599  0.629597030892441  1.0000
  H   H73       1.0  0.4982625957525144  0.6554185983585796  0.062423333038673  1.0000
  H   H74       1.0  0.5016103458009624  0.34444802714828177  0.0623984143353127  1.0000
  H   H75       1.0  0.3445367859824202  0.5016814550458975  0.4376003883972857  1.0000
  H   H76       1.0  0.654730464703583  0.49787032040386237  0.43762444890275287  1.0000
  H   H77       1.0  0.5020567478313681  0.3451750653115653  0.9376133064142279  1.0000
  H   H78       1.0  0.4980126712454265  0.6549528531753096  0.9376310127217238  1.0000
  H   H79       1.0  0.6556658442615201  0.4984353684031575  0.562412156581793  1.0000
  H   H80       1.0  0.3450585153201757  0.5019996428244156  0.5623876948590194  1.0000
  H   H81       1.0  0.663685690726126  0.6460098690587657  0.18755641203698298  1.0000
  H   H82       1.0  0.33633470932448256  0.35407550175857955  0.1875542290912193  1.0000
  H   H83       1.0  0.35400115648229047  0.3363153880312879  0.3124498322404818  1.0000
  H   H84       1.0  0.6465773669052552  0.6638114157320488  0.3124222356076274  1.0000
  H   H85       1.0  0.3362090763098066  0.35355846125438717  0.812427618657594  1.0000
  H   H86       1.0  0.6637488582239967  0.6463470611625084  0.8124430414606536  1.0000
  H   H87       1.0  0.6458368446799055  0.6636564550096721  0.6875386074988582  1.0000
  H   H88       1.0  0.3535981741432508  0.3362213731034345  0.6875770537616716  1.0000
  H   H89       1.0  0.553262238042592  0.6282288597687611  0.2553901732560746  1.0000
  H   H90       1.0  0.44679748322216983  0.3717782492620926  0.2553618169748404  1.0000
  H   H91       1.0  0.3717505352022171  0.4467817816686691  0.24463727639693636  1.0000
  H   H92       1.0  0.6286794025525424  0.5533639523134822  0.24461513596587284  1.0000
  H   H93       1.0  0.44663940198542207  0.37142810523531006  0.7446063092215667  1.0000
  H   H94       1.0  0.5533000338335227  0.6285541923530714  0.7446342506310941  1.0000
  H   H95       1.0  0.6281081545108265  0.5532056642710897  0.7553600013815397  1.0000
  H   H96       1.0  0.3714671584121945  0.44666515943223584  0.755393392999025  1.0000
  C   C1        1.0  0.9322174903942084  0.7260306970891294  0.0769514174337331  1.0000
  C   C2        1.0  0.0677715135562167  0.2739367912741812  0.0769289285753771  1.0000
  C   C3        1.0  0.2739378711382087  0.06778420773431998  0.42307399289938985  1.0000
  C   C4        1.0  0.7257964413571685  0.932095511570694  0.42298498029004616  1.0000
  C   C5        1.0  0.06789952658198929  0.2741471019272055  0.922998856350894  1.0000
  C   C6        1.0  0.9321042869019607  0.7258789991521367  0.9230241626791269  1.0000
  C   C7        1.0  0.7261982266227917  0.9322924921557101  0.576907216948328  1.0000
  C   C8        1.0  0.27411165448089747  0.06786423790433817  0.5770054692747522  1.0000
  C   C9        1.0  0.9479994642211053  0.7873233336710257  0.1218363018633184  1.0000
  C   C10       1.0  0.05196561501816179  0.2126321619229614  0.12181584544410379  1.0000
  C   C11       1.0  0.21264499488040658  0.05198810161081718  0.37818628296143697  1.0000
  C   C12       1.0  0.787170663652347  0.9478993033269775  0.3781442769817431  1.0000
  C   C13       1.0  0.05210352946746611  0.21279309724955203  0.8781517361245079  1.0000
  C   C14       1.0  0.9479155478840866  0.787223615259876  0.8781621524403675  1.0000
  C   C15       1.0  0.7874702805577272  0.9480900837569666  0.6218097907358882  1.0000
  C   C16       1.0  0.21278661981000369  0.05206066073976961  0.6218771066846926  1.0000
  C   C17       1.0  0.9787427329569524  0.907920046981879  0.20401133184562778  1.0000
  C   C18       1.0  0.021180447741279803  0.09204440193786209  0.2040209810644384  1.0000
  C   C19       1.0  0.09202423114250279  0.02121354900842219  0.2960201057360479  1.0000
  C   C20       1.0  0.9078675483354459  0.9787239442409186  0.2960074205295768  1.0000
  C   C21       1.0  0.0213003133941712  0.09212074727085451  0.7960277273096352  1.0000
  C   C22       1.0  0.9787729976687628  0.907922511461486  0.7960297289493566  1.0000
  C   C23       1.0  0.9080074745718106  0.9788258808248432  0.7040193550422842  1.0000
  C   C24       1.0  0.092145698340687  0.021256816207504393  0.7040396743109553  1.0000
  C   C25       1.0  0.029555425687384205  0.8313750878540844  0.1420852157370405  1.0000
  C   C26       1.0  0.9704152672006215  0.16862147945334263  0.1420785545949599  1.0000
  C   C27       1.0  0.1686256307442733  0.9704392829680799  0.3579320197612433  1.0000
  C   C28       1.0  0.831242525459153  0.029475620435967135  0.35791222552197866  1.0000
  C   C29       1.0  0.9705318499740726  0.16873526986537973  0.8579209002079508  1.0000
  C   C30       1.0  0.0294840032325183  0.8312573817281717  0.8579283678057124  1.0000
  C   C31       1.0  0.8314732802508757  0.029634842173990598  0.6420805249041166  1.0000
  C   C32       1.0  0.16872857268250388  0.9704918973926481  0.642113577213216  1.0000
  C   C33       1.0  0.897044499491187  0.8620593506837154  0.1839463785159765  1.0000
  C   C34       1.0  0.10287858862596269  0.13788406036119483  0.18394993193128067  1.0000
  C   C35       1.0  0.13788103149190792  0.10291145426582202  0.3160733377782705  1.0000
  C   C36       1.0  0.8619953097356187  0.8970170804794508  0.3160624718267186  1.0000
  C   C37       1.0  0.10300607593230639  0.13798634136391294  0.8160774147421604  1.0000
  C   C38       1.0  0.8970573688256279  0.8620611743132683  0.8160650240697294  1.0000
  C   C39       1.0  0.8621632450237229  0.8971332901608379  0.6839444294182043  1.0000
  C   C40       1.0  0.13799089144996657  0.10295453482470408  0.6839705622086425  1.0000
  C   C41       1.0  0.8815956151051481  0.8026864950194011  0.143349960571058  1.0000
  C   C42       1.0  0.11835153154230228  0.19725885139030203  0.1433483481941451  1.0000
  C   C43       1.0  0.1972669005230614  0.11838005551647512  0.356666900489742  1.0000
  C   C44       1.0  0.8025635300720566  0.8815184483613906  0.3566271395415441  1.0000
  C   C45       1.0  0.11849365770819989  0.19741041922069508  0.8566412915645144  1.0000
  C   C46       1.0  0.8815445424127333  0.8026255182273659  0.8566336665535416  1.0000
  C   C47       1.0  0.8028150440944373  0.8816863269554459  0.6433364042680408  1.0000
  C   C48       1.0  0.197405713661972  0.11844428499619401  0.6433962528790075  1.0000
  C   C49       1.0  0.04457407766008709  0.8910879067471598  0.1824924038998077  1.0000
  C   C50       1.0  0.955368840866697  0.10889774234688328  0.1824869178480881  1.0000
  C   C51       1.0  0.10890212830142329  0.9554046354850386  0.3175296680168174  1.0000
  C   C52       1.0  0.8910081921206157  0.04453584002800426  0.3175335747857062  1.0000
  C   C53       1.0  0.9554851099951802  0.108985429554444  0.8175422356364378  1.0000
  C   C54       1.0  0.044567879230001495  0.8910306675339044  0.8175525443029912  1.0000
  C   C55       1.0  0.8911691579433734  0.04465381155901574  0.6824953304072706  1.0000
  C   C56       1.0  0.10897483951443118  0.9554378649207325  0.6824954418252958  1.0000
  C   C57       1.0  0.1131554736943556  0.5540822449592328  0.9242202578881873  1.0000
  C   C58       1.0  0.8868454900597625  0.44590710507343084  0.9242027187303277  1.0000
  C   C59       1.0  0.44593935041333316  0.8868471928223228  0.5757778922314926  1.0000
  C   C60       1.0  0.5540943155872924  0.11314659784822811  0.5757862594227561  1.0000
  C   C61       1.0  0.8868570547201599  0.44590964549289674  0.0757637645046856  1.0000
  C   C62       1.0  0.11313689039916848  0.5540691844047602  0.07578090191134379  1.0000
  C   C63       1.0  0.5540662640721408  0.1131417745282022  0.4242197890860594  1.0000
  C   C64       1.0  0.4459116551629876  0.8868773833519086  0.4242182505629586  1.0000
  C   C65       1.0  0.1697466965093994  0.5680724348717944  0.8772463308875373  1.0000
  C   C66       1.0  0.8302540869615953  0.43194348876129146  0.8772272156534766  1.0000
  C   C67       1.0  0.43194613313723096  0.8302596880078854  0.6227649864029985  1.0000
  C   C68       1.0  0.5680853275452334  0.16977053212465876  0.6227566285174078  1.0000
  C   C69       1.0  0.8302437925965478  0.43191528332548057  0.12274211039561318  1.0000
  C   C70       1.0  0.16974772942864996  0.5680473025338911  0.1227668499716117  1.0000
  C   C71       1.0  0.5680368357735829  0.16972199343300073  0.3772310878644801  1.0000
  C   C72       1.0  0.43192820812022586  0.830253788872362  0.3772514971579994  1.0000
  C   C73       1.0  0.28345505812370675  0.5963050055190139  0.791946999493014  1.0000
  C   C74       1.0  0.7165494716631285  0.403736993492359  0.7919223208470852  1.0000
  C   C75       1.0  0.40368719441485007  0.7165235270511728  0.7080705757633295  1.0000
  C   C76       1.0  0.596326784562322  0.283543397074652  0.708030757984659  1.0000
  C   C77       1.0  0.7164713190829345  0.40365561349034357  0.20803180000510932  1.0000
  C   C78       1.0  0.2835043534096542  0.5962963569450396  0.2080669236434503  1.0000
  C   C79       1.0  0.5962702316452066  0.2834182100099625  0.29191184016237054  1.0000
  C   C80       1.0  0.4036985326656152  0.7165064799489684  0.2919596909681985  1.0000
  C   C81       1.0  0.2108211418217039  0.648807582981398  0.8554260242955323  1.0000
  C   C82       1.0  0.7891761861762063  0.35121119174872467  0.8554003671601506  1.0000
  C   C83       1.0  0.35120259665133347  0.7891905439638265  0.6445927185935715  1.0000
  C   C84       1.0  0.6488282088599105  0.21087852456604847  0.6445664087907375  1.0000
  C   C85       1.0  0.7891454758900593  0.3511683302551916  0.14456442562926947  1.0000
  C   C86       1.0  0.21082806405789256  0.6487909158339917  0.1445957069024288  1.0000
  C   C87       1.0  0.6487740867692507  0.2107884807577419  0.3554009452546438  1.0000
  C   C88       1.0  0.3511927397816734  0.7891655051868298  0.3554232367750814  1.0000
  C   C89       1.0  0.2675483672509102  0.6626681377034059  0.8134271714104955  1.0000
  C   C90       1.0  0.7324514511290231  0.3373664472965316  0.8133947065513497  1.0000
  C   C91       1.0  0.3373341436958199  0.7324508268282984  0.6865930981463393  1.0000
  C   C92       1.0  0.6626939034171073  0.26763661122920723  0.6865480448555488  1.0000
  C   C93       1.0  0.7323880354849024  0.3373007196135802  0.18655484189219607  1.0000
  C   C94       1.0  0.26758039707713976  0.6626547562134776  0.18659011887420007  1.0000
  C   C95       1.0  0.6626325945006073  0.2675097062902694  0.3133893174621534  1.0000
  C   C96       1.0  0.33733580911032846  0.7324156956557886  0.31343236075524317  1.0000
  C   C97       1.0  0.23896299176547586  0.5150363245099855  0.8127866437677227  1.0000
  C   C98       1.0  0.7610393366973155  0.4849988088260558  0.8127665593722284  1.0000
  C   C99       1.0  0.48495396413236586  0.7609972369330151  0.6872258137621046  1.0000
  C   C100      1.0  0.5150599877066284  0.23903903269792443  0.6871924414914687  1.0000
  C   C101      1.0  0.7609571088960365  0.48492049838115747  0.18719215573939607  1.0000
  C   C102      1.0  0.23903529290041797  0.5150353343365168  0.18721665935600376  1.0000
  C   C103      1.0  0.5150090697457728  0.23895315738656106  0.312756602034014  1.0000
  C   C104      1.0  0.48496164754676124  0.760997857151928  0.31280122158418067  1.0000
  C   C105      1.0  0.18305826969341873  0.500833572384103  0.8552603640198198  1.0000
  C   C106      1.0  0.8169403400578545  0.4991823295462226  0.8552510683430938  1.0000
  C   C107      1.0  0.4991700474762125  0.8169123093199888  0.6447457876309599  1.0000
  C   C108      1.0  0.500847984832255  0.18309704940303104  0.6447351296186525  1.0000
  C   C109      1.0  0.8168926030365213  0.49913968661790875  0.14472325629709806  1.0000
  C   C110      1.0  0.1831130618383057  0.5008245513960575  0.1447393819540537  1.0000
  C   C111      1.0  0.5008010638442428  0.1830535009499528  0.3552482781861173  1.0000
  C   C112      1.0  0.4991643026536605  0.8169256010226957  0.35527098741147256  1.0000
  C   C113      1.0  0.3670240321302742  0.5369455954941033  0.6982603104918965  1.0000
  C   C114      1.0  0.6330362197685204  0.4631555144259068  0.6982376265297318  1.0000
  C   C115      1.0  0.4630334016679072  0.6329723457156574  0.8017659694581738  1.0000
  C   C116      1.0  0.5369668118003402  0.3670732046956928  0.8017336634168116  1.0000
  C   C117      1.0  0.6329503692959547  0.46300274455833806  0.3017401835079241  1.0000
  C   C118      1.0  0.36699471872499595  0.5369013105653409  0.301760857006002  1.0000
  C   C119      1.0  0.5368743558552396  0.36695011072704636  0.1982313104351192  1.0000
  C   C120      1.0  0.4631106526912419  0.6330015712246039  0.1982792826985076  1.0000
  C   C121      1.0  0.342267667413978  0.3476377678283101  0.5795311888169081  1.0000
  C   C122      1.0  0.6577971719930886  0.6524883029922677  0.579515249252232  1.0000
  C   C123      1.0  0.6523547907265623  0.657681981030379  0.9204933191054536  1.0000
  C   C124      1.0  0.3476641541433594  0.3423404626755726  0.9204807117889118  1.0000
  C   C125      1.0  0.6577193585845579  0.6523090497767614  0.420476938315403  1.0000
  C   C126      1.0  0.3421912930388302  0.34751627744096686  0.4204679690789845  1.0000
  C   C127      1.0  0.3475490528059595  0.3422571090232082  0.0795268591724323  1.0000
  C   C128      1.0  0.6524428076135251  0.6577524956162862  0.0795591504302209  1.0000
  C   C129      1.0  0.34915392853196886  0.41239404209392205  0.6207018543400123  1.0000
  C   C130      1.0  0.6509433937251714  0.5877585114793787  0.6207015870199939  1.0000
  C   C131      1.0  0.5875898170755604  0.6508017023093584  0.8793221995238268  1.0000
  C   C132      1.0  0.412419165594315  0.3492174941610173  0.8793080850356387  1.0000
  C   C133      1.0  0.6508286752883592  0.5875537641264189  0.3793026571113032  1.0000
  C   C134      1.0  0.3490870055117767  0.41228665487272315  0.3792972985117443  1.0000
  C   C135      1.0  0.412274165602696  0.3490736723880588  0.12071244213655057  1.0000
  C   C136      1.0  0.5876819695397728  0.6508947198884203  0.12072454546047598  1.0000
  C   C137      1.0  0.3594035856549169  0.5508913533490087  0.6431978784498327  1.0000
  C   C138      1.0  0.6409248915022799  0.44933453040044924  0.6431872782473889  1.0000
  C   C139      1.0  0.4490919990146125  0.6405907827730672  0.8568264284296347  1.0000
  C   C140      1.0  0.5509294906924252  0.359485512390293  0.8567984385494967  1.0000
  C   C141      1.0  0.6404759319256995  0.4490134506173149  0.3568062309690703  1.0000
  C   C142      1.0  0.3591796317102265  0.5507476827730073  0.3568156246941854  1.0000
  C   C143      1.0  0.5507065315749173  0.3591066137482882  0.1431780864959009  1.0000
  C   C144      1.0  0.449240238995948  0.640806009996986  0.1432241453259522  1.0000
  C   C145      1.0  0.3502486023184588  0.48956135574071175  0.604861336260825  1.0000
  C   C146      1.0  0.6501854609406478  0.5107281472253006  0.6048702293074086  1.0000
  C   C147      1.0  0.5104394582001319  0.6497387479983133  0.8951624185451549  1.0000
  C   C148      1.0  0.48960326482958283  0.3503463930117547  0.8951421521656825  1.0000
  C   C149      1.0  0.6496233280900867  0.5103459562436186  0.3951487990097675  1.0000
  C   C150      1.0  0.3499524065644195  0.4893641593957484  0.3951370928889517  1.0000
  C   C151      1.0  0.48931997406624816  0.3498781091080474  0.10486419309995651  1.0000
  C   C152      1.0  0.5106036732979079  0.650025439955492  0.10489127713042018  1.0000
  C   C153      1.0  0.3554440342951962  0.39680178448868014  0.6752107187640275  1.0000
  C   C154      1.0  0.644244853385139  0.6031713538187803  0.6751902898357045  1.0000
  C   C155      1.0  0.6031762093468204  0.644512396034756  0.8248145159705373  1.0000
  C   C156      1.0  0.3968071984660781  0.3554621852230754  0.8247949005322964  1.0000
  C   C157      1.0  0.6446447359946958  0.6031983274902685  0.32479339107624844  1.0000
  C   C158      1.0  0.35566980828050276  0.39683575043347463  0.3248045777883206  1.0000
  C   C159      1.0  0.39683463620405485  0.355694249921946  0.1752016401354481  1.0000
  C   C160      1.0  0.6031633131020441  0.6443387687650173  0.1752200592319682  1.0000
  C   C161      1.0  0.3643364010083303  0.45856889275081875  0.7132097913144051  1.0000
  C   C162      1.0  0.6354449734097257  0.5414135214621962  0.7131915903114958  1.0000
  C   C163      1.0  0.5413964937530267  0.6356412167471747  0.7868183807120132  1.0000
  C   C164      1.0  0.45857682060903215  0.3643520572048757  0.7867914666184959  1.0000
  C   C165      1.0  0.6357291844693335  0.541412274556869  0.2867959256072936  1.0000
  C   C166      1.0  0.3645061351220846  0.4586101313674646  0.2868101068590292  1.0000
  C   C167      1.0  0.45860037285029154  0.36449836660375456  0.21319054556128947  1.0000
  C   C168      1.0  0.5414059449124763  0.6354946555060081  0.2132202783739103  1.0000
  O   O1        1.0  0.8572013537269568  0.6905581015543659  0.05806137892832199  1.0000
  O   O2        1.0  0.14278086929571293  0.30935855085928676  0.05802868795625219  1.0000
  O   O3        1.0  0.30938681459407746  0.14279556181650577  0.44196945254883246  1.0000
  O   O4        1.0  0.6900347706792542  0.8570262351081083  0.44177454405890154  1.0000
  O   O5        1.0  0.14295210676050377  0.30987800732039267  0.9418137651593383  1.0000
  O   O6        1.0  0.8570653426364742  0.6902092640644639  0.941851694862386  1.0000
  O   O7        1.0  0.6908676730176779  0.8573026058243871  0.5579703797213469  1.0000
  O   O8        1.0  0.3097876639253343  0.14292016879963404  0.5581845695167971  1.0000
  O   O9        1.0  0.9926639937165261  0.7112069361283915  0.0593115891539  1.0000
  O   O10       1.0  0.0073614633023311  0.2888278930090636  0.05928730213722129  1.0000
  O   O11       1.0  0.2888093698467387  0.007369155865397693  0.4407209204887295  1.0000
  O   O12       1.0  0.7111822441618756  0.9926193956469263  0.44071753004064357  1.0000
  O   O13       1.0  0.007386140583172099  0.2888145655893339  0.9407001526478354  1.0000
  O   O14       1.0  0.992585495537405  0.711161998956463  0.9407340807090632  1.0000
  O   O15       1.0  0.7112349958918571  0.99266419604195  0.5592872053644342  1.0000
  O   O16       1.0  0.288810687887718  0.0073784984416959565  0.5592982289258543  1.0000
  O   O17       1.0  0.1007359018731364  0.6160504314731272  0.9423099430003319  1.0000
  O   O18       1.0  0.8992106940926377  0.38390511429427226  0.9422891481578332  1.0000
  O   O19       1.0  0.3839497298378163  0.8992234448484099  0.5576791311710494  1.0000
  O   O20       1.0  0.6160700020145669  0.10074841792527423  0.557694443963257  1.0000
  O   O21       1.0  0.8992464741240979  0.3839264276345276  0.057674079361774495  1.0000
  O   O22       1.0  0.1007490765801577  0.6160593316261967  0.0577037123477453  1.0000
  O   O23       1.0  0.6160634271539536  0.10076871109369287  0.4423093102936235  1.0000
  O   O24       1.0  0.38392590294275664  0.8992724523322694  0.44229439835613255  1.0000
  O   O25       1.0  0.07964545271965309  0.48002126264514533  0.9439522937132523  1.0000
  O   O26       1.0  0.9203999635387986  0.5199610408330455  0.9439442277967771  1.0000
  O   O27       1.0  0.5200038686927827  0.9203567643911016  0.5560477022108614  1.0000
  O   O28       1.0  0.4800327001983574  0.0796366556470929  0.5560501365218542  1.0000
  O   O29       1.0  0.9203625866401453  0.5199801605492809  0.056041370010746  1.0000
  O   O30       1.0  0.0796574818727436  0.4800126863690579  0.0560317609051992  1.0000
  O   O31       1.0  0.4800017859886195  0.07962707603179804  0.4439523896273839  1.0000
  O   O32       1.0  0.5199788515211594  0.9203994010956648  0.4439451333812698  1.0000
  O   O33       1.0  0.26996600576212865  0.3013504062447865  0.559513767618128  1.0000
  O   O34       1.0  0.7299061181556822  0.6977439192569078  0.5588105595217455  1.0000
  O   O35       1.0  0.6986112796981486  0.7299819240093869  0.9405379349451691  1.0000
  O   O36       1.0  0.3012863222665557  0.2700262363662204  0.9404483637444088  1.0000
  O   O37       1.0  0.7300755926207998  0.6988749632987563  0.4403031285545964  1.0000
  O   O38       1.0  0.2700155802283248  0.30192839358378626  0.4409509086724696  1.0000
  O   O39       1.0  0.3020731777240186  0.27013112223923497  0.0589403104134973  1.0000
  O   O40       1.0  0.6981084945978464  0.7299263271166653  0.0591041898868028  1.0000
  O   O41       1.0  0.40859014806324717  0.3396041525192288  0.5639670351383614  1.0000
  O   O42       1.0  0.591720548971395  0.6615542817713518  0.5646311860046822  1.0000
  O   O43       1.0  0.6604164004213756  0.5913554058491853  0.9360167338098576  1.0000
  O   O44       1.0  0.33973806211727714  0.4087011571007792  0.9360900482963855  1.0000
  O   O45       1.0  0.5913253212559155  0.6600586494499938  0.436214244852998  1.0000
  O   O46       1.0  0.408347984833462  0.3387750440377745  0.4355661498646199  1.0000
  O   O47       1.0  0.3387181787002618  0.40840995369479316  0.0645321203140483  1.0000
  O   O48       1.0  0.6610870709076764  0.5915678933978512  0.0644130177436679  1.0000
