data_image0
_chemical_formula_structural       Zn6H102C72N30O12
_chemical_formula_sum              "Zn6 H102 C72 N30 O12"
_cell_length_a       10.42161769702914
_cell_length_b       17.568931566090956
_cell_length_c       17.56675285022544
_cell_angle_alpha    119.98527112094929
_cell_angle_beta     90.00022082426693
_cell_angle_gamma    90.00002756787417

_space_group_name_H-M_alt    "P 1"
_space_group_IT_number       1

loop_
  _space_group_symop_operation_xyz
  'x, y, z'

loop_
  _atom_site_type_symbol
  _atom_site_label
  _atom_site_symmetry_multiplicity
  _atom_site_fract_x
  _atom_site_fract_y
  _atom_site_fract_z
  _atom_site_occupancy
  Zn  Zn1       1.0  0.8626151193471044  0.5318988045780201  0.07797147093941692  1.0000
  Zn  Zn2       1.0  0.6961509306899814  0.07789974277334039  0.5459873963970312  1.0000
  Zn  Zn3       1.0  0.529622986078799  0.5460509505614369  0.4680649262060754  1.0000
  Zn  Zn4       1.0  0.3626148496729371  0.468103219540396  0.922029270185597  1.0000
  Zn  Zn5       1.0  0.1961537573527039  0.9221004128433421  0.4540132250456422  1.0000
  Zn  Zn6       1.0  0.0296230443784324  0.45394799367600325  0.531934917928183  1.0000
  H   H1        1.0  0.9662175763499479  0.36689264346572537  0.8425666085108505  1.0000
  H   H2        1.0  0.799586023483073  0.8424807139010896  0.4756971989596082  1.0000
  H   H3        1.0  0.633284943429544  0.47573889579233253  0.6331972006528801  1.0000
  H   H4        1.0  0.4662201470529154  0.6331089185583778  0.15743512404705487  1.0000
  H   H5        1.0  0.29958386174623547  0.1575171198125603  0.5243005816535843  1.0000
  H   H6        1.0  0.1332820676046822  0.5242624318156928  0.3668064806903431  1.0000
  H   H7        1.0  0.9929484636384487  0.47801563358400795  0.80119926716786  1.0000
  H   H8        1.0  0.8263702191507464  0.8011682289437516  0.32324069256650734  1.0000
  H   H9        1.0  0.6598331790961255  0.32324293846145485  0.5222073037944598  1.0000
  H   H10       1.0  0.49295408798793966  0.5219854097230439  0.1988019824573897  1.0000
  H   H11       1.0  0.32637292277266283  0.1988320196896823  0.6767582243525966  1.0000
  H   H12       1.0  0.15982827619588144  0.676758375057645  0.47779311225394144  1.0000
  H   H13       1.0  0.7837463002974446  0.5808838515615948  0.9361969326153032  1.0000
  H   H14       1.0  0.6171658153671443  0.9361469850708064  0.35529628935311314  1.0000
  H   H15       1.0  0.45063596878880224  0.3553315344539315  0.41926615846539056  1.0000
  H   H16       1.0  0.2837461611976551  0.419119643033909  0.06380648812054092  1.0000
  H   H17       1.0  0.11716243870556302  0.0638569411663214  0.6447047103764875  1.0000
  H   H18       1.0  0.9506357677825932  0.6446707195600043  0.5807382173252407  1.0000
  H   H19       1.0  0.8112043101886782  0.5909786415844851  0.8429297980188154  1.0000
  H   H20       1.0  0.6446515753704035  0.8428897609682127  0.2519310850774801  1.0000
  H   H21       1.0  0.4781882366493234  0.2519719075026004  0.4092065087488806  1.0000
  H   H22       1.0  0.3112057290396919  0.4090243356622096  0.15707314212622947  1.0000
  H   H23       1.0  0.14465182907252944  0.15711454567003375  0.7480696745672973  1.0000
  H   H24       1.0  0.9781891482618619  0.748031143835867  0.5907960719319763  1.0000
  H   H25       1.0  0.03979353235438049  0.6359462388373134  0.8897418532296302  1.0000
  H   H26       1.0  0.8732159248831692  0.889766512493317  0.25378095572385456  1.0000
  H   H27       1.0  0.7067629695101303  0.25386004947477403  0.3641688899692356  1.0000
  H   H28       1.0  0.5397929103301919  0.36405296500487344  0.11025892151790376  1.0000
  H   H29       1.0  0.3732161268092398  0.11023586021783438  0.7462194908736779  1.0000
  H   H30       1.0  0.20676683025551768  0.7461417692525458  0.6358301221609395  1.0000
  H   H31       1.0  0.008335208119795802  0.635206166029427  0.989258465230215  1.0000
  H   H32       1.0  0.8417720386660152  0.9892162119274417  0.3540336023919792  1.0000
  H   H33       1.0  0.6752276031664836  0.3540957508361586  0.3649146817903244  1.0000
  H   H34       1.0  0.5083329795472198  0.36479656933747856  0.010743169744905858  1.0000
  H   H35       1.0  0.34176958477095093  0.010784722960927877  0.6459647067636284  1.0000
  H   H36       1.0  0.17523137409909853  0.645906160760518  0.6350863530228209  1.0000
  H   H37       1.0  0.9249721285466845  0.7089192851736358  0.9664355929507735  1.0000
  H   H38       1.0  0.7583815902542527  0.9664585570019781  0.2575336997628029  1.0000
  H   H39       1.0  0.5918583075754783  0.257589972654408  0.2911907689165787  1.0000
  H   H40       1.0  0.4249697650313138  0.2910844113456079  0.033564932213721484  1.0000
  H   H41       1.0  0.25837786457319123  0.033543270773336305  0.7424667053048071  1.0000
  H   H42       1.0  0.09186551872826948  0.742413248674012  0.7088108066490406  1.0000
  H   H43       1.0  0.8386170320836472  0.35346673103447324  0.7236975030644148  1.0000
  H   H44       1.0  0.6720353745282566  0.7236246471927075  0.3702616740726299  1.0000
  H   H45       1.0  0.5053950090168868  0.3705128940289698  0.6467927940417795  1.0000
  H   H46       1.0  0.3386242259291947  0.6465353119815732  0.2763065115859363  1.0000
  H   H47       1.0  0.1720407165043056  0.27637752292177  0.6297356708618623  1.0000
  H   H48       1.0  0.0053834980126197  0.629488521294661  0.35321014626124037  1.0000
  H   H49       1.0  0.7944693959086069  0.44801497468277074  0.717679922729154  1.0000
  H   H50       1.0  0.6278941048796299  0.7176336323111131  0.2696903001232512  1.0000
  H   H51       1.0  0.4612354877783389  0.26988210822622705  0.5523236076031495  1.0000
  H   H52       1.0  0.2944775083128662  0.551986087479591  0.282323709176282  1.0000
  H   H53       1.0  0.127900106444045  0.28237007369562434  0.7303098363855228  1.0000
  H   H54       1.0  0.9612258573950284  0.7301189394248837  0.4476808906377984  1.0000
  H   H55       1.0  0.7110986847181592  0.42169361587438214  0.7895476835451377  1.0000
  H   H56       1.0  0.5445216017863359  0.789481534450779  0.36785807916650987  1.0000
  H   H57       1.0  0.37800381430777463  0.3680624654844636  0.5784256278336529  1.0000
  H   H58       1.0  0.2111053921951509  0.5783095655317325  0.21045795604334916  1.0000
  H   H59       1.0  0.04452306541120521  0.21052144543513435  0.6321412194209446  1.0000
  H   H60       1.0  0.8779977690071945  0.6319375276946958  0.4215783616586395  1.0000
  H   H61       1.0  0.74011592459496  0.3600354595727497  0.9916343881831298  1.0000
  H   H62       1.0  0.5737425777909949  0.9917376904127694  0.6317042737571299  1.0000
  H   H63       1.0  0.4075053040466444  0.631719665721491  0.6398504360322195  1.0000
  H   H64       1.0  0.24011945009480945  0.6399664860743499  0.008368082361179844  1.0000
  H   H65       1.0  0.07373255748130703  0.00826229871158561  0.36829930390067744  1.0000
  H   H66       1.0  0.907503433214899  0.3682813929861127  0.3601480850502342  1.0000
  H   H67       1.0  0.9061879385012688  0.3347405874787556  0.9665932474023579  1.0000
  H   H68       1.0  0.7398204308020837  0.9665694829036584  0.6317982888260687  1.0000
  H   H69       1.0  0.5734719428893911  0.6316822460910032  0.6652298238609333  1.0000
  H   H70       1.0  0.40619164840536115  0.6652598755992257  0.03340927773675153  1.0000
  H   H71       1.0  0.23981426936948216  0.03342578558904573  0.3681994756794539  1.0000
  H   H72       1.0  0.0734687264072562  0.3683188165785938  0.33477154028891226  1.0000
  H   H73       1.0  0.5493614103748072  0.21428466389615164  0.6974113304977437  1.0000
  H   H74       1.0  0.3825749127185106  0.6976847197606233  0.4835935854776423  1.0000
  H   H75       1.0  0.2157475780050504  0.4834384010068435  0.7856351901206723  1.0000
  H   H76       1.0  0.04936697416503219  0.7857108790151486  0.302589739983965  1.0000
  H   H77       1.0  0.8825730433154888  0.3023144965953649  0.5164043744021782  1.0000
  H   H78       1.0  0.7157525604754654  0.5165644205175823  0.21436286486132874  1.0000
  H   H79       1.0  0.5864061238146904  0.32262854907899213  0.855549114617702  1.0000
  H   H80       1.0  0.41972868279363956  0.8558182181944787  0.5334077906771099  1.0000
  H   H81       1.0  0.253160823993845  0.5332485041090893  0.6773071481866142  1.0000
  H   H82       1.0  0.0864163238974953  0.6773646109765606  0.1444522518894047  1.0000
  H   H83       1.0  0.9197244360916912  0.14418137268637582  0.4665945376917407  1.0000
  H   H84       1.0  0.7531597524213326  0.4667545401543692  0.3226931517610225  1.0000
  H   H85       1.0  0.9658144528177035  0.21144588979052525  0.8274467531455089  1.0000
  H   H86       1.0  0.7993168418512584  0.8273817216369538  0.6160243636100802  1.0000
  H   H87       1.0  0.6326186253850778  0.6158733816597107  0.7885775175106604  1.0000
  H   H88       1.0  0.46581533459508506  0.7885600076800187  0.17255405582182687  1.0000
  H   H89       1.0  0.2993118605972072  0.17261374710393812  0.38397236618567393  1.0000
  H   H90       1.0  0.13261845775428333  0.38412689472890804  0.21142379692149402  1.0000
  H   H91       1.0  0.9098878368800386  0.10487845289681291  0.6699851363393778  1.0000
  H   H92       1.0  0.7434557992815628  0.6698505871766046  0.5648904484782805  1.0000
  H   H93       1.0  0.5763800805663237  0.5648843259018649  0.8950704546288649  1.0000
  H   H94       1.0  0.4098850360000342  0.8951227625689242  0.3300155167769603  1.0000
  H   H95       1.0  0.2434541629603117  0.33014665991245107  0.43510535552184854  1.0000
  H   H96       1.0  0.07638022266026212  0.4351143777857587  0.10492986895724953  1.0000
  H   H97       1.0  0.7466185929435198  0.4516002590090693  0.9302707403496341  1.0000
  H   H98       1.0  0.5800030781019387  0.9302112521983615  0.47873311102635085  1.0000
  H   H99       1.0  0.4136517802261182  0.4787112369778726  0.5484572125241058  1.0000
  H   H100      1.0  0.24661956153714473  0.5484011298127456  0.06973118203663375  1.0000
  H   H101      1.0  0.0800027413456874  0.06978761058442735  0.5212693485936698  1.0000
  H   H102      1.0  0.9136496743301097  0.5212889997063286  0.45154443884501216  1.0000
  C   C1        1.0  0.06143903357040871  0.47547053290232844  0.9442184139570177  1.0000
  C   C2        1.0  0.8948687561894814  0.9441724929641497  0.4687442662014618  1.0000
  C   C3        1.0  0.7284281651150054  0.4687192990651713  0.5244971427113116  1.0000
  C   C4        1.0  0.561440112145334  0.5245319738728398  0.05578372093719953  1.0000
  C   C5        1.0  0.3948675130512598  0.055827556069012095  0.5312552002580233  1.0000
  C   C6        1.0  0.22842696217752936  0.5312811577944316  0.47550448061183187  1.0000
  C   C7        1.0  0.9391816495105871  0.4352163846128718  0.8898848872652466  1.0000
  C   C8        1.0  0.7725738539635215  0.8898168028719625  0.45467208066762765  1.0000
  C   C9        1.0  0.6061919892168462  0.45468117373012273  0.5648395850800512  1.0000
  C   C10       1.0  0.4391848139018464  0.5647842287897689  0.11011651771585203  1.0000
  C   C11       1.0  0.2725737080304285  0.11018406576786803  0.5453293562786216  1.0000
  C   C12       1.0  0.10618765700888838  0.5453214173390108  0.4351626940902307  1.0000
  C   C13       1.0  0.9033003020242916  0.47838856661471163  0.8345445289644787  1.0000
  C   C14       1.0  0.7367239892633535  0.8345003494024397  0.3561771511463406  1.0000
  C   C15       1.0  0.5702568871910857  0.3562231616381625  0.5217760924922034  1.0000
  C   C16       1.0  0.4033028304229589  0.5216125482709586  0.1654573294518329  1.0000
  C   C17       1.0  0.23672453120289566  0.1655017662055372  0.6438228553979003  1.0000
  C   C18       1.0  0.0702529186939529  0.6437783758698715  0.4782270569394883  1.0000
  C   C19       1.0  0.8582940707288531  0.5744670343218419  0.8887770064455155  1.0000
  C   C20       1.0  0.6917270229159983  0.8887270171474312  0.3142935108933642  1.0000
  C   C21       1.0  0.5252529869039222  0.3143343451851522  0.42568208715139383  1.0000
  C   C22       1.0  0.35829520520945124  0.42553668887348545  0.11122542810671383  1.0000
  C   C23       1.0  0.1917249128315746  0.11127525414694639  0.6857072483993605  1.0000
  C   C24       1.0  0.025255436537904102  0.685667764805281  0.5743202597857363  1.0000
  C   C25       1.0  0.9643574422331866  0.6420614398940149  0.9362810191213244  1.0000
  C   C26       1.0  0.7977700155998659  0.9362710489219525  0.294217282837053  1.0000
  C   C27       1.0  0.6312775648776707  0.29426902717244735  0.35805673361893053  1.0000
  C   C28       1.0  0.4643534125399782  0.3579384114050654  0.06371900007268748  1.0000
  C   C29       1.0  0.2977689554097013  0.06373085305001096  0.7057832492242471  1.0000
  C   C30       1.0  0.1312823906967964  0.7057328016385898  0.641944159499758  1.0000
  C   C31       1.0  0.8062306610987093  0.4220474996224796  0.7626252986790619  1.0000
  C   C32       1.0  0.6396669991196973  0.7625656838721825  0.3405962689558706  1.0000
  C   C33       1.0  0.47308788854388684  0.3407700730227179  0.5781694406273206  1.0000
  C   C34       1.0  0.30623754347443116  0.577953584692871  0.23737837114304478  1.0000
  C   C35       1.0  0.1396705820627773  0.2374365775409831  0.659403095973268  1.0000
  C   C36       1.0  0.97308090850121  0.6592292015653031  0.4218346150040234  1.0000
  C   C37       1.0  0.8164618795822847  0.3502239026965413  0.9444204432158474  1.0000
  C   C38       1.0  0.6499993111224002  0.9444727250038983  0.594264249238286  1.0000
  C   C39       1.0  0.48359235619683727  0.5942080980113931  0.6497259812342265  1.0000
  C   C40       1.0  0.3164657206536248  0.6497777058649773  0.0555804778219836  1.0000
  C   C41       1.0  0.14999245315083704  0.055526445974301564  0.40573598298148994  1.0000
  C   C42       1.0  0.9835904528894374  0.4057910681788074  0.3502714065043763  1.0000
  C   C43       1.0  0.6399827628141423  0.21653297262354715  0.7292705213764992  1.0000
  C   C44       1.0  0.4733277272039729  0.7294481833048252  0.5129998257220691  1.0000
  C   C45       1.0  0.30647629999879916  0.5129497680566291  0.7834059575570367  1.0000
  C   C46       1.0  0.1399890769171108  0.7834653458983354  0.2707327890415101  1.0000
  C   C47       1.0  0.9733285181481649  0.2705543779828191  0.48700094363968577  1.0000
  C   C48       1.0  0.80647551470404  0.48705125261950855  0.21659436216084063  1.0000
  C   C49       1.0  0.6622608056358033  0.2765724930065404  0.8171514512373436  1.0000
  C   C50       1.0  0.4956228586369776  0.8173509574379454  0.5409563174597452  1.0000
  C   C51       1.0  0.328927525428611  0.540835790610963  0.7233984707150186  1.0000
  C   C52       1.0  0.1622645778418033  0.7234256270294637  0.18285103317735718  1.0000
  C   C53       1.0  0.9956157167780192  0.1826492813754683  0.4590434738242877  1.0000
  C   C54       1.0  0.8289328642748472  0.4591662582334379  0.2766009352795038  1.0000
  C   C55       1.0  0.7819995334243189  0.27756561015517894  0.8537221936117093  1.0000
  C   C56       1.0  0.6154949742375706  0.8538179356452035  0.576350298599671  1.0000
  C   C57       1.0  0.44884462068255  0.5762131805054976  0.7223902253835207  1.0000
  C   C58       1.0  0.2820001881597278  0.7224349476160654  0.14627960243002758  1.0000
  C   C59       1.0  0.1154892692283269  0.14617823680516312  0.4236482033152385  1.0000
  C   C60       1.0  0.9488460979276355  0.423787867897751  0.2776096555132241  1.0000
  C   C61       1.0  0.8718999655504192  0.21362779187862213  0.8011382731593885  1.0000
  C   C62       1.0  0.7054128904597478  0.8011294698726062  0.5875473547703365  1.0000
  C   C63       1.0  0.5386389545457817  0.5874568131084745  0.7863581473251247  1.0000
  C   C64       1.0  0.3719029357721908  0.7863740092846784  0.19886160008120868  1.0000
  C   C65       1.0  0.2054081167896982  0.19886531700901608  0.4124518540418621  1.0000
  C   C66       1.0  0.038637865898778  0.41254271718249674  0.21364229499373272  1.0000
  C   C67       1.0  0.8422881306752006  0.15493660242565724  0.7137584479433985  1.0000
  C   C68       1.0  0.6757379044884146  0.7137539236600929  0.5588540325469252  1.0000
  C   C69       1.0  0.5088203461643347  0.55876829255174  0.8450384941664952  1.0000
  C   C70       1.0  0.3422907597559472  0.8450648143348333  0.286241658532802  1.0000
  C   C71       1.0  0.17573627023677574  0.2862413123040641  0.44114229883224004  1.0000
  C   C72       1.0  0.008822738132352  0.4412342032857524  0.1549622445559251  1.0000
  N   N1        1.0  0.8335475605366016  0.4353234262704364  0.9461636599563479  1.0000
  N   N2        1.0  0.6669724129005985  0.9461221926481329  0.51082757700366  1.0000
  N   N3        1.0  0.5005942029383448  0.5108378241886131  0.5646541587730028  1.0000
  N   N4        1.0  0.33354939904204167  0.5646775572245913  0.053837973574047626  1.0000
  N   N5        1.0  0.166970894243299  0.05387635305842766  0.4891733673575446  1.0000
  N   N6        1.0  0.0005917434154554002  0.4891616344379415  0.4353461608862972  1.0000
  N   N7        1.0  0.7295473596015186  0.15763943808262615  0.6775774641697725  1.0000
  N   N8        1.0  0.5629424143637536  0.6776605016858498  0.5200288623146321  1.0000
  N   N9        1.0  0.39598083322118777  0.5199718093983139  0.8422769970845325  1.0000
  N   N10       1.0  0.22955022185198  0.8423607804413892  0.3224232649439926  1.0000
  N   N11       1.0  0.0629439420071165  0.3223363172050853  0.47996758624015  1.0000
  N   N12       1.0  0.8959854161117632  0.48002979667891305  0.157722055971817  1.0000
  N   N13       1.0  0.8553515898433024  0.6611629524008508  0.1281445917087324  1.0000
  N   N14       1.0  0.6886624138933898  0.12815913367351334  0.46692256842743524  1.0000
  N   N15       1.0  0.5221121815899182  0.4669728884219779  0.338794417425575  1.0000
  N   N16       1.0  0.3553595199669743  0.3388404607159786  0.8718535846597534  1.0000
  N   N17       1.0  0.1886762674561311  0.8718362148269776  0.5330725781158989  1.0000
  N   N18       1.0  0.0221131481913162  0.53302816568403  0.6612055546159183  1.0000
  N   N19       1.0  0.7603068044266763  0.6898040805103561  0.11209631018528637  1.0000
  N   N20       1.0  0.5935541866072213  0.1121019362696743  0.42228539406374926  1.0000
  N   N21       1.0  0.42702318543247497  0.42232302085424334  0.3102512934335736  1.0000
  N   N22       1.0  0.26031673379871023  0.3102003798966849  0.8879014714669965  1.0000
  N   N23       1.0  0.09357410152603761  0.8878921831187511  0.5777070810905585  1.0000
  N   N24       1.0  0.927020758442474  0.5776752051777408  0.6897490223942243  1.0000
  N   N25       1.0  0.6691654487643675  0.7191598962727355  0.09750624853317885  1.0000
  N   N26       1.0  0.5023810519316427  0.09747666873678906  0.37836966795764954  1.0000
  N   N27       1.0  0.3358548837358555  0.37839774893529216  0.28098795746741706  1.0000
  N   N28       1.0  0.1691735291097132  0.2808416993667251  0.9024905180343056  1.0000
  N   N29       1.0  0.0023945482471035002  0.9025194670171504  0.6216260162461822  1.0000
  N   N30       1.0  0.835854603505993  0.6216006339932818  0.7190117357291329  1.0000
  O   O1        1.0  0.0581486695693627  0.5107803397547882  0.0279474010258908  1.0000
  O   O2        1.0  0.8915580986010242  0.02790197382707777  0.5170900627944307  1.0000
  O   O3        1.0  0.7251464302773414  0.5170935992430543  0.4891242449298829  1.0000
  O   O4        1.0  0.5581489643350039  0.48922362758909105  0.9720555327907122  1.0000
  O   O5        1.0  0.39155827706487395  0.972097828523694  0.482908495169447  1.0000
  O   O6        1.0  0.22514541652988385  0.48290481559607207  0.5108759891625639  1.0000
  O   O7        1.0  0.1596031091628021  0.47019856781203395  0.8997104254211906  1.0000
  O   O8        1.0  0.9930549019346557  0.8996861927785389  0.42954147348942223  1.0000
  O   O9        1.0  0.8265808737086145  0.4294618310282346  0.5297546662875234  1.0000
  O   O10       1.0  0.6596054413961809  0.5298020880324046  0.10029064730819208  1.0000
  O   O11       1.0  0.4930539516354742  0.10031395302711142  0.5704595360552178  1.0000
  O   O12       1.0  0.32658062938121907  0.5705390511655538  0.4702481713085049  1.0000
