data_image0
_chemical_formula_structural       Zn4H36C28N8Cl4O20
_chemical_formula_sum              "Zn4 H36 C28 N8 Cl4 O20"
_cell_length_a       5.770760235441864
_cell_length_b       10.458803091654927
_cell_length_c       19.10957592465333
_cell_angle_alpha    105.63541018940211
_cell_angle_beta     90.00035949198657
_cell_angle_gamma    89.99980600667165

_space_group_name_H-M_alt    "P 1"
_space_group_IT_number       1

loop_
  _space_group_symop_operation_xyz
  'x, y, z'

loop_
  _atom_site_type_symbol
  _atom_site_label
  _atom_site_symmetry_multiplicity
  _atom_site_fract_x
  _atom_site_fract_y
  _atom_site_fract_z
  _atom_site_occupancy
  Zn  Zn1       1.0  0.5578421105852485  0.5598737642497084  0.8884187385648801  1.0000
  Zn  Zn2       1.0  0.05784277756191611  0.940138249531877  0.6115711876724887  1.0000
  Zn  Zn3       1.0  0.44214512666540884  0.44013521241343057  0.11158187391734492  1.0000
  Zn  Zn4       1.0  0.9421808497646608  0.0598712900550993  0.38842633838687846  1.0000
  H   H1        1.0  0.1281340588613133  0.35120615995231924  0.9581247222693461  1.0000
  H   H2        1.0  0.6281526101413987  0.1487786478832618  0.5418681927673177  1.0000
  H   H3        1.0  0.8718462470022104  0.6487931983953955  0.04187693456278651  1.0000
  H   H4        1.0  0.3718727494175695  0.8512269951105791  0.45812208573177315  1.0000
  H   H5        1.0  0.9136080375647707  0.29983278090937665  0.011013751218570214  1.0000
  H   H6        1.0  0.41362667300415984  0.20017023574423118  0.4889813303272063  1.0000
  H   H7        1.0  0.08637053511689169  0.7001690499749242  0.9889845041052466  1.0000
  H   H8        1.0  0.5863865569770326  0.7998440418643752  0.5110151412003461  1.0000
  H   H9        1.0  0.3633607650564272  0.1726178919280841  0.8714262105060085  1.0000
  H   H10       1.0  0.8633855819786262  0.3273498736852503  0.6285696774392804  1.0000
  H   H11       1.0  0.6366230065848838  0.8273736862805163  0.12857564279916286  1.0000
  H   H12       1.0  0.13661725091503737  0.6726548568274423  0.3714283709157512  1.0000
  H   H13       1.0  0.7427933998350157  0.054179808205454115  0.9561090017947294  1.0000
  H   H14       1.0  0.24282180621880664  0.4458261808119913  0.5438884311124141  1.0000
  H   H15       1.0  0.25719903620978357  0.9458216019187089  0.0438934045087507  1.0000
  H   H16       1.0  0.7571931568411685  0.5541844915383649  0.4561102684653732  1.0000
  H   H17       1.0  0.9757696657174079  0.827727813445591  0.8732377758362873  1.0000
  H   H18       1.0  0.47586400712857807  0.6722586150434678  0.6267602282732694  1.0000
  H   H19       1.0  0.024201976130548496  0.17226327292519977  0.1267676961761737  1.0000
  H   H20       1.0  0.5241717507727229  0.32774378518811875  0.37324228627965533  1.0000
  H   H21       1.0  0.3532894841775942  0.7925950852696674  0.8069261164693272  1.0000
  H   H22       1.0  0.853414586474841  0.7073724895510123  0.6930551337643535  1.0000
  H   H23       1.0  0.6466526984879833  0.20739062244594206  0.1930756182717062  1.0000
  H   H24       1.0  0.1466263695153245  0.2926163957219571  0.30694117750577016  1.0000
  H   H25       1.0  0.5547668779378867  0.9255296766722693  0.8242799245446619  1.0000
  H   H26       1.0  0.0548217609957007  0.5744109408743512  0.6757232009537261  1.0000
  H   H27       1.0  0.4452064973254011  0.07444168109635997  0.17573125468177148  1.0000
  H   H28       1.0  0.9452018671041102  0.42558997720340824  0.32428282375527556  1.0000
  H   H29       1.0  0.14552306312319976  0.5180746564259877  0.840438116704277  1.0000
  H   H30       1.0  0.6455148051050585  0.9819104218681786  0.6595597950746565  1.0000
  H   H31       1.0  0.8544641741642067  0.4819216597374946  0.1595626819725098  1.0000
  H   H32       1.0  0.35451228832902604  0.0180800946129978  0.34044141692410784  1.0000
  H   H33       1.0  0.29879844103143677  0.38874487747998626  0.8099396476819435  1.0000
  H   H34       1.0  0.7987777509756456  0.11123080482236958  0.6900679079442468  1.0000
  H   H35       1.0  0.7011974614707341  0.6112458592834215  0.19007050769118186  1.0000
  H   H36       1.0  0.2012268150823218  0.8887636018284868  0.3099332059628424  1.0000
  C   C1        1.0  0.7842221196688113  0.33916255247912364  0.9131044748463424  1.0000
  C   C2        1.0  0.284236590232382  0.16083956828867935  0.5868883281714972  1.0000
  C   C3        1.0  0.2157737822757113  0.6608459322460759  0.0868997561983278  1.0000
  C   C4        1.0  0.715776638353219  0.8391589224194359  0.4130922473965271  1.0000
  C   C5        1.0  0.9739063545520354  0.2892143463148855  0.9553382745020257  1.0000
  C   C6        1.0  0.47393217932827264  0.2107838312692038  0.544657949663353  1.0000
  C   C7        1.0  0.026079149735274098  0.7107837368804792  0.0446611439289626  1.0000
  C   C8        1.0  0.5261001122567776  0.7892235852383749  0.4553382943263884  1.0000
  C   C9        1.0  0.22363326224309074  0.1103573178672761  0.882114809390373  1.0000
  C   C10       1.0  0.7236715664100329  0.38962275137975416  0.6178774057761558  1.0000
  C   C11       1.0  0.776348776225781  0.8896435938871576  0.11788386981152144  1.0000
  C   C12       1.0  0.2763468623015726  0.6103819078550216  0.38212011001680674  1.0000
  C   C13       1.0  0.9017783543142456  0.04284826115187456  0.9249876782430204  1.0000
  C   C14       1.0  0.40182441759208126  0.45716136198105767  0.575009679779555  1.0000
  C   C15       1.0  0.09820541734591609  0.9571570390752268  0.07501462987222848  1.0000
  C   C16       1.0  0.5981853463931445  0.5428398279276152  0.4249837832461266  1.0000
  C   C17       1.0  0.015222915427408197  0.932707126928896  0.8848181805441655  1.0000
  C   C18       1.0  0.5152894867559112  0.567278144246174  0.6151809049682057  1.0000
  C   C19       1.0  0.9847539247100341  0.06728346099706779  0.11518356425807498  1.0000
  C   C20       1.0  0.4847133462857016  0.43271604880453646  0.3848186115906671  1.0000
  C   C21       1.0  0.3767524382720139  0.8968592920782045  0.8069996746811154  1.0000
  C   C22       1.0  0.876829339182656  0.6031126656448507  0.6929938210997831  1.0000
  C   C23       1.0  0.6232157377887262  0.103132713422454  0.1930053734532677  1.0000
  C   C24       1.0  0.12317522708146103  0.3968840064493335  0.3070096397234464  1.0000
  C   C25       1.0  0.3400779078677801  0.9090538697912933  0.7298108471000545  1.0000
  C   C26       1.0  0.8401201244995491  0.5909443318878687  0.7701870470871341  1.0000
  C   C27       1.0  0.65994052141221  0.09094577318417409  0.2701929392802356  1.0000
  C   C28       1.0  0.15988270823543618  0.4090582043843227  0.2298091868051841  1.0000
  N   N1        1.0  0.0345057491024789  0.15153187528211015  0.92253256549494  1.0000
  N   N2        1.0  0.5345213640450837  0.3484628894361563  0.5774636958003683  1.0000
  N   N3        1.0  0.9654780222878047  0.8484691076668014  0.07746664614832352  1.0000
  N   N4        1.0  0.4654953316745534  0.6515445271465196  0.42253254829800807  1.0000
  N   N5        1.0  0.21480254416567848  0.9771592894251524  0.8588217111019105  1.0000
  N   N6        1.0  0.7148652388816574  0.5228173412597101  0.641175431522022  1.0000
  N   N7        1.0  0.785176028853833  0.022832288808480396  0.1411801422394703  1.0000
  N   N8        1.0  0.2851410602495719  0.477184211203358  0.3588280395917494  1.0000
  Cl  Cl1       1.0  0.5148181168663866  0.7727355949447982  0.9481352374681932  1.0000
  Cl  Cl2       1.0  0.014824382559353899  0.72727309198887  0.5518637970655291  1.0000
  Cl  Cl3       1.0  0.48517258735832053  0.2272742426591562  0.05187911022784419  1.0000
  Cl  Cl4       1.0  0.9851940461454162  0.2727364476231315  0.44813372903005433  1.0000
  O   O1        1.0  0.744463686498598  0.4640512435104327  0.941721946493203  1.0000
  O   O2        1.0  0.24445784207348  0.03595330553090288  0.5582648143145474  1.0000
  O   O3        1.0  0.25552008410772226  0.5359456292452122  0.0582684202415535  1.0000
  O   O4        1.0  0.7555657851256329  0.9640521303863706  0.4417312126331224  1.0000
  O   O5        1.0  0.688074052199198  0.2654745800727696  0.8585823812964081  1.0000
  O   O6        1.0  0.18809630170705557  0.23451700996589145  0.6414136532474257  1.0000
  O   O7        1.0  0.3119010543739975  0.7345061693806869  0.1414114646624398  1.0000
  O   O8        1.0  0.811894400956561  0.7654797268742968  0.3585829943289909  1.0000
  O   O9        1.0  0.506899578780221  0.872562624685855  0.6862434879009881  1.0000
  O   O10       1.0  0.006909651675002201  0.6274385719692149  0.8137574507797538  1.0000
  O   O11       1.0  0.4931379132998898  0.1274387982685212  0.31377360968226486  1.0000
  O   O12       1.0  0.993084516950759  0.3725614206136284  0.18624165223987174  1.0000
  O   O13       1.0  0.1442669897908715  0.9520604209591779  0.7153360964611863  1.0000
  O   O14       1.0  0.6442703411035494  0.5479575568880436  0.7846596664890981  1.0000
  O   O15       1.0  0.8557566374326342  0.0479479859061342  0.28466025614012114  1.0000
  O   O16       1.0  0.35571342980777126  0.45205933579629226  0.2153344686301395  1.0000
  O   O17       1.0  0.2568771999143138  0.45483482394429586  0.8548734032555031  1.0000
  O   O18       1.0  0.7568556191967987  0.0451572429923814  0.6451301923265405  1.0000
  O   O19       1.0  0.7431152365252345  0.5451632657412729  0.14513336092400658  1.0000
  O   O20       1.0  0.24316107717673668  0.9548384387273926  0.3548731598609862  1.0000
