data_image0
_chemical_formula_structural       Cd2H32C24N8O12
_chemical_formula_sum              "Cd2 H32 C24 N8 O12"
_cell_length_a       8.26951598714673
_cell_length_b       8.864499030665666
_cell_length_c       11.043911556091816
_cell_angle_alpha    100.79881219132994
_cell_angle_beta     90.0006857291657
_cell_angle_gamma    89.99987751951322

_space_group_name_H-M_alt    "P 1"
_space_group_IT_number       1

loop_
  _space_group_symop_operation_xyz
  'x, y, z'

loop_
  _atom_site_type_symbol
  _atom_site_label
  _atom_site_symmetry_multiplicity
  _atom_site_fract_x
  _atom_site_fract_y
  _atom_site_fract_z
  _atom_site_occupancy
  Cd  Cd1       1.0  0.4999957917654427  7.500023500020409e-07  0.49999915636022524  1.0000
  Cd  Cd2       1.0  2.6308065414999995e-06  0.4999998793115734  0.9999999344372554  1.0000
  H   H1        1.0  0.3321766468317263  0.6443224534477705  0.39254435239652  1.0000
  H   H2        1.0  0.8321731547872205  0.8556756105408991  0.10745459702845041  1.0000
  H   H3        1.0  0.667824699906106  0.3556757316311803  0.6074534374155434  1.0000
  H   H4        1.0  0.16782940121123602  0.14432257453808012  0.8925431927890132  1.0000
  H   H5        1.0  0.4091197839159762  0.8615472400386038  0.7618088365786663  1.0000
  H   H6        1.0  0.9091188775885684  0.638454661006719  0.7381913277327146  1.0000
  H   H7        1.0  0.590879144300672  0.1384520934417495  0.23818911923917346  1.0000
  H   H8        1.0  0.0908824691565897  0.36154468095632086  0.26180753482318414  1.0000
  H   H9        1.0  0.1701765878887898  0.3685276260106319  0.6240352909235298  1.0000
  H   H10       1.0  0.67017549076008  0.13147531628384707  0.8759665579551739  1.0000
  H   H11       1.0  0.8298259681242469  0.6314717244350802  0.3759644783650344  1.0000
  H   H12       1.0  0.32982706526755123  0.8685251995285979  0.12403519080449138  1.0000
  H   H13       1.0  0.2864157136809879  0.32441052637856405  0.48696623811088824  1.0000
  H   H14       1.0  0.7864159461224957  0.17558857911198086  0.013035213882517403  1.0000
  H   H15       1.0  0.7135868423319566  0.6755865272642579  0.5130331991445304  1.0000
  H   H16       1.0  0.21358660989776718  0.824409631414923  0.9869652961167362  1.0000
  H   H17       1.0  0.09095555194959098  0.4065684043823267  0.4843869533063909  1.0000
  H   H18       1.0  0.5909560098461099  0.09343298907284488  0.015613085673422204  1.0000
  H   H19       1.0  0.909045794802786  0.5934297976619121  0.515612649960197  1.0000
  H   H20       1.0  0.4090477554348126  0.9065663698555324  0.9843875903478081  1.0000
  H   H21       1.0  0.2814608834674103  0.5959649816983016  0.7651493894535336  1.0000
  H   H22       1.0  0.7814593285324065  0.9040369305398385  0.7348514485842514  1.0000
  H   H23       1.0  0.7185416725383575  0.40403436026476663  0.23484947310776502  1.0000
  H   H24       1.0  0.21853839043090062  0.09596241142312319  0.26514741395545377  1.0000
  H   H25       1.0  0.30443318160481425  0.14431515280347176  0.6989176425143384  1.0000
  H   H26       1.0  0.8044327983885823  0.3556912153182309  0.8010831828642183  1.0000
  H   H27       1.0  0.6955633281125557  0.8556876513290916  0.30108353152422046  1.0000
  H   H28       1.0  0.19556854837120596  0.644310440412994  0.19891782517936465  1.0000
  H   H29       1.0  0.4735822974148007  0.23643427680615753  0.7316149634192115  1.0000
  H   H30       1.0  0.9735840141066203  0.2635674883930647  0.768384894593389  1.0000
  H   H31       1.0  0.5264130030417675  0.7635639337205901  0.2683855465476483  1.0000
  H   H32       1.0  0.026417332645799298  0.7364318620526191  0.2316148746897753  1.0000
  C   C1        1.0  0.3304106984296453  0.6618886705217548  0.4923255236931753  1.0000
  C   C2        1.0  0.8304092714644611  0.8381117071552919  0.007675555462490981  1.0000
  C   C3        1.0  0.6695894390548958  0.33811067144126367  0.5076733388573302  1.0000
  C   C4        1.0  0.16959449380193087  0.16188763480780463  0.9923233071042078  1.0000
  C   C5        1.0  0.2751324763803922  0.5644490273899477  0.5669854321865273  1.0000
  C   C6        1.0  0.7751304047467329  0.935550587759131  0.9330150173164569  1.0000
  C   C7        1.0  0.7248700796252835  0.43554801777023033  0.4330130983416255  1.0000
  C   C8        1.0  0.224873360526928  0.0644487626866095  0.0669847519775075  1.0000
  C   C9        1.0  0.37468674962070037  0.7771433352938218  0.6818320476296906  1.0000
  C   C10       1.0  0.8746869382970885  0.7228597125959907  0.8181679752886525  1.0000
  C   C11       1.0  0.625312178595955  0.22285599818652455  0.3181659081881563  1.0000
  C   C12       1.0  0.12531561770141053  0.2771396208844408  0.18182998054538765  1.0000
  C   C13       1.0  0.2022974504886079  0.4082559900570785  0.5390004083995522  1.0000
  C   C14       1.0  0.7022965984102498  0.09174580528839728  0.9610015612353493  1.0000
  C   C15       1.0  0.7977038962710877  0.5917433688712492  0.4610002676108779  1.0000
  C   C16       1.0  0.29770595761728913  0.9082524137211504  0.03899985549116989  1.0000
  C   C17       1.0  0.1105421759387468  0.013676863680792899  0.4581898870852968  1.0000
  C   C18       1.0  0.6105530576271433  0.4863279928299064  0.041812638312613594  1.0000
  C   C19       1.0  0.8894458689543042  0.9863259404515785  0.5418112869154755  1.0000
  C   C20       1.0  0.38945191692907594  0.5136748282681296  0.9581903492182562  1.0000
  C   C21       1.0  0.04766644202656071  0.051158824644701895  0.5856307146980839  1.0000
  C   C22       1.0  0.5476737153374103  0.44884870571612356  0.9143707045265901  1.0000
  C   C23       1.0  0.952321602866533  0.948845127889115  0.4143706253192648  1.0000
  C   C24       1.0  0.45233004996532594  0.5511506786601854  0.08563269167642322  1.0000
  N   N1        1.0  0.39203989149490337  0.793555900599152  0.5648841964603761  1.0000
  N   N2        1.0  0.8920383668548979  0.7064448512723941  0.9351156493441907  1.0000
  N   N3        1.0  0.6079590367217519  0.20644343288119416  0.4351137593574706  1.0000
  N   N4        1.0  0.1079641891436012  0.29355448220803737  0.06488230648984941  1.0000
  N   N5        1.0  0.3043309455463188  0.6403957031089789  0.6861511972687852  1.0000
  N   N6        1.0  0.8043283400037708  0.8596096468849694  0.8138494362682779  1.0000
  N   N7        1.0  0.6956716104521803  0.35960363037145254  0.3138467585652478  1.0000
  N   N8        1.0  0.1956730067414298  0.14039084347952266  0.18614959230419711  1.0000
  O   O1        1.0  0.24260991563150466  0.030863586651442194  0.4046245326745962  1.0000
  O   O2        1.0  0.742619277347778  0.4691424242324799  0.09537933781998482  1.0000
  O   O3        1.0  0.7573793385294323  0.9691392259635947  0.5953775480588419  1.0000
  O   O4        1.0  0.2573869064690583  0.5308603968655843  0.9046236497162852  1.0000
  O   O5        1.0  0.1014248848447039  0.11540816760257396  0.6895285038374938  1.0000
  O   O6        1.0  0.6014318431541312  0.38460276798021203  0.8104693597489074  1.0000
  O   O7        1.0  0.8985667878373746  0.8845923482096224  0.3104732448735916  1.0000
  O   O8        1.0  0.39857192214133624  0.6153966079134534  0.189533129726847  1.0000
  O   O9        1.0  0.4248960944737589  0.13533508682996845  0.6974207826731063  1.0000
  O   O10       1.0  0.9248969244420948  0.3646666931330316  0.8025804541247653  1.0000
  O   O11       1.0  0.5751004152362498  0.8646654120170536  0.3025791526050412  1.0000
  O   O12       1.0  0.07510563157826061  0.6353338141967696  0.19742038790763422  1.0000
