data_image0
_chemical_formula_structural       Hg4H32C32Br8N16
_chemical_formula_sum              "Hg4 H32 C32 Br8 N16"
_cell_length_a       8.156752438021973
_cell_length_b       11.498014042039307
_cell_length_c       12.939855443010817
_cell_angle_alpha    89.99985791492877
_cell_angle_beta     90.00004183716005
_cell_angle_gamma    89.99973675421153

_space_group_name_H-M_alt    "P 1"
_space_group_IT_number       1

loop_
  _space_group_symop_operation_xyz
  'x, y, z'

loop_
  _atom_site_type_symbol
  _atom_site_label
  _atom_site_symmetry_multiplicity
  _atom_site_fract_x
  _atom_site_fract_y
  _atom_site_fract_z
  _atom_site_occupancy
  Hg  Hg1       1.0  0.250000451066107  0.691121529236895  0.0172877423728579  1.0000
  Hg  Hg2       1.0  0.2499998923806217  0.19112149046528507  0.4827123489712902  1.0000
  Hg  Hg3       1.0  0.7500008233423827  0.8088794850060023  0.517287903271729  1.0000
  Hg  Hg4       1.0  0.7500002646568972  0.3088794462343927  0.9827125098701615  1.0000
  H   H1        1.0  0.4366316889113691  0.9143204306293881  0.1673726779848863  1.0000
  H   H2        1.0  0.4366309556103046  0.41431994096556923  0.3326270070169456  1.0000
  H   H3        1.0  0.9366298318395676  0.5856786880479984  0.6673741035625225  1.0000
  H   H4        1.0  0.063371617191045  0.9143210376541332  0.16737336526267646  1.0000
  H   H5        1.0  0.5633678008363389  0.0856796751284818  0.8326275742588078  1.0000
  H   H6        1.0  0.5633697601207148  0.5856784253605695  0.6673724724227839  1.0000
  H   H7        1.0  0.06336965791423672  0.41431967827797667  0.3326269214892577  1.0000
  H   H8        1.0  0.9366290985347802  0.08567906810174719  0.8326268869813017  1.0000
  H   H9        1.0  0.4454359407956048  0.8813294216390375  0.8480433806282547  1.0000
  H   H10       1.0  0.44543622327218196  0.38132856643159124  0.6519567332801515  1.0000
  H   H11       1.0  0.945436965805996  0.6186726430887218  0.34804206291364176  1.0000
  H   H12       1.0  0.05456346744190909  0.8813283178778378  0.8480425182599589  1.0000
  H   H13       1.0  0.5545635489516556  0.11867068411991259  0.15195609880927918  1.0000
  H   H14       1.0  0.554564492452748  0.6186715393264419  0.34804197335150616  1.0000
  H   H15       1.0  0.05456374991982929  0.38132746266715867  0.6519581893303367  1.0000
  H   H16       1.0  0.9454372482806476  0.11867265759453009  0.15195696117690008  1.0000
  H   H17       1.0  0.9057811684559451  0.6824987571363221  0.1726358508728438  1.0000
  H   H18       1.0  0.905780429030898  0.18249828216089983  0.3273630143890074  1.0000
  H   H19       1.0  0.40578055768232707  0.8175030563433553  0.6726357636312841  1.0000
  H   H20       1.0  0.5942208974648295  0.682498394105515  0.1726357794832509  1.0000
  H   H21       1.0  0.0942207732447287  0.3175022183340488  0.8273636285642992  1.0000
  H   H22       1.0  0.0942202866949273  0.8175018235949806  0.6726372378549712  1.0000
  H   H23       1.0  0.5942201580406845  0.18249791912793262  0.3273644886117353  1.0000
  H   H24       1.0  0.40577981825818193  0.31750258136577963  0.8273644727597683  1.0000
  H   H25       1.0  0.9064206301077888  0.5825527043513219  0.8649257660413168  1.0000
  H   H26       1.0  0.9064245708743852  0.08255276596358387  0.6350752175486676  1.0000
  H   H27       1.0  0.4064163369978359  0.9174477007405099  0.36492587918434777  1.0000
  H   H28       1.0  0.5935816639371436  0.5825532131154388  0.8649256943577655  1.0000
  H   H29       1.0  0.0935751817088359  0.41744653169604373  0.13507525900865147  1.0000
  H   H30       1.0  0.09357614485099218  0.9174473397933696  0.36492426188915056  1.0000
  H   H31       1.0  0.5935856047056659  0.0825524050144466  0.6350736002537545  1.0000
  H   H32       1.0  0.40641659983199924  0.41744689264550056  0.13507378507948428  1.0000
  C   C1        1.0  0.4652029393811857  0.9531428451799043  0.09245526696074789  1.0000
  C   C2        1.0  0.4652022932469322  0.4531412767373624  0.4075451183876453  1.0000
  C   C3        1.0  0.9652025602380546  0.5468589987768623  0.5924544596715079  1.0000
  C   C4        1.0  0.034797575645384896  0.9531418057113754  0.092453622727767  1.0000
  C   C5        1.0  0.5347977763441919  0.04685726057704899  0.9075442124770702  1.0000
  C   C6        1.0  0.5347971965059697  0.546857089590766  0.5924543610518072  1.0000
  C   C7        1.0  0.034798155488225305  0.45314110697793797  0.407546565378631  1.0000
  C   C8        1.0  0.9652031400799925  0.046858300045578  0.9075458567100512  1.0000
  C   C9        1.0  0.4696697157085056  0.9349689853579832  0.9159861262742907  1.0000
  C   C10       1.0  0.4696686931528831  0.4349700591814595  0.5840146533362328  1.0000
  C   C11       1.0  0.969667410923911  0.5650284623793737  0.41598338115901606  1.0000
  C   C12       1.0  0.0303331013687043  0.934973178706642  0.9159844799890704  1.0000
  C   C13       1.0  0.5303310000197  0.0650302506835629  0.0840133531644796  1.0000
  C   C14       1.0  0.5303332485558129  0.5650283071437555  0.41598405329762755  1.0000
  C   C15       1.0  0.030330852845679594  0.43497164338049277  0.584016871084401  1.0000
  C   C16       1.0  0.9696676143543002  0.06502779676464598  0.0840157722539487  1.0000
  C   C17       1.0  0.8355522744989584  0.6589183733350054  0.1039001624459104  1.0000
  C   C18       1.0  0.8355540670015458  0.15891770654376808  0.396098722597543  1.0000
  C   C19       1.0  0.3355515106885747  0.8410829906639846  0.6039007960460836  1.0000
  C   C20       1.0  0.6644486385099667  0.6589186515965507  0.1039008960455874  1.0000
  C   C21       1.0  0.16444598927063225  0.3410817324248611  0.8961000897975069  1.0000
  C   C22       1.0  0.16444664873230155  0.8410797900669563  0.6039007568431529  1.0000
  C   C23       1.0  0.6644492050372578  0.1589171150918958  0.396099456197895  1.0000
  C   C24       1.0  0.33555085123774114  0.34108145416131913  0.896099356198107  1.0000
  C   C25       1.0  0.8357245722401742  0.6040790491662021  0.9339272697595501  1.0000
  C   C26       1.0  0.8357296587013678  0.104080173045574  0.5660736339930139  1.0000
  C   C27       1.0  0.3357179668835714  0.8959205236059088  0.4339258847289855  1.0000
  C   C28       1.0  0.6642764363996747  0.6040793279890764  0.9339272304741256  1.0000
  C   C29       1.0  0.16427123957927847  0.3959193171657489  0.06607375529137728  1.0000
  C   C30       1.0  0.16427105702445738  0.8959199327103066  0.43392661825096457  1.0000
  C   C31       1.0  0.664281522863689  0.10407958215304089  0.5660735947085482  1.0000
  C   C32       1.0  0.3357181494388399  0.3959199080602786  0.06607379457556559  1.0000
  Br  Br1       1.0  0.249999350490711  0.6878833031890393  0.21479381633366754  1.0000
  Br  Br2       1.0  0.24999978799202444  0.18788381557118328  0.285205509339626  1.0000
  Br  Br3       1.0  0.7500021537086496  0.8121171598991951  0.714793970097517  1.0000
  Br  Br4       1.0  0.7500001392565493  0.3121168025699106  0.7852056631038734  1.0000
  Br  Br5       1.0  0.24999982271216228  0.6514779062650717  0.8234722172450402  1.0000
  Br  Br6       1.0  0.2500001337737743  0.1514778522048843  0.6765283136308042  1.0000
  Br  Br7       1.0  0.7500018079301682  0.8485222535489995  0.3234719386134515  1.0000
  Br  Br8       1.0  0.7500021189889664  0.34852306920422643  0.17652803499826317  1.0000
  N   N1        1.0  0.4351887035914643  0.8886170855651512  0.008391022674899799  1.0000
  N   N2        1.0  0.43519060721345676  0.388617021962041  0.49160949111529106  1.0000
  N   N3        1.0  0.9351891316614169  0.6113807420247425  0.5083893003864972  1.0000
  N   N4        1.0  0.0648109064220108  0.8886185576200772  0.0083901649998452  1.0000
  N   N5        1.0  0.564810786155796  0.1113830201937986  0.991608456762641  1.0000
  N   N6        1.0  0.5648113344976052  0.6113804746488467  0.5083884427133611  1.0000
  N   N7        1.0  0.0648091321114492  0.3886184940186369  0.49161172466403963  1.0000
  N   N8        1.0  0.9351898093009934  0.1113824178512104  0.9916100872431741  1.0000
  N   N9        1.0  0.9207884422849161  0.6316249442256704  0.0189610869696395  1.0000
  N   N10       1.0  0.9207903336062203  0.131625779834458  0.4810394428934899  1.0000
  N   N11       1.0  0.42078382340319814  0.8683763795731991  0.51896088761535  1.0000
  N   N12       1.0  0.5792125490394399  0.6316246300087014  0.018961008702298398  1.0000
  N   N13       1.0  0.07920982148750257  0.368374291818789  0.981039165274737  1.0000
  N   N14       1.0  0.07921038211960511  0.8683743259214224  0.5189608093504887  1.0000
  N   N15       1.0  0.5792168923202539  0.13162459589700856  0.4810401374338297  1.0000
  N   N16       1.0  0.42078448874966057  0.3683763454674888  0.9810400163460355  1.0000
