data_image0
_chemical_formula_structural       Cu2H18C8N2O12
_chemical_formula_sum              "Cu2 H18 C8 N2 O12"
_cell_length_a       6.859487755057558
_cell_length_b       6.859482717322159
_cell_length_c       7.576109141285701
_cell_angle_alpha    92.92156387766254
_cell_angle_beta     92.92179540858808
_cell_angle_gamma    93.1262902987837

_space_group_name_H-M_alt    "P 1"
_space_group_IT_number       1

loop_
  _space_group_symop_operation_xyz
  'x, y, z'

loop_
  _atom_site_type_symbol
  _atom_site_label
  _atom_site_symmetry_multiplicity
  _atom_site_fract_x
  _atom_site_fract_y
  _atom_site_fract_z
  _atom_site_occupancy
  Cu  Cu1       1.0  0.7621382458977737  0.7670063598355199  0.1260035025690911  1.0000
  Cu  Cu2       1.0  0.23299295639341724  0.23786228503364987  0.8739960010100845  1.0000
  H   H1        1.0  0.6283306195186853  0.6373781976042567  0.5370612465338169  1.0000
  H   H2        1.0  0.3626144942114636  0.3716722633609138  0.462938057255812  1.0000
  H   H3        1.0  0.7596583030756676  0.4416474776309799  0.6144584485944906  1.0000
  H   H4        1.0  0.5583479462483325  0.24035027698455744  0.38554316482241563  1.0000
  H   H5        1.0  0.07146785269667082  0.6220377670224054  0.5145720004511602  1.0000
  H   H6        1.0  0.3779600865265991  0.9285377781045839  0.4854266471906357  1.0000
  H   H7        1.0  0.8311354461505048  0.911446900551887  0.4427850510578822  1.0000
  H   H8        1.0  0.08855083142251631  0.16886689896743695  0.5572143219228991  1.0000
  H   H9        1.0  0.03396259179875471  0.8794219999565273  0.3316067714829672  1.0000
  H   H10       1.0  0.12057764445245311  0.9660389866875932  0.6683938635853011  1.0000
  H   H11       1.0  0.6405589155302992  0.09543621693868691  0.020358509093085796  1.0000
  H   H12       1.0  0.9045637815380658  0.35943996872606493  0.9796419785261393  1.0000
  H   H13       1.0  0.798191803796044  0.1376371705477908  0.19279528813998334  1.0000
  H   H14       1.0  0.862362566094177  0.20180796041972832  0.8072067628181969  1.0000
  H   H15       1.0  0.3907186684409823  0.5589595416181724  0.18628779674187262  1.0000
  H   H16       1.0  0.44104260498068737  0.6092820410207695  0.8137115368610283  1.0000
  H   H17       1.0  0.36574309856450077  0.7897121369546481  0.2045687029340399  1.0000
  H   H18       1.0  0.2102898500615922  0.6342589172290971  0.7954302044988708  1.0000
  C   C1        1.0  0.9006226017213808  0.45757656901570715  0.31046406874152416  1.0000
  C   C2        1.0  0.5424218021159534  0.09937865955025418  0.6895349419402309  1.0000
  C   C3        1.0  0.9242714786698443  0.6273143907925912  0.45006380294892523  1.0000
  C   C4        1.0  0.37268373353712303  0.07573126327936561  0.5499363102226839  1.0000
  C   C5        1.0  0.7727013066256637  0.5977575537277248  0.5886247312562107  1.0000
  C   C6        1.0  0.4022367574718189  0.22730457403368123  0.4113764436279936  1.0000
  C   C7        1.0  0.825445917134232  0.7026710665227681  0.7677247780501446  1.0000
  C   C8        1.0  0.29732640462462007  0.1745571282101608  0.2322736740932569  1.0000
  N   N1        1.0  0.902379584279878  0.8141453872382556  0.36464068076810463  1.0000
  N   N2        1.0  0.1858532197891378  0.0976229989213309  0.6353603770109899  1.0000
  O   O1        1.0  0.8464297316465734  0.498385315709058  0.1512201706733691  1.0000
  O   O2        1.0  0.5016136322752943  0.15357113625504581  0.8487799907337676  1.0000
  O   O3        1.0  0.9285867537728055  0.28638956855812125  0.3525182077455114  1.0000
  O   O4        1.0  0.7136077477265419  0.07141347856029513  0.6474810813163572  1.0000
  O   O5        1.0  0.6838003030111965  0.7033720038832671  0.8744379709371161  1.0000
  O   O6        1.0  0.2966237118840311  0.3162031396140605  0.1255601542803788  1.0000
  O   O7        1.0  0.9952691136876839  0.7736319898583877  0.8087191632922099  1.0000
  O   O8        1.0  0.22636689084028216  0.0047331597749505  0.1912808221196656  1.0000
  O   O9        1.0  0.6982822045979307  0.043052903017141396  0.1309733620518188  1.0000
  O   O10       1.0  0.9569464465632864  0.3017152072960344  0.8690298758135813  1.0000
  O   O11       1.0  0.45342206359831044  0.6853946802398031  0.23468017471292066  1.0000
  O   O12       1.0  0.31460637349871945  0.5465794552232595  0.7653177071587578  1.0000
