data_image0
_chemical_formula_structural       Co2H26C40N14O8
_chemical_formula_sum              "Co2 H26 C40 N14 O8"
_cell_length_a       10.06720924403007
_cell_length_b       10.106213878168202
_cell_length_c       14.094466239063163
_cell_angle_alpha    80.3434288151008
_cell_angle_beta     78.26586627326535
_cell_angle_gamma    69.35725097129166

_space_group_name_H-M_alt    "P 1"
_space_group_IT_number       1

loop_
  _space_group_symop_operation_xyz
  'x, y, z'

loop_
  _atom_site_type_symbol
  _atom_site_label
  _atom_site_symmetry_multiplicity
  _atom_site_fract_x
  _atom_site_fract_y
  _atom_site_fract_z
  _atom_site_occupancy
  Co  Co1       1.0  0.8683447477326567  0.39521534241134754  0.9755196539033335  1.0000
  Co  Co2       1.0  0.13165221389199647  0.604787284692044  0.02447599797816481  1.0000
  H   H1        1.0  0.5316057540970361  0.25050158912490866  0.8667902406330441  1.0000
  H   H2        1.0  0.4683906559800734  0.7494904174175614  0.13321031239002684  1.0000
  H   H3        1.0  0.5730013898029115  0.8063215914868278  0.8871483919205758  1.0000
  H   H4        1.0  0.4269939682763421  0.1936736040072019  0.11285264132058613  1.0000
  H   H5        1.0  0.9028302196694539  0.9274694859547451  0.9664666656083084  1.0000
  H   H6        1.0  0.0971616351482609  0.07253633522889655  0.03353998885450691  1.0000
  H   H7        1.0  0.56111720660477  0.5064859117758188  0.06716879092513754  1.0000
  H   H8        1.0  0.43889475455690524  0.493508159706657  0.9328292517382978  1.0000
  H   H9        1.0  0.41115720929055033  0.5108037515149206  0.23025521308395716  1.0000
  H   H10       1.0  0.5888502262125215  0.4892009575556812  0.7697407936556006  1.0000
  H   H11       1.0  0.8006655727884676  0.2692329183675992  0.3500944131033279  1.0000
  H   H12       1.0  0.19933306777345888  0.7307707664707123  0.6498987391658063  1.0000
  H   H13       1.0  0.9347230972421559  0.27477081257573827  0.18035132700310186  1.0000
  H   H14       1.0  0.0652747097022228  0.7252169491088764  0.8196417272382777  1.0000
  H   H15       1.0  0.5774650525468344  0.3245258964208587  0.46233463506754197  1.0000
  H   H16       1.0  0.42256199613618856  0.6754532301908538  0.5376835796053427  1.0000
  H   H17       1.0  0.12940315841472477  0.552343853763169  0.4908802672488549  1.0000
  H   H18       1.0  0.8705741972256577  0.44768434701317955  0.5091016906879987  1.0000
  H   H19       1.0  0.3009275653503423  0.29273159970196616  0.6990169863916124  1.0000
  H   H20       1.0  0.6990650231983866  0.7072689150441743  0.3009845215577728  1.0000
  H   H21       1.0  0.16354872378231283  0.2673320416171946  0.8651555316013956  1.0000
  H   H22       1.0  0.836436545082627  0.732656826503536  0.13484205233847044  1.0000
  H   H23       1.0  0.7907972289597183  0.5694512963506991  0.7862540411619819  1.0000
  H   H24       1.0  0.20920268677748768  0.430530081573515  0.21374372863566296  1.0000
  H   H25       1.0  0.9109124784083138  0.6077558223109563  0.615729829027238  1.0000
  H   H26       1.0  0.08909135874380787  0.39223827700077846  0.38427223038525693  1.0000
  C   C1        1.0  0.7232454523934208  0.10014962495963425  0.9174599072331945  1.0000
  C   C2        1.0  0.27674006294432024  0.8998477301285275  0.08254371824904179  1.0000
  C   C3        1.0  0.5929076418132269  0.13880733977958215  0.8825222312237245  1.0000
  C   C4        1.0  0.4070822146010897  0.8611953076475273  0.11748083755801284  1.0000
  C   C5        1.0  0.5403581900418502  0.033345558595314594  0.8693086107298384  1.0000
  C   C6        1.0  0.45963877697956707  0.9666570619186241  0.13069342664317668  1.0000
  C   C7        1.0  0.6149743331578961  0.8897972218023186  0.8934298771658007  1.0000
  C   C8        1.0  0.3850202851939385  0.11020328745082954  0.10656920759821283  1.0000
  C   C9        1.0  0.745602117387797  0.8517394893205219  0.9282101435444688  1.0000
  C   C10       1.0  0.25439555016600224  0.14826100620192756  0.0717906276844005  1.0000
  C   C11       1.0  0.8013040263962167  0.9563980774472965  0.9391386238886029  1.0000
  C   C12       1.0  0.19868716168739547  0.043606686549658484  0.060866125848136214  1.0000
  C   C13       1.0  0.7772499167500158  0.21309173386984528  0.9342376875961096  1.0000
  C   C14       1.0  0.2227562678724056  0.7869044781670025  0.06576590542727706  1.0000
  C   C15       1.0  0.8236953503726523  0.6977214517400013  0.9546404751884126  1.0000
  C   C16       1.0  0.17631496864822785  0.3022683761685769  0.045360443712461104  1.0000
  C   C17       1.0  0.6101311518213494  0.4543901729385878  0.1316145354320071  1.0000
  C   C18       1.0  0.38987116967909685  0.5456177389982031  0.8683839599001717  1.0000
  C   C19       1.0  0.5266968239987692  0.45638160425647806  0.22303654966154343  1.0000
  C   C20       1.0  0.47330784077449556  0.5436284255305636  0.776958512788127  1.0000
  C   C21       1.0  0.5934886307590331  0.38826185915732475  0.304957941055875  1.0000
  C   C22       1.0  0.40652688596070874  0.6117460152446268  0.6950265773189841  1.0000
  C   C23       1.0  0.7433289155213673  0.32339096881457857  0.2892637993709926  1.0000
  C   C24       1.0  0.2566863697165899  0.6766084003159064  0.7107324149379367  1.0000
  C   C25       1.0  0.8187982678537579  0.3258398272266517  0.1953011483361068  1.0000
  C   C26       1.0  0.1812072126384409  0.6741585141946584  0.8046994538370742  1.0000
  C   C27       1.0  0.5151115449692439  0.3783836660987275  0.4029497058424099  1.0000
  C   C28       1.0  0.48487843313706946  0.6216370433846305  0.5970412466291253  1.0000
  C   C29       1.0  0.19033679863133562  0.4733587544285882  0.543860901403761  1.0000
  C   C30       1.0  0.8096846675981053  0.5266342045801052  0.45615008157088255  1.0000
  C   C31       1.0  0.11743115248313526  0.4528650368704206  0.6425627558662442  1.0000
  C   C32       1.0  0.8825608229179026  0.5471312143495266  0.35745708995574443  1.0000
  C   C33       1.0  0.18776697734116954  0.3553809978028397  0.7150701613076791  1.0000
  C   C34       1.0  0.8122331124751697  0.644615237302439  0.28493431578032613  1.0000
  C   C35       1.0  0.11183762527304711  0.34142794785030617  0.8076226459889851  1.0000
  C   C36       1.0  0.8881645625425845  0.65856191667347  0.19237377567225178  1.0000
  C   C37       1.0  0.9036278544320664  0.5104360408337243  0.7634893870564738  1.0000
  C   C38       1.0  0.09636749944969841  0.4895591597854362  0.2365066796912885  1.0000
  C   C39       1.0  0.9716372489004712  0.5311933919005511  0.668756882550035  1.0000
  C   C40       1.0  0.028354638516233932  0.4688092485692436  0.3312451820444409  1.0000
  N   N1        1.0  0.4086833027192966  0.08123708807635668  0.832638181136403  1.0000
  N   N2        1.0  0.5913099501649768  0.9187644867851075  0.16736239354283813  1.0000
  N   N3        1.0  0.3533155532080769  0.994195439569019  0.8229449759631251  1.0000
  N   N4        1.0  0.6466780499423807  0.005805072796704302  0.1770549656440465  1.0000
  N   N5        1.0  0.28845294440384356  0.9270136562008845  0.8103338828092888  1.0000
  N   N6        1.0  0.7115369084126328  0.07298899561919107  0.18966492897811088  1.0000
  N   N7        1.0  0.754336212748221  0.38970587596914896  0.11709898063578808  1.0000
  N   N8        1.0  0.2456627514773119  0.6102999197656442  0.8829052234201884  1.0000
  N   N9        1.0  0.37580895722698676  0.4282688976829758  0.4215501987200839  1.0000
  N   N10       1.0  0.6241699433568614  0.5717730880766608  0.5784433620834194  1.0000
  N   N11       1.0  0.32431333601047646  0.4001658544867651  0.5185173875096254  1.0000
  N   N12       1.0  0.6757232990379975  0.5998334119393645  0.48149701754486074  1.0000
  N   N13       1.0  0.9720777556837775  0.41793390689060317  0.8328046677094109  1.0000
  N   N14       1.0  0.02792712687014647  0.5820570115233534  0.16718910699535172  1.0000
  O   O1        1.0  0.9026399963809552  0.1785395261139655  0.9564433413035546  1.0000
  O   O2        1.0  0.09736668389464859  0.8214428822676891  0.04355899665084452  1.0000
  O   O3        1.0  0.6973744928421296  0.3437549335130185  0.9282063333683441  1.0000
  O   O4        1.0  0.3026248518500267  0.6562466219408305  0.07178980975098881  1.0000
  O   O5        1.0  0.952883952683671  0.661663229490898  0.9689256362377634  1.0000
  O   O6        1.0  0.047126217952012404  0.33833934323793347  0.031072357164738707  1.0000
  O   O7        1.0  0.757032709151531  0.60942453336272  0.9600119271442866  1.0000
  O   O8        1.0  0.2429578489944504  0.39057598760857093  0.03999129449142908  1.0000
