data_image0
_chemical_formula_structural       Zn4H28C48N8O16
_chemical_formula_sum              "Zn4 H28 C48 N8 O16"
_cell_length_a       10.50464002425231
_cell_length_b       10.503426316866413
_cell_length_c       11.508
_cell_angle_alpha    73.644772808531
_cell_angle_beta     73.64671553957625
_cell_angle_gamma    80.60426682345296

_space_group_name_H-M_alt    "P 1"
_space_group_IT_number       1

loop_
  _space_group_symop_operation_xyz
  'x, y, z'

loop_
  _atom_site_type_symbol
  _atom_site_label
  _atom_site_symmetry_multiplicity
  _atom_site_fract_x
  _atom_site_fract_y
  _atom_site_fract_z
  _atom_site_occupancy
  Zn  Zn1       1.0  0.6078773851022844  0.1840112233811695  0.033973625672388215  1.0000
  Zn  Zn2       1.0  0.18399192639142828  0.607891355525183  0.5339550085599072  1.0000
  Zn  Zn3       1.0  0.3921248421139579  0.8159899042145328  0.9660267286503837  1.0000
  Zn  Zn4       1.0  0.8160076879597539  0.39210578657719  0.4660470416109206  1.0000
  H   H1        1.0  0.8420240474834628  0.1471075478997079  0.13068971508778995  1.0000
  H   H2        1.0  0.14711960030592047  0.8420799399206159  0.630669645660575  1.0000
  H   H3        1.0  0.15797240154321904  0.852902547055983  0.8693089506236547  1.0000
  H   H4        1.0  0.8528799231890218  0.1579181985550875  0.36933130282204724  1.0000
  H   H5        1.0  0.5066531083977779  0.3752092876081718  0.2113264678750397  1.0000
  H   H6        1.0  0.3752147410398122  0.506685730670867  0.7113001717615289  1.0000
  H   H7        1.0  0.49334271927918383  0.6247858617475401  0.7886761987075132  1.0000
  H   H8        1.0  0.6247890234105641  0.4933094186848379  0.2886995860253876  1.0000
  H   H9        1.0  0.3860470808668309  0.0336355709515388  0.17391500293145162  1.0000
  H   H10       1.0  0.0336414051610348  0.3860548113301761  0.6739349786062476  1.0000
  H   H11       1.0  0.6139535255810316  0.9663615711508271  0.8260867922600214  1.0000
  H   H12       1.0  0.966358928718101  0.6139453198921885  0.32606872528491243  1.0000
  H   H13       1.0  0.1681239460393513  0.059542273964488905  0.3257504892032941  1.0000
  H   H14       1.0  0.05955833477601398  0.1681170759844335  0.8257724579816497  1.0000
  H   H15       1.0  0.8318752140306173  0.9404598500045437  0.6742512662908028  1.0000
  H   H16       1.0  0.9404401057660079  0.8318820588646005  0.17423198859572844  1.0000
  H   H17       1.0  0.017444140956378393  0.2787613454155533  0.1288633602257931  1.0000
  H   H18       1.0  0.2787888593804766  0.0174863519817379  0.6288567366535105  1.0000
  H   H19       1.0  0.9825546556886234  0.7212447640468085  0.871133988515446  1.0000
  H   H20       1.0  0.7212114744986591  0.9825137792406267  0.37114175347331  1.0000
  H   H21       1.0  0.673477667425665  0.46325381711622526  0.8976576552192483  1.0000
  H   H22       1.0  0.4632113373774302  0.6734666700167011  0.3976635787666467  1.0000
  H   H23       1.0  0.3265216743567976  0.5367463141061464  0.10234022092621586  1.0000
  H   H24       1.0  0.5367871940208317  0.3265314684590024  0.6023350178131678  1.0000
  H   H25       1.0  0.8471439894720092  0.6084144515246308  0.8766855075903663  1.0000
  H   H26       1.0  0.6083852732559549  0.8471146143686923  0.3766936047419307  1.0000
  H   H27       1.0  0.1528569730788334  0.3915896651910629  0.12330832080424158  1.0000
  H   H28       1.0  0.39161037270852006  0.1528825277336807  0.6233085963856339  1.0000
  C   C1        1.0  0.8465967256413902  0.2507692330181186  0.07754734498816877  1.0000
  C   C2        1.0  0.25077018645082205  0.8466353587958579  0.577531088090538  1.0000
  C   C3        1.0  0.15340423690945218  0.7492348836975751  0.922452566131497  1.0000
  C   C4        1.0  0.7492303291408007  0.1533627796798456  0.42246960541272216  1.0000
  C   C5        1.0  0.4310675638397185  0.3048025588283636  0.24155049768224768  1.0000
  C   C6        1.0  0.3048063604144957  0.4310849077098169  0.741542456193656  1.0000
  C   C7        1.0  0.5689368292823643  0.6951965760206704  0.7584480742153374  1.0000
  C   C8        1.0  0.695198305276314  0.5689112380192185  0.25845768284712994  1.0000
  C   C9        1.0  0.3623055220343119  0.11539398110615912  0.2195671436349045  1.0000
  C   C10       1.0  0.11540783320661059  0.3623172130616297  0.719570137348228  1.0000
  C   C11       1.0  0.637694364885597  0.8846001718762153  0.7804329978362362  1.0000
  C   C12       1.0  0.884593765337925  0.6376799290407362  0.2804340097460453  1.0000
  C   C13       1.0  0.24150258567496505  0.1304003598638204  0.3047767500734011  1.0000
  C   C14       1.0  0.1304210374860446  0.24150993564112613  0.8047808431754574  1.0000
  C   C15       1.0  0.758498740300844  0.8695997713585442  0.6952275677991222  1.0000
  C   C16       1.0  0.8695801976335247  0.758491191954576  0.1952206350874021  1.0000
  C   C17       1.0  0.9444065392556666  0.3258399853663931  0.07534843583150069  1.0000
  C   C18       1.0  0.3258466107599317  0.9444393650937215  0.5753435102110843  1.0000
  C   C19       1.0  0.05558566881558849  0.6741730987092964  0.9246462068113103  1.0000
  C   C20       1.0  0.674152102350817  0.05555678063531389  0.4246546828629932  1.0000
  C   C21       1.0  0.7535806953917543  0.42752287304686837  0.9448771254699011  1.0000
  C   C22       1.0  0.4274948309012244  0.7535750859330435  0.4448849053282443  1.0000
  C   C23       1.0  0.2464182829657346  0.5724812436688254  0.055118950804882216  1.0000
  C   C24       1.0  0.572504063922004  0.2464190670493309  0.5551163600829837  1.0000
  C   C25       1.0  0.8500811592680788  0.5078026651763707  0.9363379289090046  1.0000
  C   C26       1.0  0.5077837012245466  0.8500738431656032  0.43634642108300886  1.0000
  C   C27       1.0  0.14991781908940988  0.49220145153933  0.06365467152288315  1.0000
  C   C28       1.0  0.49221311854908817  0.1499213061901017  0.5636577284416263  1.0000
  C   C29       1.0  0.213853239331101  0.2384978990576059  0.3594422132180028  1.0000
  C   C30       1.0  0.23851698556004655  0.213863564789996  0.8594398677964676  1.0000
  C   C31       1.0  0.7861483592134348  0.7614992430447671  0.6405601959548264  1.0000
  C   C32       1.0  0.7614844312720024  0.786135570059038  0.1405620759213732  1.0000
  C   C33       1.0  0.31279053210320734  0.326249494805964  0.32964506180842085  1.0000
  C   C34       1.0  0.3262540587371348  0.3128044330600019  0.8296437919793576  1.0000
  C   C35       1.0  0.6872127780659553  0.6737506364164005  0.6703552702624833  1.0000
  C   C36       1.0  0.673747630663648  0.6871917126690334  0.17035537407807766  1.0000
  C   C37       1.0  0.07784561961446458  0.256189503945798  0.4447307667551712  1.0000
  C   C38       1.0  0.2562054878529167  0.0778396738387102  0.9447221041239331  1.0000
  C   C39       1.0  0.922156425889298  0.7438136163965723  0.5552699910733453  1.0000
  C   C40       1.0  0.7437948460262191  0.9221604573836543  0.055278123924338674  1.0000
  C   C41       1.0  0.2995236540624687  0.4411682058326249  0.3875470960383396  1.0000
  C   C42       1.0  0.44116557854187016  0.2995317439005305  0.8875630713202298  1.0000
  C   C43       1.0  0.7004785731537737  0.5588329217630772  0.6124532582844394  1.0000
  C   C44       1.0  0.5588391780051792  0.7004634054551744  0.11243730044805028  1.0000
  C   C45       1.0  0.9481636410985174  0.45836660592132716  0.0030879763690308914  1.0000
  C   C46       1.0  0.4583608219855861  0.9481618158631661  0.503087325124504  1.0000
  C   C47       1.0  0.0518371397398454  0.5416395035410346  0.9969071244920329  1.0000
  C   C48       1.0  0.5416377094126759  0.0518363226125373  0.49691214041603615  1.0000
  N   N1        1.0  0.7518669108831303  0.3005928814994263  0.013901010269861987  1.0000
  N   N2        1.0  0.30057666723524074  0.7518912150014643  0.5138928483665166  1.0000
  N   N3        1.0  0.24813197661811875  0.699412231589605  0.9860957022381456  1.0000
  N   N4        1.0  0.6994200616821543  0.2481049307275711  0.48610846154845433  1.0000
  N   N5        1.0  0.45432374819762333  0.20369158944061638  0.18616288774806836  1.0000
  N   N6        1.0  0.2036974364904651  0.4543392649121998  0.6861547901519599  1.0000
  N   N7        1.0  0.5456760478660456  0.7963035599150885  0.8138370209955781  1.0000
  N   N8        1.0  0.7963041620540705  0.5456578771901732  0.31384588109942513  1.0000
  O   O1        1.0  0.9919314560265917  0.3190018751868635  0.38188402214139927  1.0000
  O   O2        1.0  0.3190219986543069  0.9919295072307933  0.8818741372937778  1.0000
  O   O3        1.0  0.008071043758377498  0.6809962632888329  0.6181170303638481  1.0000
  O   O4        1.0  0.6809803194181825  0.0080706239915713  0.11812384287432563  1.0000
  O   O5        1.0  0.05711305623491109  0.2073144028768326  0.5591769831064752  1.0000
  O   O6        1.0  0.20732223557827467  0.0570991665537051  0.0591698502072546  1.0000
  O   O7        1.0  0.9428891709813314  0.7926867247188625  0.44082510913774803  1.0000
  O   O8        1.0  0.792679362966261  0.9428979755486678  0.9408299520834048  1.0000
  O   O9        1.0  0.1808265432918361  0.4996981644914982  0.41874843963614694  1.0000
  O   O10       1.0  0.49967035748316846  0.1808238250911671  0.9187919123281106  1.0000
  O   O11       1.0  0.8191750552526996  0.5002989776108748  0.5812539695366823  1.0000
  O   O12       1.0  0.5003323240142876  0.8191723206378754  0.08120960563212518  1.0000
  O   O13       1.0  0.40168546893178086  0.47258186425315074  0.4044967624713466  1.0000
  O   O14       1.0  0.47258763799639764  0.40171082550049414  0.9044948443762095  1.0000
  O   O15       1.0  0.5983168491407084  0.5274182669692209  0.5955038245789195  1.0000
  O   O16       1.0  0.5274169368381649  0.5982863166018788  0.09550419297636378  1.0000
