data_image0
_chemical_formula_structural       Cd4H32C24Br8N16
_chemical_formula_sum              "Cd4 H32 C24 Br8 N16"
_cell_length_a       8.347786957563542
_cell_length_b       9.059712913052161
_cell_length_c       13.759719685110145
_cell_angle_alpha    89.99954035819702
_cell_angle_beta     90.00007123670024
_cell_angle_gamma    93.17418099634479

_space_group_name_H-M_alt    "P 1"
_space_group_IT_number       1

loop_
  _space_group_symop_operation_xyz
  'x, y, z'

loop_
  _atom_site_type_symbol
  _atom_site_label
  _atom_site_symmetry_multiplicity
  _atom_site_fract_x
  _atom_site_fract_y
  _atom_site_fract_z
  _atom_site_occupancy
  Cd  Cd1       1.0  0.7493857097462423  0.49761441845601  0.0020288011655012  1.0000
  Cd  Cd2       1.0  0.7506174701531804  0.0023755114576716036  0.5020264967375638  1.0000
  Cd  Cd3       1.0  0.250617382325494  0.5023767314988918  0.9979696713571754  1.0000
  Cd  Cd4       1.0  0.24938360158864006  0.9976211814050235  0.4979734292875762  1.0000
  H   H1        1.0  0.8697433200836783  0.7265484363574047  0.8136138123542053  1.0000
  H   H2        1.0  0.63024030914773  0.7734434311906714  0.3136041365419189  1.0000
  H   H3        1.0  0.13025341138604318  0.2734549205051877  0.1863875671695254  1.0000
  H   H4        1.0  0.3697511832093027  0.22655332425976857  0.6863885218894694  1.0000
  H   H5        1.0  0.7168523700110468  0.3970505640864134  0.6092318329732008  1.0000
  H   H6        1.0  0.783152745281768  0.10294691208513744  0.10922681523575761  1.0000
  H   H7        1.0  0.2831466814008721  0.6029516716840677  0.3907695465544023  1.0000
  H   H8        1.0  0.21685835525574498  0.8970563509832631  0.8907709304987749  1.0000
  H   H9        1.0  0.6499287968374431  0.2969261046902646  0.7973790751749305  1.0000
  H   H10       1.0  0.8500668327864245  0.20306695978499792  0.29737866332407487  1.0000
  H   H11       1.0  0.3500704043820164  0.703078341974937  0.20262521138281636  1.0000
  H   H12       1.0  0.14993895374590244  0.7969285963189779  0.7026263500188392  1.0000
  H   H13       1.0  0.955694706537585  0.6115067827456644  0.2064840504686885  1.0000
  H   H14       1.0  0.5443097394506963  0.8884950841914336  0.7064846209897623  1.0000
  H   H15       1.0  0.04430180021799401  0.3884932578010736  0.7935086079558857  1.0000
  H   H16       1.0  0.4556987415337587  0.11150487814028763  0.2935138515115412  1.0000
  H   H17       1.0  0.8514387339827393  0.5442757787623337  0.3948775621632876  1.0000
  H   H18       1.0  0.6485627380845783  0.9557293726480725  0.8948778548504421  1.0000
  H   H19       1.0  0.14855941961423716  0.4557308866855367  0.6051180032802606  1.0000
  H   H20       1.0  0.35143129892831826  0.044269578030487415  0.1051227979249916  1.0000
  H   H21       1.0  0.5207609848100317  0.35291330817953803  0.1900808945798218  1.0000
  H   H22       1.0  0.9792443849314908  0.14708540631618663  0.6900794489319538  1.0000
  H   H23       1.0  0.4792376920863006  0.6470834003235383  0.8099183046853682  1.0000
  H   H24       1.0  0.020756836616939698  0.8529134974499684  0.30992193060534856  1.0000
  H   H25       1.0  0.8508597788960444  0.6568179990300395  0.6331226683500474  1.0000
  H   H26       1.0  0.649137013088385  0.8431792700750266  0.1331155430342008  1.0000
  H   H27       1.0  0.1491393474191796  0.3431853421921716  0.3668794379336404  1.0000
  H   H28       1.0  0.3508631608394452  0.15682185245631797  0.8668800224248656  1.0000
  H   H29       1.0  0.5929106335584606  0.3815429948752681  0.370909384498276  1.0000
  H   H30       1.0  0.907094222218994  0.11846018491436892  0.8709080358839498  1.0000
  H   H31       1.0  0.4070884927544042  0.6184603463688064  0.629089087990451  1.0000
  H   H32       1.0  0.09290961888437718  0.8815420195709864  0.1290955239225511  1.0000
  C   C1        1.0  0.81715268347628  0.6238201008408525  0.7845662353622914  1.0000
  C   C2        1.0  0.6828300852552117  0.8761776511946879  0.2845625940955117  1.0000
  C   C3        1.0  0.18284300037613116  0.37618547475632624  0.2154344173961533  1.0000
  C   C4        1.0  0.317162754333765  0.12382130731499076  0.7154358784024736  1.0000
  C   C5        1.0  0.7379511176250516  0.44944146547468483  0.6792694656835181  1.0000
  C   C6        1.0  0.7620483259130848  0.0505585236290784  0.17926689079295238  1.0000
  C   C7        1.0  0.26204800869017214  0.5505618757475333  0.3207326406001698  1.0000
  C   C8        1.0  0.23795798493673462  0.9494447706894819  0.8207344887346224  1.0000
  C   C9        1.0  0.7061733909889154  0.4006306832724179  0.7722809258344583  1.0000
  C   C10       1.0  0.7938221312476584  0.09936157766836122  0.27227956913173296  1.0000
  C   C11       1.0  0.2938268578455094  0.5993715446800607  0.2277204536936281  1.0000
  C   C12       1.0  0.20618141024437617  0.9006362049925726  0.7277239906864138  1.0000
  C   C13       1.0  0.849951713137699  0.5478973797027821  0.2316234994477497  1.0000
  C   C14       1.0  0.6500493229249144  0.9521064191980745  0.7316223590282078  1.0000
  C   C15       1.0  0.15004449400936443  0.45209823899330837  0.768373519542422  1.0000
  C   C16       1.0  0.3499515241093504  0.04788695728755952  0.2683790205236534  1.0000
  C   C17       1.0  0.7999602227874546  0.5148380499164632  0.3247017725461987  1.0000
  C   C18       1.0  0.7000410086465718  0.9851657347645717  0.8247004945369696  1.0000
  C   C19       1.0  0.200035236355987  0.48516420931677834  0.6752981534619805  1.0000
  C   C20       1.0  0.29996223323741583  0.014827626041345405  0.17530815260576557  1.0000
  C   C21       1.0  0.6242690281528168  0.41530827086798194  0.21940404003063924  1.0000
  C   C22       1.0  0.8757342843068656  0.08469452835086601  0.7194021202792342  1.0000
  C   C23       1.0  0.37572987345389913  0.5846917539859149  0.7805980662617813  1.0000
  C   C24       1.0  0.12426327007214158  0.9153032934044635  0.2806007127775274  1.0000
  Br  Br1       1.0  0.5102400514147191  0.7213424577767782  0.0077150034947095  1.0000
  Br  Br2       1.0  0.9897612930521972  0.7786551831154825  0.5077186799636095  1.0000
  Br  Br3       1.0  0.4897637896820726  0.27865974676976896  0.9922783816859138  1.0000
  Br  Br4       1.0  0.010237608551698  0.2213448417646475  0.4922790657748664  1.0000
  Br  Br5       1.0  0.9948043559710698  0.2793415037145551  0.9939363105998708  1.0000
  Br  Br6       1.0  0.5051928752775294  0.22065139940686865  0.49393263392980197  1.0000
  Br  Br7       1.0  0.005193871509668216  0.7206485720387763  0.0060650689597637  1.0000
  Br  Br8       1.0  0.49480714884510496  0.7793475122078919  0.5060636582940816  1.0000
  N   N1        1.0  0.7564817129497142  0.5102681669287109  0.8371329920417027  1.0000
  N   N2        1.0  0.7435032190531672  0.9897245152808055  0.3371324269190055  1.0000
  N   N3        1.0  0.24351756317023632  0.4897373852144613  0.1628676607181774  1.0000
  N   N4        1.0  0.25649059325075285  0.010271119033809803  0.66286749910617  1.0000
  N   N5        1.0  0.8059442562955252  0.5908072949121675  0.6889153877571842  1.0000
  N   N6        1.0  0.6940503628631589  0.9091915295632806  0.1889123061951921  1.0000
  N   N7        1.0  0.19405733976754647  0.40919713613014613  0.3110867185245496  1.0000
  N   N8        1.0  0.30594861364497916  0.09080960075984022  0.8110876198173428  1.0000
  N   N9        1.0  0.7394071889629924  0.48504757887345584  0.166756750519788  1.0000
  N   N10       1.0  0.7605959804550292  0.01495474819470391  0.6667565671195419  1.0000
  N   N11       1.0  0.26059276025539185  0.5149502272983214  0.8332373614300366  1.0000
  N   N12       1.0  0.23940853374960366  0.9850397102930233  0.3332448124308415  1.0000
  N   N13       1.0  0.6570607537445808  0.43233528290511475  0.31502514131097575  1.0000
  N   N14       1.0  0.8429440297026288  0.06766856914643431  0.8150225602664705  1.0000
  N   N15       1.0  0.34294196483864436  0.56766803485872  0.6849776917331383  1.0000
  N   N16       1.0  0.1570550217102209  0.932333666615307  0.18498027277911427  1.0000
