data_image0
_chemical_formula_structural       Ag2H20C28N10O6F4
_chemical_formula_sum              "Ag2 H20 C28 N10 O6 F4"
_cell_length_a       6.7786364159229615
_cell_length_b       6.778630466732451
_cell_length_c       18.948658357159186
_cell_angle_alpha    79.04058330368414
_cell_angle_beta     79.04062689521923
_cell_angle_gamma    67.33382986112407

_space_group_name_H-M_alt    "P 1"
_space_group_IT_number       1

loop_
  _space_group_symop_operation_xyz
  'x, y, z'

loop_
  _atom_site_type_symbol
  _atom_site_label
  _atom_site_symmetry_multiplicity
  _atom_site_fract_x
  _atom_site_fract_y
  _atom_site_fract_z
  _atom_site_occupancy
  Ag  Ag1       1.0  0.06680214463536063  0.9332040474380748  0.24999674642108974  1.0000
  Ag  Ag2       1.0  0.9331979537279198  0.06679890864669599  0.7500030189339953  1.0000
  H   H1        1.0  0.26167483026024035  0.7183454374547935  0.9547723952053958  1.0000
  H   H2        1.0  0.28164250807060415  0.7382974365489899  0.5452314368523759  1.0000
  H   H3        1.0  0.7383196805929659  0.281668705230352  0.04523386640263991  1.0000
  H   H4        1.0  0.7183625737598406  0.2616830716462245  0.45476471623250353  1.0000
  H   H5        1.0  0.6819176426803751  0.6990841050245179  0.1594710296469302  1.0000
  H   H6        1.0  0.3009325678703832  0.31806454947470536  0.3405392838520669  1.0000
  H   H7        1.0  0.3180774790617705  0.30092847070967105  0.8405326554007928  1.0000
  H   H8        1.0  0.6990733877798265  0.6819303162466923  0.6594600991994284  1.0000
  H   H9        1.0  0.5897142719984886  0.826152688532666  0.03553781514490592  1.0000
  H   H10       1.0  0.17387931159866818  0.4102397263240291  0.4644754199380544  1.0000
  H   H11       1.0  0.41028330308444805  0.1738614599480997  0.9644656076423745  1.0000
  H   H12       1.0  0.826127764515107  0.5897390690880613  0.535525464719541  1.0000
  H   H13       1.0  0.2388211528015845  0.5115389763827026  0.20428620403373546  1.0000
  H   H14       1.0  0.4884537554478074  0.7611629056419317  0.29571918201441605  1.0000
  H   H15       1.0  0.761170562827083  0.4884704252073602  0.7957184374215914  1.0000
  H   H16       1.0  0.5115496220702197  0.23883526685536077  0.7042764591985958  1.0000
  H   H17       1.0  0.9779321125964702  0.5208637818003224  0.23615577933302492  1.0000
  H   H18       1.0  0.47914003813324524  0.02207045245847179  0.2638488263789114  1.0000
  H   H19       1.0  0.02206717797957241  0.47914554864637177  0.7638467900196417  1.0000
  H   H20       1.0  0.5208593494224446  0.9779261398874723  0.7361487609759365  1.0000
  C   C1        1.0  0.8634481586135723  0.86686125214608  0.9155332984272775  1.0000
  C   C2        1.0  0.13315691214042863  0.13651057049006707  0.5844747818022  1.0000
  C   C3        1.0  0.13655624672303904  0.13315926265080688  0.08446715366075352  1.0000
  C   C4        1.0  0.8668489324104347  0.8634635182735335  0.4155212119952196  1.0000
  C   C5        1.0  0.916783942279054  0.7858865648558717  0.9864142856471008  1.0000
  C   C6        1.0  0.21412096707135936  0.08319013766196547  0.5135913930670029  1.0000
  C   C7        1.0  0.08322723489639834  0.2141145876653709  0.013588042122734102  1.0000
  C   C8        1.0  0.7858829470613745  0.9167935585187904  0.4864067394863485  1.0000
  C   C9        1.0  0.13349354715952452  0.7164852223132243  0.9989848138450768  1.0000
  C   C10       1.0  0.2835042131891899  0.8664829725405169  0.5010175726713015  1.0000
  C   C11       1.0  0.8665009907337692  0.2835289474137355  0.0010198609368857118  1.0000
  C   C12       1.0  0.7164935378263096  0.13350568171086508  0.49897694400439013  1.0000
  C   C13       1.0  0.17987681590493326  0.6449400307670813  0.06897082351993332  1.0000
  C   C14       1.0  0.35504760824260023  0.8201017640537176  0.4310331158439666  1.0000
  C   C15       1.0  0.8201194757022493  0.3550821942356349  0.931030045694868  1.0000
  C   C16       1.0  0.6449597210169743  0.17988511528511  0.5689635313597563  1.0000
  C   C17       1.0  0.02339859554853522  0.6376501519324336  0.1293919065337548  1.0000
  C   C18       1.0  0.3623498037903801  0.976583732902604  0.3706157174535392  1.0000
  C   C19       1.0  0.976592366373076  0.3623656781031812  0.8706123652670004  1.0000
  C   C20       1.0  0.6376539224574175  0.0234047797030641  0.6293821135950566  1.0000
  C   C21       1.0  0.8084882174254846  0.704599378955265  0.11487316812348077  1.0000
  C   C22       1.0  0.2954133348323325  0.1914852481662379  0.3851342926003697  1.0000
  C   C23       1.0  0.19150579971248052  0.2954164478620315  0.8851287937985433  1.0000
  C   C24       1.0  0.704589798553258  0.8085048494182627  0.61486505712449  1.0000
  C   C25       1.0  0.7562194392449161  0.7772355479227213  0.04509547684699563  1.0000
  C   C26       1.0  0.22277209604239095  0.24376165084378  0.4549086351221945  1.0000
  C   C27       1.0  0.2437873721983338  0.22277365729698317  0.9549081940551647  1.0000
  C   C28       1.0  0.7772306594059943  0.7562252423364625  0.5450909479576042  1.0000
  N   N1        1.0  0.8199997102152924  0.9366247619059677  0.8566550153799568  1.0000
  N   N2        1.0  0.06338255321288244  0.17997801747367248  0.643355158568575  1.0000
  N   N3        1.0  0.18001218461377289  0.06336992611397109  0.14334979781254026  1.0000
  N   N4        1.0  0.9366087184460525  0.8200074478240253  0.35664368227749327  1.0000
  N   N5        1.0  0.0787535458751877  0.5773742391385139  0.1979090283543954  1.0000
  N   N6        1.0  0.4226103806296565  0.9212387679893723  0.3020931532891424  1.0000
  N   N7        1.0  0.9212438661955676  0.42263191555489493  0.8020933424665062  1.0000
  N   N8        1.0  0.5773899777254459  0.0787594437819905  0.6979026820345027  1.0000
  N   N9        1.0  0.652666594164451  0.3473275054143058  0.2500023578460856  1.0000
  N   N10       1.0  0.347332227569112  0.652670698952285  0.749995161358953  1.0000
  O   O1        1.0  0.8107028316278292  0.33783463080548165  0.27897252971130376  1.0000
  O   O2        1.0  0.6621554523488057  0.18929701007839123  0.22102998360157508  1.0000
  O   O3        1.0  0.18929712174999472  0.6621603495198088  0.7210251257933609  1.0000
  O   O4        1.0  0.33783962355486347  0.8107076890496356  0.778965773233452  1.0000
  O   O5        1.0  0.4834997429375607  0.5164929568995689  0.2500034832498629  1.0000
  O   O6        1.0  0.5164994296931198  0.4835084248294662  0.7499953894263102  1.0000
  F   F1        1.0  0.38948027711553845  0.5750166162727907  0.08222881071866792  1.0000
  F   F2        1.0  0.4249553270060036  0.6105209049760771  0.417771019598014  1.0000
  F   F3        1.0  0.6105191494325981  0.42500068091944593  0.9177763974264508  1.0000
  F   F4        1.0  0.5750450764159114  0.3894773518649756  0.5822221710155091  1.0000
