data_image0
_chemical_formula_structural       Cu2H8C8I2N4
_chemical_formula_sum              "Cu2 H8 C8 I2 N4"
_cell_length_a       5.797915239145987
_cell_length_b       7.6446401117847556
_cell_length_c       7.644787879968304
_cell_angle_alpha    109.00217252017691
_cell_angle_beta     97.18694289959885
_cell_angle_gamma    97.18559412404798

_space_group_name_H-M_alt    "P 1"
_space_group_IT_number       1

loop_
  _space_group_symop_operation_xyz
  'x, y, z'

loop_
  _atom_site_type_symbol
  _atom_site_label
  _atom_site_symmetry_multiplicity
  _atom_site_fract_x
  _atom_site_fract_y
  _atom_site_fract_z
  _atom_site_occupancy
  Cu  Cu1       1.0  0.2612620579666896  0.4643181724995812  0.4643213328113659  1.0000
  Cu  Cu2       1.0  0.7387015073549889  0.5356796895985667  0.5356794230447193  1.0000
  H   H1        1.0  0.3192066583386223  0.589474462793163  0.13662356583929383  1.0000
  H   H2        1.0  0.6807121392445694  0.8634239613197181  0.4105796847060432  1.0000
  H   H3        1.0  0.6806899625191036  0.41057851741792456  0.8634153513036508  1.0000
  H   H4        1.0  0.3191906398608069  0.13661515148978506  0.5894735879863475  1.0000
  H   H5        1.0  0.16324842016950925  0.8284284872603608  0.015768258411135626  1.0000
  H   H6        1.0  0.8367787981130661  0.9842361386485617  0.17160040539363308  1.0000
  H   H7        1.0  0.836756251532776  0.17159375188243328  0.9842230928749415  1.0000
  H   H8        1.0  0.16322162470240897  0.015762328291117497  0.8284221022637865  1.0000
  C   C1        1.0  0.1759728083911511  0.6582491661530767  0.19067183108991503  1.0000
  C   C2        1.0  0.824036453828036  0.8093634162351648  0.3417391603505918  1.0000
  C   C3        1.0  0.8240261194111653  0.3417324901754384  0.8093542469508748  1.0000
  C   C4        1.0  0.1759549397013913  0.19067121214149543  0.6582471946622945  1.0000
  C   C5        1.0  0.08955099400149887  0.7921358147776516  0.12616659587120432  1.0000
  C   C6        1.0  0.9104992843778987  0.8738269779288926  0.2078288893252136  1.0000
  C   C7        1.0  0.9104697690977802  0.2078264629856719  0.8738237187070225  1.0000
  C   C8        1.0  0.08955122674979071  0.1261650517240938  0.7921318356358924  1.0000
  I   I1        1.0  0.49303738127003527  0.24307266101838104  0.24308212542838697  1.0000
  I   I2        1.0  0.5069454678184185  0.7569255125985633  0.7569282763365094  1.0000
  N   N1        1.0  0.09167929856098309  0.6041380065155122  0.3242366482908351  1.0000
  N   N2        1.0  0.9084050905718897  0.6757598111936287  0.3958069636812309  1.0000
  N   N3        1.0  0.9084021692853101  0.39579716525069125  0.6757528254098091  1.0000
  N   N4        1.0  0.09169042253726899  0.32423281882776667  0.6041317511086459  1.0000
