data_image0
_chemical_formula_structural       Cd2H56C52N8O10
_chemical_formula_sum              "Cd2 H56 C52 N8 O10"
_cell_length_a       9.854709735265393
_cell_length_b       12.193383577746339
_cell_length_c       13.126
_cell_angle_alpha    64.43741158248628
_cell_angle_beta     68.72740141584471
_cell_angle_gamma    73.05667277066996

_space_group_name_H-M_alt    "P 1"
_space_group_IT_number       1

loop_
  _space_group_symop_operation_xyz
  'x, y, z'

loop_
  _atom_site_type_symbol
  _atom_site_label
  _atom_site_symmetry_multiplicity
  _atom_site_fract_x
  _atom_site_fract_y
  _atom_site_fract_z
  _atom_site_occupancy
  Cd  Cd1       1.0  0.18767494814135688  0.8835407404486375  0.021043802161479216  1.0000
  Cd  Cd2       1.0  0.812325952767253  0.1164586916398989  0.9789561800840332  1.0000
  H   H1        1.0  0.6078481892695181  0.3594669571797411  0.6327108043788741  1.0000
  H   H2        1.0  0.39215017975151767  0.6405343169829578  0.3672891291441757  1.0000
  H   H3        1.0  0.06498278448743383  0.7945492166399717  0.8293393399096942  1.0000
  H   H4        1.0  0.935018116421176  0.2054502154485647  0.17066064233581807  1.0000
  H   H5        1.0  0.07547651346185094  0.925542794456007  0.7002482925830903  1.0000
  H   H6        1.0  0.9245232985085607  0.07445663763252242  0.29975198627438715  1.0000
  H   H7        1.0  0.8338726035391628  0.6834214876252248  0.9107291387057471  1.0000
  H   H8        1.0  0.1661272084312415  0.3165779444633117  0.08927114015173736  1.0000
  H   H9        1.0  0.7062249866911898  0.8227826873226505  0.8940019018290496  1.0000
  H   H10       1.0  0.29377482527921484  0.1772167447658859  0.10599837702843469  1.0000
  H   H11       1.0  0.9850582166589844  0.6278718991926057  0.5985333717639989  1.0000
  H   H12       1.0  0.01494141830583832  0.3721284539330085  0.40146582427357197  1.0000
  H   H13       1.0  0.8456884757128478  0.5445208064683271  0.8086193618934626  1.0000
  H   H14       1.0  0.15431242519576216  0.45547862562020924  0.19137985850532854  1.0000
  H   H15       1.0  0.7282040687290205  0.5880711238089589  0.7177341926602877  1.0000
  H   H16       1.0  0.271795743241384  0.41192830827957755  0.28226532435047597  1.0000
  H   H17       1.0  0.08596147512640329  0.7882355074493361  0.6053596775383737  1.0000
  H   H18       1.0  0.9140372479057958  0.2117639246391931  0.394640897931076  1.0000
  H   H19       1.0  0.057606317412641835  0.6640391832914929  0.7414382032204541  1.0000
  H   H20       1.0  0.9423934945577627  0.3359602487970434  0.2585613137903097  1.0000
  H   H21       1.0  0.5462758644637374  0.7880623524781002  0.69072983970306  1.0000
  H   H22       1.0  0.45372377050108526  0.21193800064751403  0.3092693563345036  1.0000
  H   H23       1.0  0.5390560418026595  0.8848025612496855  0.7617974791027463  1.0000
  H   H24       1.0  0.46094377016774496  0.1151968708388509  0.23820279975473105  1.0000
  H   H25       1.0  0.6763695261550422  0.9679344471486715  0.5504335033554779  1.0000
  H   H26       1.0  0.3236291968771567  0.0320649849398649  0.44956631026725086  1.0000
  H   H27       1.0  0.9173333606326255  0.8483755446939371  0.474322679563947  1.0000
  H   H28       1.0  0.08266518539399212  0.1516248084316771  0.5256775749323026  1.0000
  H   H29       1.0  0.7702133915672533  0.7659040423820684  0.5224691488440598  1.0000
  H   H30       1.0  0.22978642040315114  0.23409538970646793  0.4775303681667041  1.0000
  H   H31       1.0  0.7490227589390557  0.0034796780922264005  0.6961304261596268  1.0000
  H   H32       1.0  0.25097578708756163  0.9965206750333878  0.30386982833662307  1.0000
  H   H33       1.0  0.9043452103390379  0.9886108085812851  0.5781701918597548  1.0000
  H   H34       1.0  0.0956535126931612  0.0113886235072513  0.4218296217629741  1.0000
  H   H35       1.0  0.5317197449079246  0.5859951062282535  0.8836195971721705  1.0000
  H   H36       1.0  0.46828115600069237  0.41400432586027597  0.11638038507334163  1.0000
  H   H37       1.0  0.6254261474589029  0.5734330814797418  0.9823496968416664  1.0000
  H   H38       1.0  0.37457348750591984  0.4265672716458796  0.017650261042618378  1.0000
  H   H39       1.0  0.23409254929028836  0.9967490922294928  0.7540200330717253  1.0000
  H   H40       1.0  0.7659069086689526  0.0032521819332061  0.24597884199264541  1.0000
  H   H41       1.0  0.38916106941586986  0.1331865671060299  0.565978721784191  1.0000
  H   H42       1.0  0.6108396544871582  0.8668137860195914  0.4340209394881214  1.0000
  H   H43       1.0  0.5552745691000851  0.2168692331794873  0.7847307112867198  1.0000
  H   H44       1.0  0.4447252428703193  0.7831301989090492  0.21527032941747834  1.0000
  H   H45       1.0  0.39795924391292903  0.0809803432776448  0.9563346290589931  1.0000
  H   H46       1.0  0.6020382131754829  0.9190200098479766  0.04366516020250791  1.0000
  H   H47       1.0  0.7544238930199683  0.5054273875629249  0.5541274090466644  1.0000
  H   H48       1.0  0.24557683088305987  0.4945729655626891  0.445872252225655  1.0000
  H   H49       1.0  0.9543672113790507  0.6232105305253839  0.46830986533824154  1.0000
  H   H50       1.0  0.04563351252398462  0.3767898226002302  0.5316890340873569  1.0000
  H   H51       1.0  0.11260622600105562  0.7658450960088815  0.29195276720194835  1.0000
  H   H52       1.0  0.8873946749075613  0.234154336079655  0.7080464531968431  1.0000
  H   H53       1.0  0.950755455891489  0.7200732372287462  0.06554887509647501  1.0000
  H   H54       1.0  0.049243267140710104  0.2799261948597902  0.9344517003729677  1.0000
  H   H55       1.0  0.7826527323444239  0.5770242050587768  0.23237381035252708  1.0000
  H   H56       1.0  0.2173469026203989  0.4229761480668373  0.7676261475317574  1.0000
  C   C1        1.0  0.925096802028463  0.9575331753923139  0.8507892659789886  1.0000
  C   C2        1.0  0.0749030099419414  0.0424662566962226  0.149210251031775  1.0000
  C   C3        1.0  0.9962662324892192  0.8743036595627345  0.7801789565002082  1.0000
  C   C4        1.0  0.003733579481185208  0.1256957725258019  0.21982208420398305  1.0000
  C   C5        1.0  0.8980140226473594  0.8308297882998303  0.7418480968362358  1.0000
  C   C6        1.0  0.10198578932304511  0.16916964378870603  0.25815142017452786  1.0000
  C   C7        1.0  0.7797051279150364  0.7615438528403544  0.8476492878670145  1.0000
  C   C8        1.0  0.22029468405536787  0.23845557924818195  0.15234946729703577  1.0000
  C   C9        1.0  0.9096925271617023  0.6926042273233506  0.6402639222842552  1.0000
  C   C10       1.0  0.09030601886491499  0.3073961258022706  0.3597355703652738  1.0000
  C   C11       1.0  0.6873764092878858  0.7120371886965344  0.8083624975224665  1.0000
  C   C12       1.0  0.31262340268251876  0.2879622433919948  0.19163778133501097  1.0000
  C   C13       1.0  0.7928014511884526  0.6243664320621107  0.7461935697434043  1.0000
  C   C14       1.0  0.2071972718437465  0.3756330000264256  0.2538070057260454  1.0000
  C   C15       1.0  0.999618260810152  0.7411290659387575  0.6807405100272277  1.0000
  C   C16       1.0  0.00038137415467080315  0.2588712871868637  0.31925868601033597  1.0000
  C   C17       1.0  0.6142204674529025  0.8212648182130735  0.7188780203321553  1.0000
  C   C18       1.0  0.3857782555792966  0.17873461387546294  0.2811217932905734  1.0000
  C   C19       1.0  0.7311188572920101  0.8896628739264117  0.6127952915922986  1.0000
  C   C20       1.0  0.26887986574018896  0.11033655816212473  0.3872045220304301  1.0000
  C   C21       1.0  0.8340722785470974  0.8006308244861843  0.5526170089588405  1.0000
  C   C22       1.0  0.1659273564177255  0.19936952863942992  0.44738294892543706  1.0000
  C   C23       1.0  0.8206667208832529  0.9383350784747935  0.6539777808618509  1.0000
  C   C24       1.0  0.17933309108715886  0.0616643536137431  0.3460217361489128  1.0000
  C   C25       1.0  0.5715096504479433  0.6389510542406214  0.9137296579187079  1.0000
  C   C26       1.0  0.42849233939887904  0.361048377847915  0.0862700277148392  1.0000
  C   C27       1.0  0.4374191544395598  0.7185940516765754  0.965473944509675  1.0000
  C   C28       1.0  0.562579568592639  0.2814053804119609  0.03452663095976759  1.0000
  C   C29       1.0  0.3059748700497238  0.0494910065134349  0.7544882146580179  1.0000
  C   C30       1.0  0.6940258538533043  0.9505093466121793  0.24551144661430158  1.0000
  C   C31       1.0  0.39071996467482245  0.12448000357881031  0.6515916410871583  1.0000
  C   C32       1.0  0.6092809362337874  0.8755194285097261  0.34840757931163313  1.0000
  C   C33       1.0  0.48079923254323376  0.18962956150727453  0.6584533929628408  1.0000
  C   C34       1.0  0.5192014913597945  0.8103707916183469  0.3415455064627577  1.0000
  C   C35       1.0  0.4854396956498519  0.1739258792752736  0.7694386280681299  1.0000
  C   C36       1.0  0.514559939314971  0.8260744738503407  0.23056209166286815  1.0000
  C   C37       1.0  0.39755303136966086  0.0958090402826315  0.8683590503743233  1.0000
  C   C38       1.0  0.6024455146569564  0.9041913128429828  0.13164120412192634  1.0000
  C   C39       1.0  0.5644640861245236  0.2721830361193582  0.543546492238505  1.0000
  C   C40       1.0  0.43553772671671  0.7278173170062631  0.45645287242184196  1.0000
  C   C41       1.0  0.762995865845177  0.5072980138745536  0.4672487044825502  1.0000
  C   C42       1.0  0.23700630100722003  0.4927004971769052  0.5327520639709035  1.0000
  C   C43       1.0  0.854690855629272  0.5895042575070804  0.3644122306870159  1.0000
  C   C44       1.0  0.14531004527933788  0.410495174581456  0.6355877515584963  1.0000
  C   C45       1.0  0.9503568440869614  0.6422990240302582  0.3804671202809544  1.0000
  C   C46       1.0  0.049643879816073905  0.35770132909535596  0.6195325409913578  1.0000
  C   C47       1.0  0.03943418466684533  0.7199700810756724  0.28337759561667747  1.0000
  C   C48       1.0  0.9605665392361825  0.2800302720499488  0.7166213038089211  1.0000
  C   C49       1.0  0.9478904968999584  0.694881030987716  0.1566733333480669  1.0000
  C   C50       1.0  0.05210931507045302  0.3051184011008203  0.8433261836626896  1.0000
  C   C51       1.0  0.8549223485122469  0.6164381448683827  0.24884330007172656  1.0000
  C   C52       1.0  0.14507855239636308  0.38356128722015376  0.7511551584803582  1.0000
  N   N1        1.0  0.30893601621365  0.0361000483919725  0.8608144489438416  1.0000
  N   N2        1.0  0.6910645306837965  0.9639012257707265  0.13918489135527773  1.0000
  N   N3        1.0  0.6241606054332535  0.3568825271302956  0.5521192484221658  1.0000
  N   N4        1.0  0.3758390295315693  0.6431178259953185  0.44788147130883255  1.0000
  N   N5        1.0  0.7011500186795913  0.43573159060238  0.45480776187940825  1.0000
  N   N6        1.0  0.2988497932908202  0.5642678414861565  0.5451925169780694  1.0000
  N   N7        1.0  0.0378542069096213  0.7463402937433657  0.17343889142981783  1.0000
  N   N8        1.0  0.9621454280552015  0.2536600593822484  0.8265610664544667  1.0000
  O   O1        1.0  0.9915794490980758  0.9506502652855815  0.9218189361929557  1.0000
  O   O2        1.0  0.008420362872328696  0.049349166802954904  0.0781813426645215  1.0000
  O   O3        1.0  0.8076454689575312  0.034027714959592  0.8377012033201863  1.0000
  O   O4        1.0  0.19235543195107851  0.9659717171289373  0.1622987789253258  1.0000
  O   O5        1.0  0.44329787484170413  0.7600278258049329  0.03762171568756394  1.0000
  O   O6        1.0  0.5567006711849131  0.2399725273206812  0.962377776961972  1.0000
  O   O7        1.0  0.3221086112443246  0.7436877069499275  0.9305209466681885  1.0000
  O   O8        1.0  0.6778901117878817  0.2563117251386089  0.06947886695454027  1.0000
  O   O9        1.0  0.5762564897760213  0.2673595649258687  0.4491000760140125  1.0000
  O   O10       1.0  0.4237467660145811  0.73263894612559  0.550900395827483  1.0000
