data_image0
_chemical_formula_structural       Zn4H32C38N4O18
_chemical_formula_sum              "Zn4 H32 C38 N4 O18"
_cell_length_a       8.388990176115577
_cell_length_b       9.701870074507493
_cell_length_c       12.986870669041007
_cell_angle_alpha    94.28599336184344
_cell_angle_beta     108.62971841537546
_cell_angle_gamma    91.43115279353006

_space_group_name_H-M_alt    "P 1"
_space_group_IT_number       1

loop_
  _space_group_symop_operation_xyz
  'x, y, z'

loop_
  _atom_site_type_symbol
  _atom_site_label
  _atom_site_symmetry_multiplicity
  _atom_site_fract_x
  _atom_site_fract_y
  _atom_site_fract_z
  _atom_site_occupancy
  Zn  Zn1       1.0  0.7674326730639721  0.3829952299196152  0.22169573794960948  1.0000
  Zn  Zn2       1.0  0.23256806361625595  0.6170058376941514  0.778303705299848  1.0000
  Zn  Zn3       1.0  0.8016139192627206  0.7384927547612893  0.9020961496663985  1.0000
  Zn  Zn4       1.0  0.19838542376264456  0.2615062696700577  0.0979044494747754  1.0000
  H   H1        1.0  0.5126962946605572  0.8011511641234609  0.31216544906949645  1.0000
  H   H2        1.0  0.4873057678114278  0.19885092493068882  0.6878335469864467  1.0000
  H   H3        1.0  0.24277039110451434  0.7590320873679773  0.183285230139262  1.0000
  H   H4        1.0  0.7572315356412317  0.2409679582020844  0.816715183313107  1.0000
  H   H5        1.0  0.36730184776872227  0.6107283637413305  0.01350686156882121  1.0000
  H   H6        1.0  0.6326986198027598  0.3892686037266203  0.986494646277812  1.0000
  H   H7        1.0  0.3491221263022837  0.9173525505338207  0.00694887171065519  1.0000
  H   H8        1.0  0.6508744434756862  0.08264230846684484  0.9930494180399803  1.0000
  H   H9        1.0  0.4796752750814904  0.9735713767502008  0.18961072787816852  1.0000
  H   H10       1.0  0.5203202356697573  0.02642657413354501  0.8103867146644603  1.0000
  H   H11       1.0  0.6631518862816675  0.9030572920297716  0.1718559700803439  1.0000
  H   H12       1.0  0.3368451468195132  0.09694478505340952  0.828141209761135  1.0000
  H   H13       1.0  0.7931241770878755  0.08821996573538374  0.2562310723874575  1.0000
  H   H14       1.0  0.20687669063114808  0.9117831717177582  0.7437684938569049  1.0000
  H   H15       1.0  0.8032477175556849  0.93069426135952  0.4004906079146906  1.0000
  H   H16       1.0  0.19674917981925694  0.06930577223956651  0.5995079893232073  1.0000
  H   H17       1.0  0.6250004409066675  0.8426719592398016  0.5026245812971482  1.0000
  H   H18       1.0  0.37500036598041225  0.15733011693837548  0.4973733830584378  1.0000
  H   H19       1.0  0.6379321070760965  0.70474521213707  0.6606686104998047  1.0000
  H   H20       1.0  0.36206473649807686  0.2952537206541451  0.3393260742623312  1.0000
  H   H21       1.0  0.9464415408650738  0.009843713177069406  0.8808896546876496  1.0000
  H   H22       1.0  0.053560055939975426  0.990151170972212  0.1191112214731191  1.0000
  H   H23       1.0  0.9540913976714477  0.15556217578291864  0.7332589077725017  1.0000
  H   H24       1.0  0.04591025762182711  0.8444337828189606  0.2667443404727052  1.0000
  H   H25       1.0  0.7533495942254901  0.29452097819132933  0.6035158437275285  1.0000
  H   H26       1.0  0.2466587508584795  0.7054811488874082  0.3964867704389121  1.0000
  H   H27       1.0  0.7580229184945609  0.43487747626015516  0.4526802954936286  1.0000
  H   H28       1.0  0.2419816574909603  0.5651246253683057  0.5473199937673812  1.0000
  H   H29       1.0  0.9426137667006886  0.5917928672428304  0.3249923649992539  1.0000
  H   H30       1.0  0.0573857752265852  0.4082092487699286  0.6750076484386083  1.0000
  H   H31       1.0  0.0912129295677246  0.501470273228833  0.3019146709825264  1.0000
  H   H32       1.0  0.908789053322515  0.4985308599714673  0.6980888847499358  1.0000
  C   C1        1.0  0.5105771575573711  0.7597874629982403  0.2305246228023705  1.0000
  C   C2        1.0  0.489423508916019  0.24021259605112294  0.7694762993409583  1.0000
  C   C3        1.0  0.33601286134264535  0.6925934543612656  0.1644372494405744  1.0000
  C   C4        1.0  0.6639889975399811  0.3074055694667522  0.8355638727100042  1.0000
  C   C5        1.0  0.31921472607761814  0.7034688380581218  0.044680328423503134  1.0000
  C   C6        1.0  0.6807856759744765  0.2965270944901449  0.9553211179256776  1.0000
  C   C7        1.0  0.4301243883195128  0.8340388247770965  0.04269968617698082  1.0000
  C   C8        1.0  0.5698723124972459  0.16595810406293776  0.9572987265685666  1.0000
  C   C9        1.0  0.530760911559092  0.879619776503248  0.1627818229372338  1.0000
  C   C10       1.0  0.46923737478326893  0.12038232663353914  0.8372171588002714  1.0000
  C   C11       1.0  0.6586998417052142  0.6652579045670284  0.24936824009518685  1.0000
  C   C12       1.0  0.34130467344836285  0.3347431357864752  0.7506304472770465  1.0000
  C   C13       1.0  0.29089848423290476  0.5480349023379107  0.18899827204449338  1.0000
  C   C14       1.0  0.709104751898522  0.45196625691599496  0.8110070855839949  1.0000
  C   C15       1.0  0.14096398033026253  0.7178466961382669  0.972505053641413  1.0000
  C   C16       1.0  0.8590339690402331  0.28215028511065304  0.027496701391484635  1.0000
  C   C17       1.0  0.532762908321331  0.8017963605685313  0.9670366597362089  1.0000
  C   C18       1.0  0.46723518146284704  0.19820263780921019  0.03296213750893882  1.0000
  C   C19       1.0  0.7861648586458403  0.12861443639001646  0.33505564017661266  1.0000
  C   C20       1.0  0.213833415977895  0.871387732634958  0.6649471925392021  1.0000
  C   C21       1.0  0.7901984882739937  0.041528323775516206  0.41590595330657715  1.0000
  C   C22       1.0  0.20979649463685496  0.9584809588158695  0.5840888234206787  1.0000
  C   C23       1.0  0.7801949094529377  0.09978784182438723  0.5156867986583293  1.0000
  C   C24       1.0  0.21980582019612882  0.9002132653223004  0.4843149551781067  1.0000
  C   C25       1.0  0.7848197906171918  0.013174583419868203  0.6051511716042483  1.0000
  C   C26       1.0  0.21517948923250427  0.9868233929141541  0.39484859584381127  1.0000
  C   C27       1.0  0.6976096607511622  0.8835206705692761  0.5852713012038109  1.0000
  C   C28       1.0  0.30239107592907283  0.11648039704449793  0.41472814204564656  1.0000
  C   C29       1.0  0.7018957323594249  0.8068434331019676  0.672193986212356  1.0000
  C   C30       1.0  0.29810109949612235  0.19315556557744176  0.32780454952808913  1.0000
  C   C31       1.0  0.8763581911159974  0.9761544409600308  0.7960815268142127  1.0000
  C   C32       1.0  0.12364069561733261  0.023837325855893706  0.2039178716491392  1.0000
  C   C33       1.0  0.8775783328153255  0.05871961695173412  0.713461219415791  1.0000
  C   C34       1.0  0.12242094469064568  0.9412783725599285  0.2865393182279306  1.0000
  C   C35       1.0  0.7663327518871481  0.24332472890186108  0.5290270617178834  1.0000
  C   C36       1.0  0.23366938079167449  0.7566783687166991  0.4709704554441884  1.0000
  C   C37       1.0  0.7649234409821873  0.32280091098393643  0.44404941181809227  1.0000
  C   C38       1.0  0.23507735652999176  0.6772012179047953  0.5559516333201415  1.0000
  N   N1        1.0  0.7736357410171593  0.2662574826218532  0.3483048943535464  1.0000
  N   N2        1.0  0.22636254298148367  0.7337446336925739  0.6516948575796205  1.0000
  N   N3        1.0  0.7887726522614072  0.8531969974862508  0.776045088415877  1.0000
  N   N4        1.0  0.2112279510363138  0.14680201346578775  0.2239550020343373  1.0000
  O   O1        1.0  0.6249029307203954  0.5430366338156107  0.20001242338695138  1.0000
  O   O2        1.0  0.3751003873364952  0.45696546811451827  0.7999876043693632  1.0000
  O   O3        1.0  0.990358309102639  0.4976809780072673  0.326090459296026  1.0000
  O   O4        1.0  0.009641167305240103  0.5023201030858077  0.673909492644384  1.0000
  O   O5        1.0  0.8012536765296544  0.7135125351604332  0.3114037986579845  1.0000
  O   O6        1.0  0.19874964621468652  0.2864895404144151  0.6885946887069991  1.0000
  O   O7        1.0  0.29294189255652014  0.527776339585266  0.2842144943459388  1.0000
  O   O8        1.0  0.7070626763978325  0.47222580157610866  0.7157881055020566  1.0000
  O   O9        1.0  0.24315142547331448  0.45862318226002713  0.1055873977315969  1.0000
  O   O10       1.0  0.7568465800416745  0.5413748866191244  0.8944174995813938  1.0000
  O   O11       1.0  0.034720600324945415  0.7685016922642876  0.014531199928505604  1.0000
  O   O12       1.0  0.9652809333044344  0.2314921437876692  0.985468844539149  1.0000
  O   O13       1.0  0.09824948692840249  0.685507791951345  0.8698232397172561  1.0000
  O   O14       1.0  0.9017524398173435  0.3144922536187168  0.13017717373510607  1.0000
  O   O15       1.0  0.4594865156234747  0.7482026537112534  0.8708437731893566  1.0000
  O   O16       1.0  0.5405091238228364  0.25179738018950104  0.1291545625438388  1.0000
  O   O17       1.0  0.6919155523769829  0.8317122645401229  0.0031878792614605934  1.0000
  O   O18       1.0  0.3080851187838576  0.16828776815396657  0.9968115024905443  1.0000
