data_image0
_chemical_formula_structural       Mn2H14C12N18O10
_chemical_formula_sum              "Mn2 H14 C12 N18 O10"
_cell_length_a       8.746721847988233
_cell_length_b       9.182692469640624
_cell_length_c       9.182687574287453
_cell_angle_alpha    113.91640480161217
_cell_angle_beta     106.27941287141664
_cell_angle_gamma    106.27954119736836

_space_group_name_H-M_alt    "P 1"
_space_group_IT_number       1

loop_
  _space_group_symop_operation_xyz
  'x, y, z'

loop_
  _atom_site_type_symbol
  _atom_site_label
  _atom_site_symmetry_multiplicity
  _atom_site_fract_x
  _atom_site_fract_y
  _atom_site_fract_z
  _atom_site_occupancy
  Mn  Mn1       1.0  0.1745323410938085  0.6833697562179212  0.41142511560718725  1.0000
  Mn  Mn2       1.0  0.674531605315252  0.41142586087238453  0.6833694390088068  1.0000
  H   H1        1.0  0.3863148260413709  0.2201809752137436  0.9555432424737375  1.0000
  H   H2        1.0  0.8863159354912183  0.9555453215616863  0.22018265646470062  1.0000
  H   H3        1.0  0.7505519481545306  0.1080545323832993  0.6526998454065802  1.0000
  H   H4        1.0  0.25055363167632555  0.6527014011214193  0.10805784366556279  1.0000
  H   H5        1.0  0.6553593715232252  0.9224056225965143  0.4274123289285894  1.0000
  H   H6        1.0  0.15535962605551396  0.4274140810677594  0.9224067445352373  1.0000
  H   H7        1.0  0.8427475224131767  0.25891400290863226  0.184053284434249  1.0000
  H   H8        1.0  0.3427472279265729  0.18405420992140617  0.2589138728822958  1.0000
  H   H9        1.0  0.6681707893351714  0.32130751329587076  0.1601885921022657  1.0000
  H   H10       1.0  0.16817070485991079  0.16018893762583278  0.3213086574143488  1.0000
  H   H11       1.0  0.037519180555349904  0.39543610665273826  0.4691772791142269  1.0000
  H   H12       1.0  0.537519021589347  0.4691756759488755  0.3954345532245894  1.0000
  H   H13       1.0  0.07457505712251593  0.5801671150590764  0.6280234923935878  1.0000
  H   H14       1.0  0.5745737879478128  0.6280225055281577  0.5801646803126912  1.0000
  C   C1        1.0  0.1707194435178394  0.028911305864326702  0.714506543866612  1.0000
  C   C2        1.0  0.670719399247055  0.7145084577668116  0.028910979974092837  1.0000
  C   C3        1.0  0.4518448488552663  0.021904293418998595  0.8171342991596116  1.0000
  C   C4        1.0  0.9518441608297079  0.8171339310596365  0.021905752487967202  1.0000
  C   C5        1.0  0.8307352947361578  0.39776841792343026  0.03945790883782502  1.0000
  C   C6        1.0  0.33073858771917497  0.03946321389633309  0.3977717650921447  1.0000
  C   C7        1.0  0.7746027148527547  0.044819105900685906  0.5374755787657362  1.0000
  C   C8        1.0  0.2746048633968812  0.5374797060925117  0.04482297872613112  1.0000
  C   C9        1.0  0.8257816631683709  0.1725586981462968  0.4718568146618194  1.0000
  C   C10       1.0  0.325779788480041  0.4718559192949598  0.17256003952383026  1.0000
  C   C11       1.0  0.741986514496361  0.2689569618486375  0.0911683093013451  1.0000
  C   C12       1.0  0.24198648988350868  0.09116866621981497  0.26895772682340885  1.0000
  N   N1        1.0  0.9161793110167338  0.9969699618316171  0.5881618419095389  1.0000
  N   N2        1.0  0.41617824503004636  0.5881610123631161  0.9969712031870938  1.0000
  N   N3        1.0  0.08026008758128714  0.8688349244354612  0.557229281132173  1.0000
  N   N4        1.0  0.58025886858033  0.5572299318699406  0.8688344546104144  1.0000
  N   N5        1.0  0.0689137092672922  0.1129604748457211  0.7379695753484582  1.0000
  N   N6        1.0  0.5689141406067222  0.7379704784832768  0.11296149515437989  1.0000
  N   N7        1.0  0.9186023357726325  0.8521458260040404  0.47794587629280716  1.0000
  N   N8        1.0  0.4186014282219972  0.4779462612528818  0.8521481074474406  1.0000
  N   N9        1.0  0.41233230727444686  0.8641088643791974  0.6805090989541254  1.0000
  N   N10       1.0  0.9123330084755494  0.680510465601884  0.8641083949989219  1.0000
  N   N11       1.0  0.34361105346182796  0.1009397142330144  0.8374431609992922  1.0000
  N   N12       1.0  0.8436121553121224  0.8374443396585035  0.10093896802023741  1.0000
  N   N13       1.0  0.5625173385399762  0.8417236250245566  0.7194979473499713  1.0000
  N   N14       1.0  0.06251669214610434  0.719497500954155  0.8417220258002088  1.0000
  N   N15       1.0  0.6234903146867622  0.0911838988915434  0.9373732441377453  1.0000
  N   N16       1.0  0.1234938661404783  0.937374892538287  0.09118614900107501  1.0000
  N   N17       1.0  0.6903398963824046  0.9762252807379072  0.8708713455837439  1.0000
  N   N18       1.0  0.1903405665073024  0.870872060290047  0.9762257407903686  1.0000
  O   O1        1.0  0.7847380586551579  0.33860130078277706  0.8753132313519382  1.0000
  O   O2        1.0  0.2847377118503403  0.8753116841455012  0.3385996286826726  1.0000
  O   O3        1.0  0.9207653651660266  0.15570624787468293  0.3894170690980941  1.0000
  O   O4        1.0  0.42076219106107254  0.3894140781612662  0.15570604253574044  1.0000
  O   O5        1.0  0.7695809551844733  0.2894276455013411  0.5040519100919524  1.0000
  O   O6        1.0  0.2695763455126681  0.504050191479621  0.28942630903190997  1.0000
  O   O7        1.0  0.941382123843745  0.5545962026985193  0.16708537535385642  1.0000
  O   O8        1.0  0.44138261351061203  0.16708491776326886  0.5545957469721754  1.0000
  O   O9        1.0  0.1026439545565125  0.5261054114259309  0.5277475020280631  1.0000
  O   O10       1.0  0.6026471938819782  0.5277507627296244  0.5261076557845853  1.0000
