data_image0
_chemical_formula_structural       Zn6H60C58N12O33
_chemical_formula_sum              "Zn6 H60 C58 N12 O33"
_cell_length_a       18.78287825732488
_cell_length_b       18.553617534830426
_cell_length_c       18.51993150026732
_cell_angle_alpha    108.6528474171441
_cell_angle_beta     109.47546486371502
_cell_angle_gamma    110.06961638121547

_space_group_name_H-M_alt    "P 1"
_space_group_IT_number       1

loop_
  _space_group_symop_operation_xyz
  'x, y, z'

loop_
  _atom_site_type_symbol
  _atom_site_label
  _atom_site_symmetry_multiplicity
  _atom_site_fract_x
  _atom_site_fract_y
  _atom_site_fract_z
  _atom_site_occupancy
  Zn  Zn1       1.0  0.9512119610268286  0.5176467456985776  0.9408592787069455  1.0000
  Zn  Zn2       1.0  0.07156591932324824  0.5179356436627031  0.06821768854428002  1.0000
  Zn  Zn3       1.0  0.499540869193055  0.05455966459172859  0.044418731318003814  1.0000
  Zn  Zn4       1.0  0.5055721242909214  0.9342127115077473  0.9235307805956483  1.0000
  Zn  Zn5       1.0  0.9312250257100347  0.9477201371629606  0.5045117009262089  1.0000
  Zn  Zn6       1.0  0.06283742658243338  0.0675434513692039  0.5055235217094138  1.0000
  H   H1        1.0  0.7569683210529237  0.22309372387528006  0.10783384017220506  1.0000
  H   H2        1.0  0.12129322400995327  0.7205942710434317  0.17245290262336266  1.0000
  H   H3        1.0  0.20230258587938718  0.7568501713698481  0.32743283818861374  1.0000
  H   H4        1.0  0.24060156223608692  0.8690196231113348  0.35227241800662795  1.0000
  H   H5        1.0  0.2642611466333307  0.8020320080453515  0.28192615382474884  1.0000
  H   H6        1.0  0.1330784593262493  0.9603190115549011  0.37644267110162144  1.0000
  H   H7        1.0  0.8628220001337114  0.7826101715099798  0.3161216808522554  1.0000
  H   H8        1.0  0.7808182275961428  0.6081357060793878  0.1496661820462819  1.0000
  H   H9        1.0  0.8607022575027727  0.5072871209690817  0.12579885463487983  1.0000
  H   H10       1.0  0.7986308805651349  0.4916217332500495  0.019674079043049686  1.0000
  H   H11       1.0  0.7468126597013766  0.4681367528228506  0.08041132137150701  1.0000
  H   H12       1.0  0.7163823773993981  0.005965083196222997  0.38832589098580433  1.0000
  H   H13       1.0  0.7118805816448132  0.0058831614488568  0.07568613967923458  1.0000
  H   H14       1.0  0.7973686370609627  0.9139411309915885  0.08589866185375432  1.0000
  H   H15       1.0  0.8840433652042351  0.022482728556234104  0.13198671848102353  1.0000
  H   H16       1.0  0.7932390649767244  0.9712738294849216  0.024843006399763102  1.0000
  H   H17       1.0  0.9302868231255632  0.03411118723190041  0.3210740475529479  1.0000
  H   H18       1.0  0.3482382842669479  0.6908374964454823  0.9000268492165804  1.0000
  H   H19       1.0  0.22008640126382054  0.5586815248728954  0.8236155892787098  1.0000
  H   H20       1.0  0.1623762857593718  0.6173459242592757  0.8311224719767413  1.0000
  H   H21       1.0  0.20671499347334077  0.5958288709514932  0.9173438531711685  1.0000
  H   H22       1.0  0.5834396441489674  0.05222050203401811  0.2444247022952625  1.0000
  H   H23       1.0  0.04679981382588488  0.31374096915407523  0.6277345927960527  1.0000
  H   H24       1.0  0.3098758565101391  0.8654374902986888  0.7760738451530147  1.0000
  H   H25       1.0  0.20972288828008337  0.7298055122110652  0.7314358907652194  1.0000
  H   H26       1.0  0.13494179056755226  0.7237848080381325  0.6365959737699998  1.0000
  H   H27       1.0  0.13922564131600978  0.7726237845179328  0.7386531958713863  1.0000
  H   H28       1.0  0.04404659165692935  0.8291745783478601  0.5759180200539121  1.0000
  H   H29       1.0  0.0774496468011633  0.7426041480256557  0.48228616895183063  1.0000
  H   H30       1.0  0.18800232597212127  0.8010687645400055  0.5686688149944746  1.0000
  H   H31       1.0  0.14766786918432467  0.8548857092415076  0.5158486313417046  1.0000
  H   H32       1.0  0.24267312694984608  0.18879973206948358  0.7689605348301287  1.0000
  H   H33       1.0  0.24663155978616663  0.20850173545741058  0.9187345837953916  1.0000
  H   H34       1.0  0.26855988064232156  0.9167540411516557  0.006132413062722802  1.0000
  H   H35       1.0  0.13238796797509167  0.135156152097629  0.8451908523830912  1.0000
  H   H36       1.0  0.1828284814941483  0.23875559666949187  0.8516751922919145  1.0000
  H   H37       1.0  0.34591150823863603  0.21297617059534693  0.8870201888758589  1.0000
  H   H38       1.0  0.4697546170629537  0.15615844561330758  0.8879275828586376  1.0000
  H   H39       1.0  0.48749177125053933  0.20809950070505323  0.9957848411790454  1.0000
  H   H40       1.0  0.4885862337608344  0.2652602134876573  0.9343652534024546  1.0000
  H   H41       1.0  0.11913217036815381  0.7979837405470179  0.9376992651109934  1.0000
  H   H42       1.0  0.029012225360510423  0.7282880725711323  0.012510454910589925  1.0000
  H   H43       1.0  0.07920960782709578  0.8411723136631649  0.03934919512426655  1.0000
  H   H44       1.0  0.13686453048325814  0.8036377562344865  0.10152800629911238  1.0000
  H   H45       1.0  0.6377357336427211  0.1337229132170776  0.7653761879374061  1.0000
  H   H46       1.0  0.2964262690485667  0.6878518900563293  0.10217320814783197  1.0000
  H   H47       1.0  0.0037602387690184452  0.31534451167891575  0.9217980961044963  1.0000
  H   H48       1.0  0.07361587057923197  0.21124265020721816  0.9249702195712006  1.0000
  H   H49       1.0  0.9602105244781857  0.13162826205089573  0.8587072686694629  1.0000
  H   H50       1.0  0.0008119021682588724  0.2169268089164973  0.9655534564827238  1.0000
  H   H51       1.0  0.9791829358403418  0.08960140617496389  0.6865456427116713  1.0000
  H   H52       1.0  0.9933022482821061  0.45195602551806496  0.7546748270649177  1.0000
  H   H53       1.0  0.9609749324682754  0.3976802784748442  0.1558835041646774  1.0000
  H   H54       1.0  0.9668018933336313  0.4115716824363602  0.2867174552032951  1.0000
  H   H55       1.0  0.9038280502179603  0.29404455265804325  0.22678907462945122  1.0000
  H   H56       1.0  0.5106535174954203  0.08284706505952497  0.8159044397774695  1.0000
  H   H57       1.0  0.8510096516984049  0.35737364831333446  0.2351968563471376  1.0000
  H   H58       1.0  0.5207856112465095  0.9898369607841245  0.7700718787289919  1.0000
  H   H59       1.0  0.4953237477818817  0.0422948790527897  0.7077784527467161  1.0000
  H   H60       1.0  0.8033863305631144  0.30990296879602397  0.8574364654554077  1.0000
  C   C1        1.0  0.005471604763805264  0.4143275933657407  0.8656255684399388  1.0000
  C   C2        1.0  0.6900366725064516  0.16891286801635633  0.8925553651601066  1.0000
  C   C3        1.0  0.7622294370191299  0.2434534052844128  0.9083828861603752  1.0000
  C   C4        1.0  0.15105827343776193  0.6468182074904191  0.042157624271744944  1.0000
  C   C5        1.0  0.8356977442866694  0.30566726426568647  0.9930457801845454  1.0000
  C   C6        1.0  0.061234079453235744  0.7667665896326739  0.2292952474099225  1.0000
  C   C7        1.0  0.06655901545072837  0.8387443974486357  0.2916818676894196  1.0000
  C   C8        1.0  0.9937515920373841  0.8284137921858273  0.3044646820473177  1.0000
  C   C9        1.0  0.913839736351072  0.7472446861040468  0.2491806158774141  1.0000
  C   C10       1.0  0.9034509942382912  0.6775902901047672  0.17849340705654282  1.0000
  C   C11       1.0  0.9779691955128271  0.6883703400787127  0.17018007507613214  1.0000
  C   C12       1.0  0.0035174974467011713  0.20637559685581408  0.7423193323430654  1.0000
  C   C13       1.0  0.6175602689324436  0.022022140531298397  0.13209271487463783  1.0000
  C   C14       1.0  0.38455344537496927  0.8457106960315882  0.9494101124759668  1.0000
  C   C15       1.0  0.3794615924403502  0.0138793845387042  0.8894559424593783  1.0000
  C   C16       1.0  0.9735307597387218  0.6167951090023182  0.09943174607315079  1.0000
  C   C17       1.0  0.6202947388931009  0.0936896202539117  0.9641028817148938  1.0000
  C   C18       1.0  0.8599200894210313  0.9974592852300788  0.3951849433640506  1.0000
  C   C19       1.0  0.03203160400422429  0.15952645279217142  0.6188082594951327  1.0000
  C   C20       1.0  0.08745365058068427  0.984656635326253  0.6233138296567662  1.0000
  C   C21       1.0  0.001757237318429301  0.8994259065449981  0.37602924023224216  1.0000
  C   C22       1.0  0.7545524659736601  0.015257872953860399  0.19365106872599835  1.0000
  C   C23       1.0  0.02527728411929081  0.22538344712717162  0.6819349646933548  1.0000
  C   C24       1.0  0.8169921067042125  0.0163650930049286  0.26384776132944404  1.0000
  C   C25       1.0  0.7991287206064044  0.0070124283944820965  0.3295898037888634  1.0000
  C   C26       1.0  0.7271965531209476  0.0100071578061858  0.33522842625839644  1.0000
  C   C27       1.0  0.6737465748305527  0.024275730357153705  0.27573688381231437  1.0000
  C   C28       1.0  0.9077042165527659  0.37880687029353777  0.0021686699184257146  1.0000
  C   C29       1.0  0.6836313264956715  0.0218584914710291  0.20190333892121978  1.0000
  C   C30       1.0  0.24045515674610118  0.9224415591063817  0.7446663105545925  1.0000
  C   C31       1.0  0.16459238524063094  0.9136225704205498  0.6820022584139454  1.0000
  C   C32       1.0  0.15633726604771422  0.9886928807998742  0.696931408311109  1.0000
  C   C33       1.0  0.21907754192207562  0.07206624200939872  0.7703555871216924  1.0000
  C   C34       1.0  0.03405085377490015  0.3021559086897554  0.6773011301973428  1.0000
  C   C35       1.0  0.2980379628753268  0.08330454457462368  0.8299891980231779  1.0000
  C   C36       1.0  0.3069943005941482  0.007817343544765298  0.8195591341345082  1.0000
  C   C37       1.0  0.25208384724361105  0.7978595643945496  0.9627923514271334  1.0000
  C   C38       1.0  0.30741645243345056  0.775055223915011  0.9397609612719865  1.0000
  C   C39       1.0  0.19560582389269135  0.7562399818130032  0.9914596674575694  1.0000
  C   C40       1.0  0.21482864253091086  0.7117069720103045  0.03731682249647149  1.0000
  C   C41       1.0  0.003435956366189341  0.27125230723923716  0.8088269958303872  1.0000
  C   C42       1.0  0.5341413706072019  0.0537859547412438  0.773786005879572  1.0000
  C   C43       1.0  0.21473373465001794  0.8024720802068117  0.30071173047412725  1.0000
  C   C44       1.0  0.8067532227317785  0.513444553950947  0.08591458852367144  1.0000
  C   C45       1.0  0.018893500458666748  0.3586412115875461  0.731900622155273  1.0000
  C   C46       1.0  0.8131341548977035  0.9788656256253175  0.09085229852168933  1.0000
  C   C47       1.0  0.21815493406327846  0.6123415491969695  0.8686195390473376  1.0000
  C   C48       1.0  0.17907144773258205  0.7645986093114061  0.7079299281234345  1.0000
  C   C49       1.0  0.1303513577498664  0.8069506446001072  0.5392256820286296  1.0000
  C   C50       1.0  0.1921295617608223  0.18382630674365424  0.8531667377131671  1.0000
  C   C51       1.0  0.4567510089453819  0.200945263853491  0.9301112307146513  1.0000
  C   C52       1.0  0.0907843659842696  0.7861766601802811  0.035181409642184636  1.0000
  C   C53       1.0  0.007400066899378998  0.20116147349559554  0.906596951246613  1.0000
  C   C54       1.0  0.9062561406794815  0.35490401077620964  0.22821631908156806  1.0000
  C   C55       1.0  0.00854898337118465  0.34649417249381287  0.8005056294586413  1.0000
  C   C56       1.0  0.8357448233144498  0.2984151247158806  0.06803171738756933  1.0000
  C   C57       1.0  0.7613322504996561  0.229735999617553  0.053003687626436105  1.0000
  C   C58       1.0  0.6911005153645107  0.1650100377845689  0.9676054242559718  1.0000
  N   N1        1.0  0.6254321184102167  0.11147291846186387  0.8056569980686421  1.0000
  N   N2        1.0  0.1265612982108452  0.7707068013211045  0.9772403096971661  1.0000
  N   N3        1.0  0.9909887915067729  0.25898671053830924  0.8739638978463806  1.0000
  N   N4        1.0  0.9040860379200524  0.3604576442230893  0.15163801170334076  1.0000
  N   N5        1.0  0.13597233319419635  0.7765755177192588  0.22245465602926381  1.0000
  N   N6        1.0  0.8213750558346931  0.6023346325822628  0.12613153803565075  1.0000
  N   N7        1.0  0.7657065649045975  0.015049073535237798  0.12401272843638365  1.0000
  N   N8        1.0  0.2984910009946091  0.6937831950408863  0.9084002511471216  1.0000
  N   N9        1.0  0.2492961025163537  0.8493562024003436  0.7327509144423348  1.0000
  N   N10       1.0  0.10245364086462422  0.8321785464936867  0.6037608458356306  1.0000
  N   N11       1.0  0.20366781109144233  0.1438276875922426  0.779022224703674  1.0000
  N   N12       1.0  0.3636176897203285  0.1684868899800378  0.8931216760814851  1.0000
  O   O1        1.0  0.9610689283322529  0.4502193858507795  0.8392644724529676  1.0000
  O   O2        1.0  0.9402400895331908  0.0333928913465016  0.41283851824233153  1.0000
  O   O3        1.0  0.9886755609751886  0.0789686069680258  0.6004583994267777  1.0000
  O   O4        1.0  0.04658128810891777  0.4348375606317347  0.94593270484112  1.0000
  O   O5        1.0  0.07899982273780642  0.18072230084398913  0.5838738668507875  1.0000
  O   O6        1.0  0.005732467224170368  0.9334995856744541  0.5950909893017244  1.0000
  O   O7        1.0  0.11497535492912192  0.0295204431626317  0.5894556224425717  1.0000
  O   O8        1.0  0.9454890514673979  0.8801307761602077  0.4019916817950319  1.0000
  O   O9        1.0  0.06495651250665443  0.9796393154624212  0.4116837678047745  1.0000
  O   O10       1.0  0.06948910608734586  0.621210136607182  0.99803966953332  1.0000
  O   O11       1.0  0.17849534528180294  0.6128511009044074  0.09072022781489869  1.0000
  O   O12       1.0  0.5993885607673447  0.9804209446093992  0.0528113854848513  1.0000
  O   O13       1.0  0.921976598626671  0.5896769554446736  0.018353476652585188  1.0000
  O   O14       1.0  0.025466838851698915  0.589173136975539  0.12509911967215714  1.0000
  O   O15       1.0  0.8889501949034085  0.40374159597888587  0.9439194128595507  1.0000
  O   O16       1.0  0.9864916549627195  0.4153693625617123  0.0656111173705439  1.0000
  O   O17       1.0  0.5785660427906408  0.06484235749868358  0.15304206715634192  1.0000
  O   O18       1.0  0.24523495376595145  0.866130954016043  0.949600327271057  1.0000
  O   O19       1.0  0.7558820302843119  0.2497348718802996  0.8355946038072377  1.0000
  O   O20       1.0  0.1431786966657853  0.9170884710564382  0.339767892159948  1.0000
  O   O21       1.0  0.8424325035300838  0.7314716029528654  0.25964573865145724  1.0000
  O   O22       1.0  0.8919855048394967  0.025597844824766004  0.26329756481242583  1.0000
  O   O23       1.0  0.41658460351877113  0.9239427525961689  0.007383163157747884  1.0000
  O   O24       1.0  0.6100875566790763  0.0358821109052485  0.28775574531053394  1.0000
  O   O25       1.0  0.29930229372697437  0.7269103915290105  0.07661871007051974  1.0000
  O   O26       1.0  0.9830327809342805  0.1281719160937058  0.7412025987149422  1.0000
  O   O27       1.0  0.018624752786450885  0.4281776981691082  0.721156270019364  1.0000
  O   O28       1.0  0.41722113867369615  0.8226697885067864  0.9002122765652277  1.0000
  O   O29       1.0  0.40554706661187373  0.0641938953913836  0.9708970710618987  1.0000
  O   O30       1.0  0.4128697429242933  0.9664335806080047  0.8672736023684071  1.0000
  O   O31       1.0  0.5911760708839253  0.11666292184381889  0.015272397231108032  1.0000
  O   O32       1.0  0.5954046017609756  0.013040940044724898  0.9126769341374089  1.0000
  O   O33       1.0  0.832837928411749  0.9533748559011739  0.4310839868741497  1.0000
