data_image0
_chemical_formula_structural       Al2H17C24N3O12
_chemical_formula_sum              "Al2 H17 C24 N3 O12"
_cell_length_a       6.799381302674698
_cell_length_b       11.206005656560643
_cell_length_c       16.77371833263832
_cell_angle_alpha    71.94588642493744
_cell_angle_beta     84.18070986065703
_cell_angle_gamma    71.25059364146813

_space_group_name_H-M_alt    "P 1"
_space_group_IT_number       1

loop_
  _space_group_symop_operation_xyz
  'x, y, z'

loop_
  _atom_site_type_symbol
  _atom_site_label
  _atom_site_symmetry_multiplicity
  _atom_site_fract_x
  _atom_site_fract_y
  _atom_site_fract_z
  _atom_site_occupancy
  Al  Al1       1.0  0.49655238252066164  0.5035500279438736  0.5009194439439568  1.0000
  Al  Al2       1.0  0.9937015639498056  0.5060959599677161  0.5012536390794723  1.0000
  H   H1        1.0  0.21278793857769768  0.6176685620596772  0.4005124235073935  1.0000
  H   H2        1.0  0.8137500359163995  0.341196718524877  0.5661193687012303  1.0000
  H   H3        1.0  0.9333953094288389  0.4127499352332933  0.7509115076970688  1.0000
  H   H4        1.0  0.8590808384803453  0.41831740964859415  0.8994932028438569  1.0000
  H   H5        1.0  0.37771012335247184  0.5624397829572629  0.8897180239468626  1.0000
  H   H6        1.0  0.631308166082121  0.42567543510900663  0.1159759376418279  1.0000
  H   H7        1.0  0.1372284534410326  0.5825431787134078  0.10159011807829903  1.0000
  H   H8        1.0  0.05806967175774244  0.5954496312792018  0.2483414898709313  1.0000
  H   H9        1.0  0.8618301306291296  0.8884478199462151  0.4782855773148997  1.0000
  H   H10       1.0  0.22757776029999358  0.8875799956760062  0.512270617974238  1.0000
  H   H11       1.0  0.7461337433172873  0.1262261189486722  0.4796019048351212  1.0000
  H   H12       1.0  0.5795245165175799  0.6034892198889563  0.7721598043806993  1.0000
  H   H13       1.0  0.44875616306713045  0.6586255293321559  0.6744580499921042  1.0000
  H   H14       1.0  0.61729952132778  0.4976799990536094  0.707381576210878  1.0000
  H   H15       1.0  0.3807703471701629  0.49459329830990845  0.2928854123254041  1.0000
  H   H16       1.0  0.5611235026849924  0.3387494395348228  0.33265877051375986  1.0000
  H   H17       1.0  0.43806584306176416  0.3789818434157794  0.2345913834375963  1.0000
  C   C1        1.0  0.6215379974362422  0.7328188809801404  0.49621513583187493  1.0000
  C   C2        1.0  0.7752666911059973  0.5245959438841367  0.35300091837746095  1.0000
  C   C3        1.0  0.3672534967103687  0.2759336199026022  0.504968708250921  1.0000
  C   C4        1.0  0.21610798725851046  0.4849661818361284  0.6474920374299843  1.0000
  C   C5        1.0  0.1942427633740209  0.48556689863263347  0.736750179462412  1.0000
  C   C6        1.0  0.029328748025363963  0.44544216103884066  0.7824725374876564  1.0000
  C   C7        1.0  0.987510482601685  0.4483871631206425  0.8643569443151621  1.0000
  C   C8        1.0  0.11392344427567734  0.4930542698260608  0.9022431940940835  1.0000
  C   C9        1.0  0.2819191724224268  0.5295758900818652  0.8578805875278946  1.0000
  C   C10       1.0  0.3257813302832986  0.527619948703098  0.7748570486785553  1.0000
  C   C11       1.0  0.7234048974626146  0.46283704032570944  0.14647336240692974  1.0000
  C   C12       1.0  0.888587424476256  0.5015410188761821  0.10109249449032381  1.0000
  C   C13       1.0  0.010549967707916566  0.5511695080464634  0.13741286212965065  1.0000
  C   C14       1.0  0.9658340832871768  0.5580334875376637  0.21843021040066904  1.0000
  C   C15       1.0  0.8026981688831398  0.5169089172198794  0.2651345052949665  1.0000
  C   C16       1.0  0.6773436799490822  0.4681965413041808  0.22877611517460392  1.0000
  C   C17       1.0  0.4295201786862108  0.13739012209205728  0.4999972363552914  1.0000
  C   C18       1.0  0.5529671139810545  0.8732927063405925  0.497230690546175  1.0000
  C   C19       1.0  0.28587678497239466  0.06897123590996296  0.5069035172114839  1.0000
  C   C20       1.0  0.6996086760693174  0.9404811439205789  0.4872419933843871  1.0000
  C   C21       1.0  0.3426089266866794  0.9386566052869154  0.5065422554361946  1.0000
  C   C22       1.0  0.6374174469371281  0.07056169342032345  0.4887189056661115  1.0000
  C   C23       1.0  0.5028149394584674  0.5740293024920432  0.7303280140814652  1.0000
  C   C24       1.0  0.5049316381013894  0.417461637183294  0.2743318087755924  1.0000
  N   N1        1.0  0.08507172322241983  0.5052438790545892  0.984285463967808  1.0000
  N   N2        1.0  0.9182717747032214  0.487725051745315  0.0194359708527401  1.0000
  N   N3        1.0  0.06325119057535743  0.1394353352446131  0.5082697597343471  1.0000
  O   O1        1.0  0.4814572977927937  0.6780961716425794  0.5014550354503343  1.0000
  O   O2        1.0  0.9361711931294889  0.5216084915847646  0.38800979280028974  1.0000
  O   O3        1.0  0.1743487547927813  0.3293872099748825  0.5147676274020441  1.0000
  O   O4        1.0  0.3942766318113653  0.47291193534828574  0.6127938772745196  1.0000
  O   O5        1.0  0.5108226042711549  0.3274191429309282  0.5002354394402319  1.0000
  O   O6        1.0  0.05133765709515355  0.49571361154635707  0.6119382893216071  1.0000
  O   O7        1.0  0.8158806673889243  0.6806278337962156  0.48962613096979624  1.0000
  O   O8        1.0  0.5957902498084309  0.535561666133262  0.3868243643148617  1.0000
  O   O9        1.0  0.22193029951459653  0.5702742414946016  0.459806041283315  1.0000
  O   O10       1.0  0.7711354213758739  0.436376679365459  0.54063363171651  1.0000
  O   O11       1.0  0.981530026916374  0.20048289203856476  0.4386385807131391  1.0000
  O   O12       1.0  0.9724790992063105  0.12930129437643254  0.5767488694328762  1.0000
