data_image0
_chemical_formula_structural       Al2H14C22Cl2O10
_chemical_formula_sum              "Al2 H14 C22 Cl2 O10"
_cell_length_a       6.654381056811485
_cell_length_b       11.131539223929494
_cell_length_c       11.093664773698675
_cell_angle_alpha    83.47073363345542
_cell_angle_beta     74.05777360284212
_cell_angle_gamma    72.30363207470288

_space_group_name_H-M_alt    "P 1"
_space_group_IT_number       1

loop_
  _space_group_symop_operation_xyz
  'x, y, z'

loop_
  _atom_site_type_symbol
  _atom_site_label
  _atom_site_symmetry_multiplicity
  _atom_site_fract_x
  _atom_site_fract_y
  _atom_site_fract_z
  _atom_site_occupancy
  Al  Al1       1.0  0.4891637005669692  0.5005519663399837  0.5063002359889524  1.0000
  Al  Al2       1.0  0.9862526823700862  0.5045685804412942  0.5071900073836629  1.0000
  H   H1        1.0  0.2783056355991392  0.35233305232812023  0.5747822540316534  1.0000
  H   H2        1.0  0.6898098354798774  0.6535007686042531  0.4417789366024678  1.0000
  H   H3        1.0  0.6614957678949906  0.5871064096424733  0.13540136330288985  1.0000
  H   H4        1.0  0.302966553184305  0.4307725059422581  0.8761773781500466  1.0000
  H   H5        1.0  0.26846887407322834  0.23033655120452323  0.3268521856873505  1.0000
  H   H6        1.0  0.4621187439496236  0.764502140101449  0.3263164939702747  1.0000
  H   H7        1.0  0.7384402877385265  0.8889437444255964  0.5963112834353479  1.0000
  H   H8        1.0  0.6319406144002853  0.1245866261217756  0.5868663621533159  1.0000
  H   H9        1.0  0.8249343532752532  0.09994067519190251  0.20381810232695585  1.0000
  H   H10       1.0  0.6014319660465192  0.23259502143522334  0.18960755882091718  1.0000
  H   H11       1.0  0.7035465569163079  0.1114493455198655  0.07838753751932606  1.0000
  H   H12       1.0  0.7925986363123343  0.8746538805134204  0.07647396304497533  1.0000
  H   H13       1.0  0.8037531963124562  0.7505620332747113  0.19256917824068862  1.0000
  H   H14       1.0  0.9197832620014236  0.8737212021157391  0.1971227786825978  1.0000
  C   C1        1.0  0.8685214019453441  0.2755125253773087  0.48574464122663824  1.0000
  C   C2        1.0  0.626294895629776  0.5085893711626072  0.7332420976225291  1.0000
  C   C3        1.0  0.11918130124367109  0.7301599687777838  0.5036717034961526  1.0000
  C   C4        1.0  0.3467571651531855  0.5014823271452045  0.27859789854267086  1.0000
  C   C5        1.0  0.5555850146138538  0.5139011707452639  0.8734641735727138  1.0000
  C   C6        1.0  0.4112004621612683  0.5021374111289703  0.13814210920865827  1.0000
  C   C7        1.0  0.6543686732357158  0.5607563144561922  0.9476296654713251  1.0000
  C   C8        1.0  0.3092547600766621  0.4578663649882629  0.06389204339097182  1.0000
  C   C9        1.0  0.582821962909641  0.5531646703917658  0.07781901807298644  1.0000
  C   C10       1.0  0.382016626105873  0.4644949840294857  0.9337523908045213  1.0000
  C   C11       1.0  0.9432948431064785  0.1356277729580526  0.47389815402031826  1.0000
  C   C12       1.0  0.15698678315698797  0.06796640098017552  0.4046021333979084  1.0000
  C   C13       1.0  0.7944343052280801  0.07093605983877181  0.5371065954104566  1.0000
  C   C14       1.0  0.3112846651847149  0.1280086002606353  0.3292755341546183  1.0000
  C   C15       1.0  0.5118813443660528  0.061730184253669086  0.2574959955852165  1.0000
  C   C16       1.0  0.06210930110196927  0.8696812507772053  0.4822398359779568  1.0000
  C   C17       1.0  0.8535393940688609  0.9389401057915449  0.5422493045354598  1.0000
  C   C18       1.0  0.2156683519406353  0.9321159793320607  0.4069674584248162  1.0000
  C   C19       1.0  0.4205122433271101  0.8666004932273023  0.3299795416203181  1.0000
  C   C20       1.0  0.5674317598592823  0.9272157558098326  0.25692803291800465  1.0000
  C   C21       1.0  0.6677330946863833  0.1304010435179421  0.17853953218827454  1.0000
  C   C22       1.0  0.7813825819321636  0.8524117618243348  0.17701388588682226  1.0000
  Cl  Cl1       1.0  0.8581574295296406  0.6326493341546848  0.8843448069498477  1.0000
  Cl  Cl2       1.0  0.10032401904597783  0.38962812795367796  0.1262997358750937  1.0000
  O   O1        1.0  0.6646800312612909  0.3292251314719365  0.5012228415002369  1.0000
  O   O2        1.0  0.8262205642113614  0.4963379039160926  0.6803097455627735  1.0000
  O   O3        1.0  0.967056117604194  0.6776741544403748  0.5216746392388456  1.0000
  O   O4        1.0  0.4991121180405001  0.4919017941562132  0.33105540061838207  1.0000
  O   O5        1.0  0.3154166117519209  0.6719066206406409  0.504922136158619  1.0000
  O   O6        1.0  0.14732293794904194  0.514659396837281  0.333145746190965  1.0000
  O   O7        1.0  0.008602854428140457  0.3323354872619575  0.48502860812540394  1.0000
  O   O8        1.0  0.47833283247877734  0.5117442878925687  0.6796271260885616  1.0000
  O   O9        1.0  0.24378347658022653  0.4427065489977051  0.5579472691051635  1.0000
  O   O10       1.0  0.7307819257463849  0.5624042500393074  0.4546052227064975  1.0000
