data_image0
_chemical_formula_structural       Zn2H34C42N10O10
_chemical_formula_sum              "Zn2 H34 C42 N10 O10"
_cell_length_a       8.393452812164517
_cell_length_b       11.00346867702067
_cell_length_c       11.092305363869743
_cell_angle_alpha    90.00005451128531
_cell_angle_beta     104.42213118278164
_cell_angle_gamma    89.99977756747536

_space_group_name_H-M_alt    "P 1"
_space_group_IT_number       1

loop_
  _space_group_symop_operation_xyz
  'x, y, z'

loop_
  _atom_site_type_symbol
  _atom_site_label
  _atom_site_symmetry_multiplicity
  _atom_site_fract_x
  _atom_site_fract_y
  _atom_site_fract_z
  _atom_site_occupancy
  Zn  Zn1       1.0  0.2097208730670773  0.346126364039435  0.7690598908048263  1.0000
  Zn  Zn2       1.0  0.7902796958656708  0.8461257616390158  0.23093986981842118  1.0000
  H   H1        1.0  0.4288449158904655  0.06857730253587142  0.9926356552214489  1.0000
  H   H2        1.0  0.5711632308490807  0.5685707755547753  0.007367043470878811  1.0000
  H   H3        1.0  0.6732675766737657  0.9453331865093091  0.9725205451196859  1.0000
  H   H4        1.0  0.3267399164292044  0.44533000971509307  0.0274859889017236  1.0000
  H   H5        1.0  0.8930647919277206  0.048438368623635604  0.8867762152723204  1.0000
  H   H6        1.0  0.106947187376214  0.5484369542983104  0.1132316766301855  1.0000
  H   H7        1.0  0.34950795243292293  0.6133945875567335  0.7321225409888756  1.0000
  H   H8        1.0  0.6504987680630308  0.1133988586443238  0.26788354338926024  1.0000
  H   H9        1.0  0.18968965748506866  0.8206122371304405  0.7911008682376351  1.0000
  H   H10       1.0  0.8103122713172367  0.3206114341121236  0.20889911858198937  1.0000
  H   H11       1.0  0.9089559654974408  0.5088022370419338  0.8228808168056222  1.0000
  H   H12       1.0  0.0910463503175833  0.008801719234583102  0.17712255826025824  1.0000
  H   H13       1.0  0.9563983723817914  0.826740137836147  0.9196513705091436  1.0000
  H   H14       1.0  0.04359614438796199  0.3267405774416048  0.08034726018730252  1.0000
  H   H15       1.0  0.8251045107425127  0.7001775074370684  0.9040926160624425  1.0000
  H   H16       1.0  0.17489557804767492  0.20017939008462085  0.09590782260065114  1.0000
  H   H17       1.0  0.9489903546781449  0.9061767962029987  0.6639745060175672  1.0000
  H   H18       1.0  0.0510025757671002  0.40617291314996623  0.3360293161266058  1.0000
  H   H19       1.0  0.7429288389997807  0.017366389164799  0.5043610433789497  1.0000
  H   H20       1.0  0.25706236196510457  0.5173648935669277  0.4956402975066753  1.0000
  H   H21       1.0  0.3535932658381213  0.8600004113541219  0.6412853219982255  1.0000
  H   H22       1.0  0.6464010738619949  0.3600056898256413  0.35871240545421307  1.0000
  H   H23       1.0  0.5613479495447393  0.7479455150882616  0.803347868506542  1.0000
  H   H24       1.0  0.43864822183643076  0.24794762022607833  0.19665369778440586  1.0000
  H   H25       1.0  0.3362577976569625  0.9574723127699015  0.39897643618490986  1.0000
  H   H26       1.0  0.6637360544238078  0.45747140880735065  0.6010221935729521  1.0000
  H   H27       1.0  0.4730116469256274  0.08282247142648912  0.4178287087777336  1.0000
  H   H28       1.0  0.5269841259088537  0.5828248017266731  0.5821717296803188  1.0000
  H   H29       1.0  0.45463136450077013  0.23210642803333306  0.6165699914761408  1.0000
  H   H30       1.0  0.5453635857340161  0.7321039706588267  0.38342322186851885  1.0000
  H   H31       1.0  0.07716293130413021  0.9831364500049847  0.45680619407396983  1.0000
  H   H32       1.0  0.9228320601756081  0.4831383578493488  0.5431971765388397  1.0000
  H   H33       1.0  0.9549947448050204  0.1589832795325208  0.5955303802802804  1.0000
  H   H34       1.0  0.04500187096644479  0.6589768732392828  0.4044702836442014  1.0000
  C   C1        1.0  0.5251485037699837  0.1037515032308391  0.95193186171651  1.0000
  C   C2        1.0  0.474856987933002  0.603748027002311  0.04806857868646833  1.0000
  C   C3        1.0  0.6625714328959164  0.0394770168813778  0.9414116021541548  1.0000
  C   C4        1.0  0.33743440150086457  0.539473958208184  0.0585906447206881  1.0000
  C   C5        1.0  0.7818826294313866  0.09608987409961862  0.8932446500319459  1.0000
  C   C6        1.0  0.21812413931440494  0.5960890327043701  0.10675691944442893  1.0000
  C   C7        1.0  0.7573649494852502  0.21585666943919082  0.8514251667462603  1.0000
  C   C8        1.0  0.2426374801324513  0.7158576127462837  0.14857120880463986  1.0000
  C   C9        1.0  0.6170619895637373  0.27863163337568864  0.8629209589591088  1.0000
  C   C10       1.0  0.3829388748342524  0.7786339672683554  0.13707338411748543  1.0000
  C   C11       1.0  0.8751174481759564  0.2745488646410905  0.7851032224559592  1.0000
  C   C12       1.0  0.12488345288628008  0.7745484026682943  0.21489292666036877  1.0000
  C   C13       1.0  0.5798201840973648  0.4084907191358127  0.8199393058076228  1.0000
  C   C14       1.0  0.4201972659483815  0.9084866218373054  0.18006090953704765  1.0000
  C   C15       1.0  0.23344136362285184  0.6237896753763579  0.7568504712340671  1.0000
  C   C16       1.0  0.7665579470060422  0.1237899435164067  0.24315696600588418  1.0000
  C   C17       1.0  0.15567529434942884  0.7254377513373812  0.7857051675191685  1.0000
  C   C18       1.0  0.8443271342392222  0.22544321421123928  0.2142966259941518  1.0000
  C   C19       1.0  0.008595016503946304  0.5625611569276004  0.8039316321082596  1.0000
  C   C20       1.0  0.9914082640748134  0.06256071344658662  0.19607287159005443  1.0000
  C   C21       1.0  0.8899728761353317  0.7591860520142145  0.8525880667093733  1.0000
  C   C22       1.0  0.11002323014982811  0.2591863584502788  0.14741259649568417  1.0000
  C   C23       1.0  0.7687104495013983  0.8197834362653396  0.7458267419976395  1.0000
  C   C24       1.0  0.2312853407278084  0.31978621110208394  0.25417301776714407  1.0000
  C   C25       1.0  0.8187670161033225  0.895114112464455  0.6603983845517266  1.0000
  C   C26       1.0  0.181225938780706  0.3951143906430516  0.3396018256510375  1.0000
  C   C27       1.0  0.70307552929453  0.9588595947617479  0.5706612184280575  1.0000
  C   C28       1.0  0.29691587928303426  0.4588614328586047  0.4293396683090479  1.0000
  C   C29       1.0  0.5350386278565864  0.9488838956208312  0.5640305253960352  1.0000
  C   C30       1.0  0.4649528075874017  0.4488879681078259  0.435967652397082  1.0000
  C   C31       1.0  0.48456552376908496  0.8707086613410199  0.647064480225069  1.0000
  C   C32       1.0  0.5154263011942816  0.37071432272870924  0.3529327951240902  1.0000
  C   C33       1.0  0.6001592048842923  0.8070495156908422  0.7369919334814343  1.0000
  C   C34       1.0  0.39983664213627884  0.30705361668650977  0.26300692336956644  1.0000
  C   C35       1.0  0.4112680182835291  0.019626151007472007  0.4675534273045941  1.0000
  C   C36       1.0  0.5887280599647227  0.5196291596801216  0.5324452055967654  1.0000
  C   C37       1.0  0.33513682051727767  0.1883294901279342  0.5946658639875582  1.0000
  C   C38       1.0  0.664862050680533  0.6883276080246006  0.40532893071619486  1.0000
  C   C39       1.0  0.13426920067204412  0.05984208358729151  0.5124246531784638  1.0000
  C   C40       1.0  0.865726736723424  0.5598351400457915  0.48758120347582706  1.0000
  C   C41       1.0  0.07673162175707661  0.14570967002654814  0.5809828578257596  1.0000
  C   C42       1.0  0.9232711724663645  0.645709761024577  0.41901442123396765  1.0000
  N   N1        1.0  0.20345114526826788  0.22511810259295126  0.6321650283704303  1.0000
  N   N2        1.0  0.7965426342070926  0.7251130678682571  0.36783066802682646  1.0000
  N   N3        1.0  0.14074686578737067  0.5225780977770925  0.7690226069557016  1.0000
  N   N4        1.0  0.8592590783657953  0.022579897034816606  0.23098234905605614  1.0000
  N   N5        1.0  0.013956283007424002  0.6849716448787007  0.8148904968081612  1.0000
  N   N6        1.0  0.9860451132488562  0.1849702980642007  0.1851101679773066  1.0000
  N   N7        1.0  0.2973061815802255  0.0885355256204718  0.5221188481111982  1.0000
  N   N8        1.0  0.7026883082171551  0.5885363267899848  0.47787865527703854  1.0000
  N   N9        1.0  0.504802515324208  0.22137533347653  0.9136988692012981  1.0000
  N   N10       1.0  0.4952011243360274  0.7213736509060737  0.0862986353283901  1.0000
  O   O1        1.0  0.37266255016535155  0.280483261923294  0.9295947064640375  1.0000
  O   O2        1.0  0.627342003217592  0.7804802635426855  0.07040121764407563  1.0000
  O   O3        1.0  0.4455776934843739  0.4239878105519495  0.7377547430664749  1.0000
  O   O4        1.0  0.5544224080361957  0.923983393379217  0.2622368899509554  1.0000
  O   O5        1.0  0.68438766827569  0.4875747396879718  0.867517606353552  1.0000
  O   O6        1.0  0.3156096814243128  0.9875809040904856  0.13247718620174007  1.0000
  O   O7        1.0  0.8167966079387555  0.3119016660895255  0.6760835885916381  1.0000
  O   O8        1.0  0.18320659529619826  0.8119011349123327  0.3239166243037276  1.0000
  O   O9        1.0  0.026313227805758302  0.27622871400027554  0.8463553555656278  1.0000
  O   O10       1.0  0.9736901488495703  0.7762302205307845  0.15364395458063745  1.0000
