data_image0
_chemical_formula_structural       Cu2H18C26N2Cl2
_chemical_formula_sum              "Cu2 H18 C26 N2 Cl2"
_cell_length_a       3.7326920741145413
_cell_length_b       9.004462866015489
_cell_length_c       15.125290972195222
_cell_angle_alpha    90.00049264746944
_cell_angle_beta     89.99967007532543
_cell_angle_gamma    91.84349807642506

_space_group_name_H-M_alt    "P 1"
_space_group_IT_number       1

loop_
  _space_group_symop_operation_xyz
  'x, y, z'

loop_
  _atom_site_type_symbol
  _atom_site_label
  _atom_site_symmetry_multiplicity
  _atom_site_fract_x
  _atom_site_fract_y
  _atom_site_fract_z
  _atom_site_occupancy
  Cu  Cu1       1.0  0.3750050572483588  0.23764200230074553  0.0053589247726435005  1.0000
  Cu  Cu2       1.0  0.6249979603952623  0.7623558823586765  0.505361064230236  1.0000
  H   H1        1.0  0.6423054086562204  0.4954471117825178  0.030046531203645106  1.0000
  H   H2        1.0  0.3577104387265635  0.5045510134975333  0.5300510202709534  1.0000
  H   H3        1.0  0.7876265781948033  0.7672098886006185  0.03796697878213711  1.0000
  H   H4        1.0  0.21239444509488686  0.23278830550047047  0.5379649788133705  1.0000
  H   H5        1.0  0.6243977355371085  0.9342338147857989  0.9152881681138609  1.0000
  H   H6        1.0  0.3756173477909357  0.06576853194254541  0.41528646190067786  1.0000
  H   H7        1.0  0.3245545409247228  0.8287746425096929  0.779954511769134  1.0000
  H   H8        1.0  0.6754528762416142  0.17122589291458476  0.27995160630947424  1.0000
  H   H9        1.0  0.06158098846430702  0.6138098997532853  0.7001368339004942  1.0000
  H   H10       1.0  0.9384224578974455  0.3861862270534858  0.2001366526737202  1.0000
  H   H11       1.0  0.1202641004434355  0.07915389993728181  0.8831606504821325  1.0000
  H   H12       1.0  0.8797186234075269  0.9208404726717204  0.3831613313178224  1.0000
  H   H13       1.0  0.8274091741209804  0.9640097543924001  0.7507874651931561  1.0000
  H   H14       1.0  0.1725646462087624  0.035995089737987505  0.2507911799722251  1.0000
  H   H15       1.0  0.6636428166726347  0.11739624212270885  0.6224566220183476  1.0000
  H   H16       1.0  0.33633601705215455  0.8826023398584939  0.12245654758793732  1.0000
  H   H17       1.0  0.7992962729959601  0.39070167466658756  0.6238357186231058  1.0000
  H   H18       1.0  0.20068788360241996  0.6092968845480087  0.12383310044602781  1.0000
  C   C1        1.0  0.3872230349171986  0.5078523536920656  0.9024140925168211  1.0000
  C   C2        1.0  0.6127758654255544  0.49214660613211686  0.4024155782317466  1.0000
  C   C3        1.0  0.5675756639847408  0.5705600653313001  0.9768133575260479  1.0000
  C   C4        1.0  0.4324270550628525  0.4294410053681973  0.4768147729816264  1.0000
  C   C5        1.0  0.6485882391026434  0.7205289682839295  0.9805954334480733  1.0000
  C   C6        1.0  0.3514202965026597  0.27947655704909385  0.4805942044926753  1.0000
  C   C7        1.0  0.5579008916301335  0.8158387542573994  0.9099471852866544  1.0000
  C   C8        1.0  0.4421007902065313  0.18416251189420765  0.40994599732970743  1.0000
  C   C9        1.0  0.39232620704093074  0.7584393335396201  0.8358500665432446  1.0000
  C   C10       1.0  0.6076775508569907  0.24156422763178412  0.3358462976395487  1.0000
  C   C11       1.0  0.30191687582087917  0.6039505202805132  0.8297672033697978  1.0000
  C   C12       1.0  0.6980737711083691  0.39605417179303265  0.3297634444537536  1.0000
  C   C13       1.0  0.12830286356127368  0.5425009306513502  0.7558432996260012  1.0000
  C   C14       1.0  0.8716894447407028  0.45750272607723735  0.2558396139491422  1.0000
  C   C15       1.0  0.13436738945443236  0.30060670056420236  0.8286657322014721  1.0000
  C   C16       1.0  0.8656382483037034  0.6993889624414111  0.32866793305996833  1.0000
  C   C17       1.0  0.0492495442625085  0.14604853626065767  0.8259342056120007  1.0000
  C   C18       1.0  0.9507513487551761  0.8539515742842098  0.3259344408323629  1.0000
  C   C19       1.0  0.8865894795874425  0.08306354875920621  0.7528538678826922  1.0000
  C   C20       1.0  0.11341291891397992  0.9169344273242647  0.2528549457232928  1.0000
  C   C21       1.0  0.7946355458531472  0.17096614211497044  0.6789547549218755  1.0000
  C   C22       1.0  0.20536048274249205  0.8290308620433324  0.1789526045429142  1.0000
  C   C23       1.0  0.8694807635760853  0.3211158096967068  0.679809288664089  1.0000
  C   C24       1.0  0.1305104396487664  0.678885692248585  0.17980845113487487  1.0000
  C   C25       1.0  0.0433571540333304  0.3903177871809262  0.7535719354888857  1.0000
  C   C26       1.0  0.9566428252931872  0.6096824418402067  0.2535695778353286  1.0000
  N   N1        1.0  0.30041791579581195  0.35964926382774826  0.9014676731605678  1.0000
  N   N2        1.0  0.6995836827439701  0.6403496617046474  0.4014684802941418  1.0000
  Cl  Cl1       1.0  0.8514912845307662  0.15663847191766686  0.076123960996803  1.0000
  Cl  Cl2       1.0  0.1485183103853274  0.843361451703146  0.5761285118420929  1.0000
