data_image0
_chemical_formula_structural       Zn12H128C208N8O48
_chemical_formula_sum              "Zn12 H128 C208 N8 O48"
_cell_length_a       14.24841201656314
_cell_length_b       18.115918198921403
_cell_length_c       25.93225269240726
_cell_angle_alpha    90.0006078238495
_cell_angle_beta     89.99979064538704
_cell_angle_gamma    90.00098981690633

_space_group_name_H-M_alt    "P 1"
_space_group_IT_number       1

loop_
  _space_group_symop_operation_xyz
  'x, y, z'

loop_
  _atom_site_type_symbol
  _atom_site_label
  _atom_site_symmetry_multiplicity
  _atom_site_fract_x
  _atom_site_fract_y
  _atom_site_fract_z
  _atom_site_occupancy
  Zn  Zn1       1.0  0.529668610103471  0.9412542383620065  0.647116017342313  1.0000
  Zn  Zn2       1.0  0.970345279925013  0.4412571103344193  0.8528844991571276  1.0000
  Zn  Zn3       1.0  0.47032869966709967  0.5587399615992723  0.6471173635228098  1.0000
  Zn  Zn4       1.0  0.029663646288185002  0.058748401617272294  0.8528840553208141  1.0000
  Zn  Zn5       1.0  0.47033612416752396  0.05874540112003502  0.3528861590917742  1.0000
  Zn  Zn6       1.0  0.029652436057617103  0.5587452890856853  0.1471153635733131  1.0000
  Zn  Zn7       1.0  0.5296648052198094  0.44125360578922823  0.3528836560398645  1.0000
  Zn  Zn8       1.0  0.9703438953616016  0.9412551018743758  0.1471161930237557  1.0000
  Zn  Zn9       1.0  0.5000000621503063  0.7500006796134858  0.6460151663947684  1.0000
  Zn  Zn10      1.0  0.9999998268553797  0.24999955780617714  0.8539854782282035  1.0000
  Zn  Zn11      1.0  0.5000011629591582  0.24999840782624716  0.35398469631981305  1.0000
  Zn  Zn12      1.0  0.999999151292009  0.7500008445688736  0.1460110390456677  1.0000
  H   H1        1.0  0.46308055698800393  0.05803440364265102  0.5743412788669673  1.0000
  H   H2        1.0  0.036941952361218  0.5580408378800215  0.9256547360378419  1.0000
  H   H3        1.0  0.5369301699477375  0.441965213530189  0.5743514915596393  1.0000
  H   H4        1.0  0.9630619787733322  0.9419675369168274  0.9256528864198187  1.0000
  H   H5        1.0  0.5369361084537446  0.9419641318520035  0.4256520282865495  1.0000
  H   H6        1.0  0.9630557636295193  0.4419632175657285  0.0743482116601797  1.0000
  H   H7        1.0  0.46306824782469397  0.5580349779358188  0.4256541554646418  1.0000
  H   H8        1.0  0.03694907204961591  0.058035414559931595  0.0743423488567245  1.0000
  H   H9        1.0  0.4484937821765912  0.1962850739437556  0.5717307708600856  1.0000
  H   H10       1.0  0.05151630507451441  0.6962939552402078  0.9282670376972675  1.0000
  H   H11       1.0  0.5515176634880136  0.30371505547653743  0.5717368461030148  1.0000
  H   H12       1.0  0.9484890128503595  0.8037166673477503  0.9282684375732088  1.0000
  H   H13       1.0  0.5515172686018915  0.8037134615183917  0.4282633075395808  1.0000
  H   H14       1.0  0.9484842182515932  0.30371010021299594  0.0717343675171307  1.0000
  H   H15       1.0  0.44848636896824706  0.6962867920182916  0.42826725844087576  1.0000
  H   H16       1.0  0.0515178270090146  0.19629070014418204  0.0717318107863676  1.0000
  H   H17       1.0  0.5631783877290601  0.20030891034712542  0.7261854325903698  1.0000
  H   H18       1.0  0.936814100000042  0.7003140843265359  0.7738194720255009  1.0000
  H   H19       1.0  0.4368138116293708  0.29968087335554117  0.7261836166803946  1.0000
  H   H20       1.0  0.06318098707620828  0.7996903237675214  0.7738161133872197  1.0000
  H   H21       1.0  0.4368165208687458  0.7996890730626446  0.2738163582275561  1.0000
  H   H22       1.0  0.0631850196922485  0.29969273111777284  0.2261815475803672  1.0000
  H   H23       1.0  0.5631817987432726  0.7003115900458994  0.2738174028760341  1.0000
  H   H24       1.0  0.9368181325512593  0.2003098676504678  0.22618259247306577  1.0000
  H   H25       1.0  0.5754287900881608  0.06240592694523171  0.7212273769833217  1.0000
  H   H26       1.0  0.9245733200543428  0.5624121129262393  0.778770337884346  1.0000
  H   H27       1.0  0.4245690559452271  0.43758378143739657  0.7212377891497611  1.0000
  H   H28       1.0  0.07541822586530599  0.9375940264985588  0.7787683594296411  1.0000
  H   H29       1.0  0.4245731368568073  0.9375920564626272  0.27876785828426875  1.0000
  H   H30       1.0  0.07542088679750951  0.437594150498434  0.2212326098254636  1.0000
  H   H31       1.0  0.5754286599331024  0.5624108900194785  0.2787682434750209  1.0000
  H   H32       1.0  0.9245837010950312  0.06240616493275299  0.2212295751873796  1.0000
  H   H33       1.0  0.6128055965794346  0.5129138393418844  0.502577733641175  1.0000
  H   H34       1.0  0.8871975384636741  0.012911702379589902  0.9974284844553338  1.0000
  H   H35       1.0  0.3872101934902829  0.987081473139405  0.5025754778524529  1.0000
  H   H36       1.0  0.1128027329301133  0.4870783451473172  0.9974264092538192  1.0000
  H   H37       1.0  0.38719422488768634  0.48708745609408755  0.4974225147031959  1.0000
  H   H38       1.0  0.11279666834870741  0.9870901450187332  0.0025717638968743  1.0000
  H   H39       1.0  0.6128050682528255  0.012916510409482402  0.49742631294446943  1.0000
  H   H40       1.0  0.8871921756105507  0.5129124622031398  0.0025688259944801  1.0000
  H   H41       1.0  0.705221081697843  0.5139328448135105  0.4211574112363152  1.0000
  H   H42       1.0  0.7947810971723613  0.013930802582812901  0.0788473757254948  1.0000
  H   H43       1.0  0.2947903219883159  0.9860678526112355  0.42115765235244856  1.0000
  H   H44       1.0  0.2052145854938416  0.4860601699803768  0.07884703039956521  1.0000
  H   H45       1.0  0.2947773361572743  0.4860728666069393  0.5788412946451089  1.0000
  H   H46       1.0  0.20520679318799037  0.9860738047495657  0.9211494020617934  1.0000
  H   H47       1.0  0.7052151141030122  0.0139312348895473  0.5788464521797891  1.0000
  H   H48       1.0  0.794776112045014  0.5139306373559619  0.9211501329539828  1.0000
  H   H49       1.0  0.7504194915785336  0.7478292435196394  0.4387803005305244  1.0000
  H   H50       1.0  0.7495688440169418  0.2478196911059741  0.0612200462037791  1.0000
  H   H51       1.0  0.24957144510962337  0.7521783459436265  0.4387785196290039  1.0000
  H   H52       1.0  0.2504171269139733  0.2521682531558795  0.06122250537211469  1.0000
  H   H53       1.0  0.24958032993534118  0.25217701994047564  0.5612222615533113  1.0000
  H   H54       1.0  0.25042817011564006  0.7521793962609565  0.9387740322124145  1.0000
  H   H55       1.0  0.7504255690375033  0.24782515750833772  0.5612259705484278  1.0000
  H   H56       1.0  0.7495644467631166  0.7478208981628641  0.9387808279076352  1.0000
  H   H57       1.0  0.6565343588487381  0.7458475379032877  0.5200911047603184  1.0000
  H   H58       1.0  0.8434542101269925  0.24584288051038072  0.9799098947681557  1.0000
  H   H59       1.0  0.34345745573789094  0.7541519049222957  0.5200868310341633  1.0000
  H   H60       1.0  0.15653915619500938  0.2541474523936174  0.9799106341837742  1.0000
  H   H61       1.0  0.3434647607722852  0.25415320554476756  0.47991145730382095  1.0000
  H   H62       1.0  0.15654420769821092  0.7541595188910437  0.020086883000111303  1.0000
  H   H63       1.0  0.656545874877878  0.2458477345266772  0.47991226043991736  1.0000
  H   H64       1.0  0.8434515413266014  0.7458428029684042  0.0200899997493664  1.0000
  H   H65       1.0  0.852234202331921  0.5259898266882319  0.385565718212554  1.0000
  H   H66       1.0  0.6477626250335433  0.0259807963548582  0.11443530169081839  1.0000
  H   H67       1.0  0.14775637647715462  0.9740114329864299  0.3855692585047592  1.0000
  H   H68       1.0  0.35223282751045565  0.47400685379032864  0.11443649197592978  1.0000
  H   H69       1.0  0.14775930267590812  0.4740136766839952  0.6144314451850406  1.0000
  H   H70       1.0  0.3522329854558706  0.9740227070699137  0.8855668747669725  1.0000
  H   H71       1.0  0.8522371284916163  0.025989862418107603  0.6144325323268589  1.0000
  H   H72       1.0  0.6477634846879354  0.5259839535873212  0.8855610569920032  1.0000
  H   H73       1.0  0.7351183333388108  0.740427813609827  0.3531460007767038  1.0000
  H   H74       1.0  0.7648796663885025  0.24042418963117032  0.1468562193354543  1.0000
  H   H75       1.0  0.26488649180782897  0.7595801287740259  0.35314501426429956  1.0000
  H   H76       1.0  0.2351050491315476  0.25957057784697213  0.1468595360550111  1.0000
  H   H77       1.0  0.2648871028719881  0.2595817618930241  0.6468565613135837  1.0000
  H   H78       1.0  0.2351194533199887  0.7595826257749893  0.8531397872080505  1.0000
  H   H79       1.0  0.735118944348528  0.24042503073768273  0.6468594759105669  1.0000
  H   H80       1.0  0.764878630097556  0.740423541492703  0.8531437972409393  1.0000
  H   H81       1.0  0.8398769709215799  0.9305914509316158  0.6863235898593842  1.0000
  H   H82       1.0  0.6601268606584442  0.4305933496380875  0.8136764621732908  1.0000
  H   H83       1.0  0.160120787301544  0.569410521661446  0.686319485099169  1.0000
  H   H84       1.0  0.3398753006807239  0.06940880558871501  0.8136750714506107  1.0000
  H   H85       1.0  0.16012635962084687  0.0694043245856335  0.3136851421049585  1.0000
  H   H86       1.0  0.339865942489574  0.5694062896890558  0.186316073768559  1.0000
  H   H87       1.0  0.8398720157629497  0.43058249368338863  0.3136765213998274  1.0000
  H   H88       1.0  0.6601287317314899  0.9305875218607015  0.1863240200104954  1.0000
  H   H89       1.0  0.9991993569973732  0.874080948363485  0.6908978287469907  1.0000
  H   H90       1.0  0.5008039426857495  0.37408004751993224  0.8091018053698349  1.0000
  H   H91       1.0  0.0008004771614551  0.6259238539049078  0.6908998693380397  1.0000
  H   H92       1.0  0.49920175738263584  0.12592148611975773  0.8091012750528748  1.0000
  H   H93       1.0  0.0008011662028266998  0.12591317111773045  0.30910897511321883  1.0000
  H   H94       1.0  0.4991916677560866  0.6259173838528369  0.19089458676277357  1.0000
  H   H95       1.0  0.9991979405968437  0.37407412953471925  0.30910269271662827  1.0000
  H   H96       1.0  0.5008036787286444  0.8740776013340794  0.1908966595564507  1.0000
  H   H97       1.0  0.8829513284333645  0.6670706547493026  0.6390189289322025  1.0000
  H   H98       1.0  0.617050259306204  0.1670732364923211  0.8609803311788511  1.0000
  H   H99       1.0  0.11704603379689621  0.8329328059801784  0.6390172474670308  1.0000
  H   H100      1.0  0.38295791273583285  0.33293239865471247  0.8609796434976786  1.0000
  H   H101      1.0  0.11704708936378691  0.3329300886734217  0.3609809337913958  1.0000
  H   H102      1.0  0.38295447502275687  0.8329313709874598  0.139020688413062  1.0000
  H   H103      1.0  0.882946769293568  0.16706407340788587  0.360983772108618  1.0000
  H   H104      1.0  0.6170454178726671  0.6670666887964743  0.1390198335945385  1.0000
  H   H105      1.0  0.7243020081461966  0.7245063193013976  0.63499227342934  1.0000
  H   H106      1.0  0.7756973243582409  0.22451223505399298  0.8650089539248853  1.0000
  H   H107      1.0  0.2756946782840473  0.775495976115174  0.6349867548857944  1.0000
  H   H108      1.0  0.22430520701495743  0.2754956693348731  0.8650043126445156  1.0000
  H   H109      1.0  0.27569290048028716  0.27549497613033946  0.3650118311219188  1.0000
  H   H110      1.0  0.22430249720321171  0.7754967883686702  0.1349882094866004  1.0000
  H   H111      1.0  0.7243009321106159  0.22449759126424612  0.3650111797132496  1.0000
  H   H112      1.0  0.7756953162631534  0.7245034180971218  0.1349951644506007  1.0000
  H   H113      1.0  0.9367877958697265  0.5295860485533552  0.3013512096105231  1.0000
  H   H114      1.0  0.5632077063650486  0.029579351948335397  0.19865022251778444  1.0000
  H   H115      1.0  0.06319841452405231  0.9704111695156926  0.3013552833901372  1.0000
  H   H116      1.0  0.43679211457409656  0.4704095797753709  0.19864696989396438  1.0000
  H   H117      1.0  0.0632000944652802  0.47041635077904714  0.6986459537887839  1.0000
  H   H118      1.0  0.43680053712647987  0.97042635958622  0.8013546532764124  1.0000
  H   H119      1.0  0.936804916102524  0.029589573937670408  0.698644193708212  1.0000
  H   H120      1.0  0.5632048994560536  0.5295801235792227  0.8013471084875333  1.0000
  H   H121      1.0  0.8216777539084034  0.743262293393734  0.2696163487316383  1.0000
  H   H122      1.0  0.6783175003433328  0.2432565492890859  0.2303866635774057  1.0000
  H   H123      1.0  0.17832550573174194  0.7567421698265946  0.2696159054779841  1.0000
  H   H124      1.0  0.32167650079856  0.25673728138779234  0.23038631013942276  1.0000
  H   H125      1.0  0.17832206765014294  0.25674783406559243  0.7303854421261207  1.0000
  H   H126      1.0  0.3216928486536689  0.7567486102268647  0.769613970390573  1.0000
  H   H127      1.0  0.8216925634213298  0.24326298974798283  0.730385499722395  1.0000
  H   H128      1.0  0.678314898632735  0.7432601499914  0.7696147094397148  1.0000
  C   C1        1.0  0.48425090572971646  0.09240236034318632  0.6067755119826685  1.0000
  C   C2        1.0  0.015763931918741  0.5924085635604756  0.8932222995675828  1.0000
  C   C3        1.0  0.5157561023682149  0.4075983023757033  0.6067839717286958  1.0000
  C   C4        1.0  0.9842374015623322  0.9075998696720761  0.8932216945773774  1.0000
  C   C5        1.0  0.5157587414197309  0.9075994871137214  0.3932185664306971  1.0000
  C   C6        1.0  0.9842386969217786  0.40759769992762784  0.10678141937389542  1.0000
  C   C7        1.0  0.48424161358969553  0.5924035450876843  0.3932216753024349  1.0000
  C   C8        1.0  0.015767332780136204  0.09240528979082543  0.1067770112954847  1.0000
  C   C9        1.0  0.476598959694762  0.1687412406816975  0.6057527518051771  1.0000
  C   C10       1.0  0.023410526283711902  0.6687541880328213  0.8942444674556995  1.0000
  C   C11       1.0  0.5234073531027121  0.33125167844762876  0.6057598599527766  1.0000
  C   C12       1.0  0.9765943097885242  0.831258124797529  0.8942456273851249  1.0000
  C   C13       1.0  0.5234050727455043  0.8312567427464189  0.394243254700605  1.0000
  C   C14       1.0  0.9765942080572999  0.3312515234484082  0.1057565521402921  1.0000
  C   C15       1.0  0.47659246833512003  0.6687479610125779  0.3942438589671085  1.0000
  C   C16       1.0  0.023412530063573904  0.16874869069661005  0.1057550065926023  1.0000
  C   C17       1.0  0.5037679048614763  0.20942917887798276  0.6492504451192288  1.0000
  C   C18       1.0  0.9962353095152353  0.7094374398273758  0.8507491282605812  1.0000
  C   C19       1.0  0.49623321389044156  0.2905621941177897  0.649251909750653  1.0000
  C   C20       1.0  0.0037705095685325006  0.7905725550938599  0.8507500665978256  1.0000
  C   C21       1.0  0.4962270037267801  0.7905677005244699  0.3507505744542456  1.0000
  C   C22       1.0  0.0037722321503466005  0.2905671676569169  0.1492499632275255  1.0000
  C   C23       1.0  0.5037645020078331  0.7094324772921469  0.3507479529512167  1.0000
  C   C24       1.0  0.9962370321003676  0.2094331564124303  0.1492517242356399  1.0000
  C   C25       1.0  0.5391333931652583  0.17095143093702356  0.6919569302608863  1.0000
  C   C26       1.0  0.9608654720072921  0.6709585585228197  0.8080450579101423  1.0000
  C   C27       1.0  0.46086534397554857  0.32903948795973303  0.6919599092790277  1.0000
  C   C28       1.0  0.0391322011437865  0.8290485784651339  0.808045436579576  1.0000
  C   C29       1.0  0.46086642823433976  0.8290437924938986  0.3080437036812143  1.0000
  C   C30       1.0  0.039134349477905096  0.3290443929153284  0.19195519044035342  1.0000
  C   C31       1.0  0.539131670063334  0.670953527463766  0.308042652758715  1.0000
  C   C32       1.0  0.9608690240113872  0.170954924986269  0.1919551973916924  1.0000
  C   C33       1.0  0.5463059981719952  0.09454628049880398  0.689465919590468  1.0000
  C   C34       1.0  0.953701024598665  0.594549483966432  0.810532418565387  1.0000
  C   C35       1.0  0.45369415874310454  0.40544680854785053  0.6894748771288447  1.0000
  C   C36       1.0  0.046295228790590684  0.9054554828422781  0.8105302625431108  1.0000
  C   C37       1.0  0.4536973324537427  0.9054533589266998  0.3105300869221566  1.0000
  C   C38       1.0  0.0462973932246697  0.4054545714841211  0.18947052913191703  1.0000
  C   C39       1.0  0.5463021534532118  0.5945462068943215  0.3105307698710789  1.0000
  C   C40       1.0  0.9537074000083764  0.09454526059455051  0.1894676720752315  1.0000
  C   C41       1.0  0.6286675416243243  0.6296379166939232  0.516165475983513  1.0000
  C   C42       1.0  0.8713198940101848  0.1296348039991315  0.9838389059813295  1.0000
  C   C43       1.0  0.3713369313076811  0.8703592584665005  0.5161600760256349  1.0000
  C   C44       1.0  0.12867204324062703  0.37035448466883036  0.9838374773137488  1.0000
  C   C45       1.0  0.3713308761495639  0.3703617227537563  0.48383785731763856  1.0000
  C   C46       1.0  0.12867080363962913  0.8703659393444102  0.0161574861685949  1.0000
  C   C47       1.0  0.628677628670772  0.1296436930518539  0.4838374729683821  1.0000
  C   C48       1.0  0.8713256725942813  0.629633010696452  0.0161577579194017  1.0000
  C   C49       1.0  0.6436727989892502  0.5641754912068749  0.4885752512946269  1.0000
  C   C50       1.0  0.8563241602187973  0.0641705043381506  0.0114299072157209  1.0000
  C   C51       1.0  0.35633536149704537  0.9358234721205323  0.4885707520296236  1.0000
  C   C52       1.0  0.14367125643899928  0.4358166822559185  0.0114289317148746  1.0000
  C   C53       1.0  0.35632702248971526  0.435827460245946  0.5114269251567833  1.0000
  C   C54       1.0  0.14367004659981572  0.9358313430455071  0.9885684130355726  1.0000
  C   C55       1.0  0.6436728819045144  0.06417285537234113  0.5114302675280555  1.0000
  C   C56       1.0  0.8563229502520358  0.5641730211000179  0.9885678460107883  1.0000
  C   C57       1.0  0.6961798551364353  0.5647048739477897  0.4432551872020838  1.0000
  C   C58       1.0  0.8038171156475542  0.064702067004724  0.0567515177119233  1.0000
  C   C59       1.0  0.3038271947023645  0.9352967117229625  0.44325426296055065  1.0000
  C   C60       1.0  0.19617660435561396  0.4352869132795691  0.056750044322420506  1.0000
  C   C61       1.0  0.3038178608592901  0.4352991814862294  0.5567462180152134  1.0000
  C   C62       1.0  0.19617358201514182  0.9353008843681325  0.9432483450277972  1.0000
  C   C63       1.0  0.6961810487471923  0.06470458379111932  0.5567486847164034  1.0000
  C   C64       1.0  0.8038140931242382  0.5646983740465715  0.9432467333905379  1.0000
  C   C65       1.0  0.7342178615456093  0.630967707452271  0.4241132071412608  1.0000
  C   C66       1.0  0.7657777485329264  0.13096522379053974  0.0758889747393923  1.0000
  C   C67       1.0  0.26578369739075214  0.8690346908942674  0.4241141850927406  1.0000
  C   C68       1.0  0.2342158477436982  0.3690245997494941  0.0758904034135028  1.0000
  C   C69       1.0  0.2657819599612026  0.3690374519946502  0.5758878124577649  1.0000
  C   C70       1.0  0.23421926564620318  0.8690393836159274  0.9241093455192128  1.0000
  C   C71       1.0  0.7342175277083242  0.13096550059972867  0.5758926187891973  1.0000
  C   C72       1.0  0.7657741479284893  0.6309639996026205  0.924109844894062  1.0000
  C   C73       1.0  0.7190160887920172  0.696378247518368  0.4522278752884219  1.0000
  C   C74       1.0  0.7809732291167889  0.19637499177829915  0.0477751759395844  1.0000
  C   C75       1.0  0.2809789718863911  0.8036229225972634  0.452224481948555  1.0000
  C   C76       1.0  0.21901563608917482  0.3036149559026953  0.04777769473710689  1.0000
  C   C77       1.0  0.280983030816749  0.3036219439436323  0.5477766148745928  1.0000
  C   C78       1.0  0.2190216795431397  0.8036268555896129  0.9522204449697113  1.0000
  C   C79       1.0  0.7190222532492568  0.1963794768702911  0.547778465739718  1.0000
  C   C80       1.0  0.7809687449197541  0.6963736434169049  0.9522233248166146  1.0000
  C   C81       1.0  0.6673161386215227  0.6957252225069227  0.49759729747434983  1.0000
  C   C82       1.0  0.8326752705305155  0.1957208790522245  0.0024015070962307  1.0000
  C   C83       1.0  0.33268283968137524  0.8042716700716712  0.4975953447441555  1.0000
  C   C84       1.0  0.16731529167390843  0.30426782614410547  0.0024041374094637  1.0000
  C   C85       1.0  0.33268789384221986  0.3042766249702922  0.5024044933484433  1.0000
  C   C86       1.0  0.1673161289388005  0.8042782082822059  0.9975933425661196  1.0000
  C   C87       1.0  0.6673232982151234  0.1957241054090133  0.5024060604338345  1.0000
  C   C88       1.0  0.8326754058331575  0.69572132522233  0.9975972677599642  1.0000
  C   C89       1.0  0.7872035930021397  0.6327898524087561  0.3752766768962843  1.0000
  C   C90       1.0  0.7127955660108968  0.13278683565754085  0.12472628969421609  1.0000
  C   C91       1.0  0.21279757984884637  0.8672134587379788  0.3752769794696603  1.0000
  C   C92       1.0  0.2872005219297123  0.36720925110025593  0.1247260531107415  1.0000
  C   C93       1.0  0.2127990358217602  0.3672142030588361  0.6247247283159395  1.0000
  C   C94       1.0  0.2871986408521821  0.8672194277407288  0.8752731874339545  1.0000
  C   C95       1.0  0.7872050489603027  0.13279004474942718  0.6247271250817974  1.0000
  C   C96       1.0  0.7127936848537858  0.6327898362915007  0.8752738096110805  1.0000
  C   C97       1.0  0.844690103221133  0.573544996185916  0.3601357933206657  1.0000
  C   C98       1.0  0.6553091659948008  0.07353590400596491  0.1398675063605026  1.0000
  C   C99       1.0  0.15530414916695892  0.9264564285075141  0.3601374238824278  1.0000
  C   C100      1.0  0.34468752583575935  0.4264548931554515  0.13986566120746596  1.0000
  C   C101      1.0  0.1553062091422248  0.42646126722087274  0.6398629125649721  1.0000
  C   C102      1.0  0.3446906554866657  0.9264670474409867  0.8601338988505347  1.0000
  C   C103      1.0  0.8446942686252044  0.07354431492694148  0.6398639813218948  1.0000
  C   C104      1.0  0.6553073827335893  0.5735392262169583  0.8601318877741734  1.0000
  C   C105      1.0  0.7802779853530241  0.6943337714603218  0.3423457193128314  1.0000
  C   C106      1.0  0.7197169025521646  0.1943280385009487  0.1576584736415185  1.0000
  C   C107      1.0  0.2197219967961104  0.8056745585299298  0.34234439562565194  1.0000
  C   C108      1.0  0.2802733577992385  0.3056663413726569  0.15765779623055923  1.0000
  C   C109      1.0  0.219721836199497  0.3056758039982839  0.6576560715428812  1.0000
  C   C110      1.0  0.2802836207851698  0.805676016925851  0.8423394609912407  1.0000
  C   C111      1.0  0.7802855448702959  0.19433115298222964  0.6576581664481793  1.0000
  C   C112      1.0  0.7197173397861648  0.6943299860032255  0.8423436089654005  1.0000
  C   C113      1.0  0.6809807908719492  0.8679165055116087  0.6536094339192432  1.0000
  C   C114      1.0  0.819029392557411  0.3679155542030942  0.8463905402232328  1.0000
  C   C115      1.0  0.31901717886896813  0.6320860732179556  0.6536023798179897  1.0000
  C   C116      1.0  0.1809767683347516  0.13209151488803172  0.8463876271958739  1.0000
  C   C117      1.0  0.31902253978392275  0.1320892060069738  0.3463977556011102  1.0000
  C   C118      1.0  0.1809711307911357  0.6320885011972949  0.1536039238278875  1.0000
  C   C119      1.0  0.6809742205243056  0.3679063901165592  0.3463936266804096  1.0000
  C   C120      1.0  0.8190272641462358  0.8679108845635071  0.1536106930473267  1.0000
  C   C121      1.0  0.773383650562863  0.83128365616124  0.6598215442615539  1.0000
  C   C122      1.0  0.7266201184981043  0.3312857631268571  0.8401773877515097  1.0000
  C   C123      1.0  0.2266121735101621  0.6687190171106608  0.6598172654599423  1.0000
  C   C124      1.0  0.27338538068315904  0.1687173474123327  0.8401757117728437  1.0000
  C   C125      1.0  0.22661406538673387  0.16871708729189552  0.34018294590494946  1.0000
  C   C126      1.0  0.2733768956766554  0.6687171882451609  0.15981669067896578  1.0000
  C   C127      1.0  0.7733799277431359  0.33127675825354436  0.3401814403912553  1.0000
  C   C128      1.0  0.7266221609429452  0.8312828440456101  0.1598206803576616  1.0000
  C   C129      1.0  0.8508551429333835  0.8729973476218263  0.675996071481876  1.0000
  C   C130      1.0  0.6491509404350071  0.3729975974341074  0.8240039402430809  1.0000
  C   C131      1.0  0.1491440857505566  0.6270077798395732  0.6759943434051507  1.0000
  C   C132      1.0  0.3508518560192543  0.12700913096357883  0.8240021815796652  1.0000
  C   C133      1.0  0.14914538033808358  0.12700284385563523  0.324009189920055  1.0000
  C   C134      1.0  0.35084677555759913  0.6270048019625136  0.17599283752591083  1.0000
  C   C135      1.0  0.850850822828349  0.3729874435401612  0.3240039768209257  1.0000
  C   C136      1.0  0.6491500709626976  0.872993268476506  0.1759965242858854  1.0000
  C   C137      1.0  0.939346753865422  0.8411155125050415  0.6783597140115631  1.0000
  C   C138      1.0  0.5606579316208881  0.34111341266017087  0.8216404475540173  1.0000
  C   C139      1.0  0.0606503540492866  0.6588907549193409  0.6783587899320623  1.0000
  C   C140      1.0  0.4393469855506567  0.158887759777528  0.8216387420563437  1.0000
  C   C141      1.0  0.060655173039862086  0.15888191898131512  0.3216459329988908  1.0000
  C   C142      1.0  0.4393404861598498  0.6588845707266416  0.1783551733373727  1.0000
  C   C143      1.0  0.9393431508399105  0.3411033644786913  0.3216433864932  1.0000
  C   C144      1.0  0.5606570469255557  0.8411140876703485  0.17835919256463484  1.0000
  C   C145      1.0  0.9526758893152305  0.7665197797741216  0.6649930576898413  1.0000
  C   C146      1.0  0.5473250621393219  0.2665165971000505  0.8350061666056092  1.0000
  C   C147      1.0  0.0473255160010169  0.7334857322724987  0.6649930983771454  1.0000
  C   C148      1.0  0.4526797686285562  0.23348588275371185  0.8350065277396297  1.0000
  C   C149      1.0  0.0473246339310904  0.23347765168797  0.33501066122115475  1.0000
  C   C150      1.0  0.45267686481021496  0.7334824903268712  0.1649913823871501  1.0000
  C   C151      1.0  0.9526736035815662  0.2665111471616727  0.3350083068121635  1.0000
  C   C152      1.0  0.5473270711923774  0.7665176207243292  0.16499256374511617  1.0000
  C   C153      1.0  0.8737579130202989  0.7246200657457538  0.6503382604109049  1.0000
  C   C154      1.0  0.6262428255981618  0.22462260090819805  0.8496621965301826  1.0000
  C   C155      1.0  0.1262386741815291  0.7753819112304186  0.6503361343818881  1.0000
  C   C156      1.0  0.37376331410078484  0.2753812059803166  0.8496611022241608  1.0000
  C   C157      1.0  0.12623980295755644  0.2753817816706886  0.3496612166973136  1.0000
  C   C158      1.0  0.3737605050381775  0.7753786945370892  0.150336123709657  1.0000
  C   C159      1.0  0.8737555325502342  0.22461220814893332  0.3496629570811933  1.0000
  C   C160      1.0  0.6262407183523562  0.7246189854771147  0.1503383748714171  1.0000
  C   C161      1.0  0.7850024139346202  0.7564582877562955  0.6475481220710365  1.0000
  C   C162      1.0  0.7149997215717149  0.2564593186685613  0.8524521846926447  1.0000
  C   C163      1.0  0.21499699863629468  0.7435425427478252  0.6475421068605981  1.0000
  C   C164      1.0  0.2850035927888968  0.2435467386494494  0.8524494956242136  1.0000
  C   C165      1.0  0.2149974075127687  0.2435424557112285  0.3524563680932928  1.0000
  C   C166      1.0  0.2850008017645678  0.7435441847457726  0.1475442074573436  1.0000
  C   C167      1.0  0.7849958044254989  0.2564510246182721  0.35245659898171067  1.0000
  C   C168      1.0  0.714998334193055  0.7564556607906284  0.147549210241344  1.0000
  C   C169      1.0  0.9308496006870256  0.6376787909439088  0.2289086224297208  1.0000
  C   C170      1.0  0.5691426466547115  0.13766720588851203  0.2710893672284982  1.0000
  C   C171      1.0  0.06914900925229972  0.8623222927908643  0.2289134270717383  1.0000
  C   C172      1.0  0.4308609169640222  0.36232282823645084  0.2710857131410691  1.0000
  C   C173      1.0  0.0691495190308231  0.36232968048496883  0.771090083461182  1.0000
  C   C174      1.0  0.4308662985925339  0.8623307776230719  0.7289131948153056  1.0000
  C   C175      1.0  0.9308627433918205  0.1376812107325023  0.7710872068886729  1.0000
  C   C176      1.0  0.569138202686503  0.6376790191719837  0.7289114502446168  1.0000
  C   C177      1.0  0.8832525350543109  0.6361768628872895  0.2803272610370584  1.0000
  C   C178      1.0  0.6167403813301321  0.1361668020412239  0.21967611620160446  1.0000
  C   C179      1.0  0.11674504069437569  0.8638294193020075  0.2803277367700687  1.0000
  C   C180      1.0  0.38326000553477263  0.36382465765903055  0.2196725714342165  1.0000
  C   C181      1.0  0.11674237369911819  0.3638349205289018  0.7196729873511599  1.0000
  C   C182      1.0  0.3832650548492964  0.86384001346093  0.7803268314986553  1.0000
  C   C183      1.0  0.8832660101136156  0.1361735322099662  0.7196721259486553  1.0000
  C   C184      1.0  0.6167384122083631  0.6361705657417573  0.7803253631680604  1.0000
  C   C185      1.0  0.8920773087727696  0.5752859738280947  0.31327827132518843  1.0000
  C   C186      1.0  0.6079191911589347  0.07527970691148059  0.1867227275230547  1.0000
  C   C187      1.0  0.10791584285245652  0.924711977777172  0.31327998678167995  1.0000
  C   C188      1.0  0.39208000507370144  0.4247106993044768  0.1867203860630298  1.0000
  C   C189      1.0  0.10791549439747428  0.42471752955107434  0.6867204345538553  1.0000
  C   C190      1.0  0.3920827358479499  0.9247260045593679  0.8132794489363845  1.0000
  C   C191      1.0  0.8920902950974394  0.07528766168219651  0.6867179478289529  1.0000
  C   C192      1.0  0.6079177108164658  0.5752823160798073  0.8132763916712591  1.0000
  C   C193      1.0  0.8276406273960573  0.6961470613994437  0.2955367857530007  1.0000
  C   C194      1.0  0.672355703760296  0.1961413933454708  0.20446780622990704  1.0000
  C   C195      1.0  0.172361762821204  0.8038555882484603  0.2955336182624109  1.0000
  C   C196      1.0  0.3276370612597291  0.3038498348807011  0.20446663204678833  1.0000
  C   C197      1.0  0.1723598959647461  0.30386085807644747  0.7044669331967767  1.0000
  C   C198      1.0  0.3276504342664738  0.8038659741416653  0.7955324421303942  1.0000
  C   C199      1.0  0.8276506916339058  0.19614570727092234  0.7044662444487456  1.0000
  C   C200      1.0  0.6723550399837991  0.6961453884915798  0.7955332306629118  1.0000
  C   C201      1.0  0.5740599150891087  0.6316262252940632  0.5654790341563611  1.0000
  C   C202      1.0  0.9259338804860134  0.13162642066924232  0.9345242056575315  1.0000
  C   C203      1.0  0.42594143163901776  0.8683667323116354  0.5654762061431597  1.0000
  C   C204      1.0  0.07406328843008941  0.3683643255788738  0.9345244174357036  1.0000
  C   C205      1.0  0.4259363971967502  0.36837396613114504  0.4345231422884552  1.0000
  C   C206      1.0  0.0740680464525099  0.8683721147686895  0.06547488581392  1.0000
  C   C207      1.0  0.5740682154046723  0.13162793920039212  0.4345263558876766  1.0000
  C   C208      1.0  0.9259365329146548  0.6316242738022525  0.0654708177993584  1.0000
  N   N1        1.0  0.5186394697254428  0.05588585192861469  0.6478554594568848  1.0000
  N   N2        1.0  0.9813730255536511  0.5558906188459359  0.8521406646968828  1.0000
  N   N3        1.0  0.4813630617164222  0.44410881192277424  0.6478661882920776  1.0000
  N   N4        1.0  0.018628573515805196  0.9441166372012261  0.8521392372873818  1.0000
  N   N5        1.0  0.48136456272334277  0.9441126834943607  0.3521397758105707  1.0000
  N   N6        1.0  0.018624690444355  0.4441139885976072  0.1478618973829953  1.0000
  N   N7        1.0  0.5186332505291276  0.5558891715376788  0.35214100120694525  1.0000
  N   N8        1.0  0.9813789681499757  0.05588741826767319  0.1478579260977781  1.0000
  O   O1        1.0  0.6744720356686998  0.9378660434551379  0.6602350396247658  1.0000
  O   O2        1.0  0.8255382712331282  0.43786949630616334  0.8397658374443536  1.0000
  O   O3        1.0  0.3255209783864501  0.5621333240342069  0.6602239842142978  1.0000
  O   O4        1.0  0.17446793247112424  0.062135815964531126  0.8397624205183546  1.0000
  O   O5        1.0  0.32552848757242714  0.062131940034092316  0.3397721498699084  1.0000
  O   O6        1.0  0.17445733929181984  0.562135663079701  0.1602309403370157  1.0000
  O   O7        1.0  0.6744690173981452  0.4378613472173356  0.3397619961689813  1.0000
  O   O8        1.0  0.8255410127881717  0.9378632715485012  0.16024014152953467  1.0000
  O   O9        1.0  0.9712085755529997  0.5775279910093262  0.2146280718010303  1.0000
  O   O10       1.0  0.5287732348898403  0.0775254555129621  0.2853702443150397  1.0000
  O   O11       1.0  0.028791530338729405  0.9224684593802196  0.214629162707979  1.0000
  O   O12       1.0  0.47121690161009866  0.4224686598896241  0.285371579158145  1.0000
  O   O13       1.0  0.028787736785219  0.42247551238209974  0.7853690915936724  1.0000
  O   O14       1.0  0.4712272884531003  0.9224802559453598  0.7146315465256593  1.0000
  O   O15       1.0  0.9712174149378187  0.07753118010712969  0.7853699287603106  1.0000
  O   O16       1.0  0.5287709886737987  0.5775304274736329  0.7146302116710928  1.0000
  O   O17       1.0  0.5352640037823733  0.570852999973397  0.5801713640186179  1.0000
  O   O18       1.0  0.9647326759975953  0.0708518461518182  0.9198364394199673  1.0000
  O   O19       1.0  0.4647379498184065  0.9291418372087396  0.5801662060466057  1.0000
  O   O20       1.0  0.03527300989350831  0.42913978060052227  0.9198317820092612  1.0000
  O   O21       1.0  0.46473371214312215  0.42914553547682743  0.4198331261397215  1.0000
  O   O22       1.0  0.035272058269661996  0.929147793339034  0.08016689387466161  1.0000
  O   O23       1.0  0.5352738027777165  0.0708566982934187  0.4198324997945234  1.0000
  O   O24       1.0  0.9647261096427401  0.5708510267787119  0.08016345323468951  1.0000
  O   O25       1.0  0.5714967092319087  0.692491642191243  0.5889184133726673  1.0000
  O   O26       1.0  0.928497713261912  0.19248875587968683  0.9110814203388387  1.0000
  O   O27       1.0  0.42850097680676674  0.8075027760995681  0.588916672448839  1.0000
  O   O28       1.0  0.07149679985547411  0.3074999776130057  0.9110838866552483  1.0000
  O   O29       1.0  0.4284946902274386  0.3075074451666567  0.41107952125113917  1.0000
  O   O30       1.0  0.0715063191974679  0.807511435563079  0.088916128655832  1.0000
  O   O31       1.0  0.5715016519531418  0.19249575936956384  0.4110858896035268  1.0000
  O   O32       1.0  0.9285093380150543  0.6924919338244564  0.0889125054460891  1.0000
  O   O33       1.0  0.6086200899497384  0.8312172430097178  0.6399884968118174  1.0000
  O   O34       1.0  0.8913843794977154  0.33121969610888863  0.8600104347106736  1.0000
  O   O35       1.0  0.39137937148321816  0.6687834724776849  0.6399858066092962  1.0000
  O   O36       1.0  0.10862239511916982  0.16878261225062374  0.8600079423391661  1.0000
  O   O37       1.0  0.39137902964656485  0.1687829484816206  0.3600198495530194  1.0000
  O   O38       1.0  0.10861263469138291  0.6687849112741092  0.1399848005864754  1.0000
  O   O39       1.0  0.6086183444867429  0.3312194789871583  0.3600198404259131  1.0000
  O   O40       1.0  0.8913816373287845  0.8312148191444991  0.1399838223425718  1.0000
  O   O41       1.0  0.9261375243586939  0.6969761390515359  0.2034532871017873  1.0000
  O   O42       1.0  0.5738616321925603  0.19696666187431333  0.2965493828944048  1.0000
  O   O43       1.0  0.07385142446371869  0.8030217972309333  0.2034576435036755  1.0000
  O   O44       1.0  0.4261572070442839  0.3030132717591131  0.2965414437585636  1.0000
  O   O45       1.0  0.0738587880167145  0.30303122835670854  0.7965454187879288  1.0000
  O   O46       1.0  0.42615152407893925  0.8030346336880143  0.7034554928783904  1.0000
  O   O47       1.0  0.9261533098315838  0.19697949823861907  0.796542604835622  1.0000
  O   O48       1.0  0.5738531417916946  0.6969758797034943  0.7034549483282291  1.0000
