data_image0
_chemical_formula_structural       Cd12H40C40N8Cl24O8
_chemical_formula_sum              "Cd12 H40 C40 N8 Cl24 O8"
_cell_length_a       7.690034009000002
_cell_length_b       11.166841585000489
_cell_length_c       22.809005042000987
_cell_angle_alpha    90.0000337925484
_cell_angle_beta     89.99999804264098
_cell_angle_gamma    89.99999949821294

_space_group_name_H-M_alt    "P 1"
_space_group_IT_number       1

loop_
  _space_group_symop_operation_xyz
  'x, y, z'

loop_
  _atom_site_type_symbol
  _atom_site_label
  _atom_site_symmetry_multiplicity
  _atom_site_fract_x
  _atom_site_fract_y
  _atom_site_fract_z
  _atom_site_occupancy
  Cd  Cd1       1.0  1.2882907967e-06  2.0913698933e-06  0.4999994510504351  1.0000
  Cd  Cd2       1.0  0.5000029761896698  0.5000029138503662  0.5000008343199979  1.0000
  Cd  Cd3       1.0  0.5000029661117296  2.3896636492e-06  0.9999993361397086  1.0000
  Cd  Cd4       1.0  0.999999973797294  0.49999963422872884  0.9999985360605945  1.0000
  Cd  Cd5       1.0  0.2876541094800373  0.22706007520281452  0.5818873145839659  1.0000
  Cd  Cd6       1.0  0.7876544988251837  0.27294413052013067  0.5818881936889111  1.0000
  Cd  Cd7       1.0  0.21234626216462968  0.22705798414313696  0.08188786419385247  1.0000
  Cd  Cd8       1.0  0.7123466515097903  0.27294562149337054  0.0818878664526466  1.0000
  Cd  Cd9       1.0  0.7123466413618899  0.7729439614799033  0.4181121619391489  1.0000
  Cd  Cd10      1.0  0.21234495163233896  0.7270590106552818  0.41811303652742277  1.0000
  Cd  Cd11      1.0  0.7876557890616667  0.7729424705064003  0.9181120507520715  1.0000
  Cd  Cd12      1.0  0.2876580004852229  0.7270575196814946  0.9181124869169676  1.0000
  H   H1        1.0  0.4581826110093345  0.43652401325489626  0.6745888880919181  1.0000
  H   H2        1.0  0.9581869031964769  0.0634731383670513  0.6745861991620572  1.0000
  H   H3        1.0  0.041815153693498495  0.4365255056320194  0.1745868101529027  1.0000
  H   H4        1.0  0.5418181454962293  0.0634746307452332  0.17458587491637445  1.0000
  H   H5        1.0  0.5418155390637978  0.5634746503797742  0.32541409581710207  1.0000
  H   H6        1.0  0.041820349567309685  0.9365237342487587  0.32541327735997067  1.0000
  H   H7        1.0  0.9581803956110091  0.5634713669835705  0.8254122279458966  1.0000
  H   H8        1.0  0.45818390573010237  0.9365249283951511  0.8254127247594168  1.0000
  H   H9        1.0  0.38334678852947945  0.5791686949893845  0.7581352980502201  1.0000
  H   H10       1.0  0.883354978988599  0.9208284156843832  0.7581318357404425  1.0000
  H   H11       1.0  0.11664837021308468  0.5791692912413495  0.25813278037536946  1.0000
  H   H12       1.0  0.6166487583659334  0.9208299074465813  0.25813238702911423  1.0000
  H   H13       1.0  0.6166435592374598  0.4208281776288629  0.24186812428194313  1.0000
  H   H14       1.0  0.1166496730064708  0.07916845693117118  0.24186720235827144  1.0000
  H   H15       1.0  0.883349779860161  0.4208248948491544  0.7418662577230108  1.0000
  H   H16       1.0  0.38334939170730553  0.07916965169381739  0.7418662126467124  1.0000
  H   H17       1.0  0.1549862897798917  0.7353731046046335  0.7412222657706165  1.0000
  H   H18       1.0  0.6549905803452489  0.764624883140371  0.7412205119277216  1.0000
  H   H19       1.0  0.3450114692901494  0.7353736989759909  0.2412210593610026  1.0000
  H   H20       1.0  0.845010558318023  0.7646254775122686  0.2412201823648132  1.0000
  H   H21       1.0  0.845004057987083  0.2646219769961035  0.25877984129128606  1.0000
  H   H22       1.0  0.3450088701123306  0.2353755715089179  0.25877896459488875  1.0000
  H   H23       1.0  0.6549918823205445  0.26461780059020157  0.7587792940069417  1.0000
  H   H24       1.0  0.1549875917552015  0.23537318612029884  0.7587792941575484  1.0000
  H   H25       1.0  0.0087086555783742  0.7442036533767081  0.641716831955918  1.0000
  H   H26       1.0  0.5087064442930611  0.7557977980602003  0.641715952403487  1.0000
  H   H27       1.0  0.4912943097714475  0.7442006645097193  0.14171606140380527  1.0000
  H   H28       1.0  0.9912933988704963  0.7557957047015761  0.14171518185149518  1.0000
  H   H29       1.0  0.9912868937260696  0.25579501025692514  0.35828439825979785  1.0000
  H   H30       1.0  0.49129300616450416  0.24420534311416023  0.3582835241195069  1.0000
  H   H31       1.0  0.5087064410705152  0.25579262607293174  0.8582838535410955  1.0000
  H   H32       1.0  0.0087060515870974  0.2442029589307211  0.8582838562475243  1.0000
  H   H33       1.0  0.09466536501674479  0.593576414354061  0.5653009378231814  1.0000
  H   H34       1.0  0.594661852132617  0.9064276310931946  0.5653009787296313  1.0000
  H   H35       1.0  0.40533760524404966  0.5935725306871475  0.06530060720168508  1.0000
  H   H36       1.0  0.9053392938973984  0.90642643395082  0.0652997712618202  1.0000
  H   H37       1.0  0.9053379865939135  0.40642583131219107  0.4346989771229912  1.0000
  H   H38       1.0  0.4053401990936577  0.0935764055900492  0.43469937464013947  1.0000
  H   H39       1.0  0.5946592444448271  0.40642344642007794  0.934698430896965  1.0000
  H   H40       1.0  0.09466275732890486  0.09357402069871769  0.9347001436841037  1.0000
  C   C1        1.0  0.36095807328339186  0.5070336536164531  0.6715567633848207  1.0000
  C   C2        1.0  0.8609636623921872  0.9929687262750235  0.6715528835380908  1.0000
  C   C3        1.0  0.1390370902289604  0.5070306676499925  0.17155336847015687  1.0000
  C   C4        1.0  0.6390400785689323  0.9929684268357666  0.17155299601050433  1.0000
  C   C5        1.0  0.6390361756366117  0.4929668010354859  0.3284470973711605  1.0000
  C   C6        1.0  0.13904489075596868  0.007035310406870098  0.3284452777149624  1.0000
  C   C7        1.0  0.8609558583068306  0.49296351844026287  0.828445231204938  1.0000
  C   C8        1.0  0.3609593718886757  0.0070347143375429  0.8284447268191709  1.0000
  C   C9        1.0  0.31667218191817165  0.5856861798421491  0.7160685808314041  1.0000
  C   C10       1.0  0.8166790720454173  0.9143108808427055  0.7160673087512563  1.0000
  C   C11       1.0  0.18332427919111177  0.5856876710542166  0.21606781568073788  1.0000
  C   C12       1.0  0.6833233670121643  0.9143123720547947  0.21606654360065386  1.0000
  C   C13       1.0  0.6833181658488101  0.4143097972666823  0.2839330878072984  1.0000
  C   C14       1.0  0.18332297918088608  0.0856859917736514  0.28393304461748403  1.0000
  C   C15       1.0  0.8166751712664889  0.414306515036543  0.7839316608409701  1.0000
  C   C16       1.0  0.31667738382978433  0.08568450056129961  0.7839333713447656  1.0000
  C   C17       1.0  0.1900121437745028  0.6732991304786466  0.7063377887621625  1.0000
  C   C18       1.0  0.6900164338394106  0.8267023970997514  0.706334737622356  1.0000
  C   C19       1.0  0.3099830167148241  0.6732970386127093  0.20633526769642424  1.0000
  C   C20       1.0  0.8099847060109295  0.8267012007440259  0.2063352855200975  1.0000
  C   C21       1.0  0.8099782039924222  0.3266986376482208  0.2936660719934635  1.0000
  C   C22       1.0  0.309984317002538  0.1733016395824407  0.29366386205409606  1.0000
  C   C23       1.0  0.6900151333584217  0.3266944609529716  0.7936642088249002  1.0000
  C   C24       1.0  0.19001344406230197  0.1733001494130946  0.7936633141559921  1.0000
  C   C25       1.0  0.10860938414082708  0.6784070777251684  0.6517733759540929  1.0000
  C   C26       1.0  0.6086123738624849  0.8215934894629127  0.6517733922985582  1.0000
  C   C27       1.0  0.39139098048421056  0.6784076717154833  0.151773922424475  1.0000
  C   C28       1.0  0.891388768668456  0.8215931879435702  0.15177174665218723  1.0000
  C   C29       1.0  0.8913861651636593  0.3215888993825899  0.34822653899123407  1.0000
  C   C30       1.0  0.39138967736379726  0.17840875620360208  0.34822696107095646  1.0000
  C   C31       1.0  0.6086084699733689  0.3215883053925239  0.8482264309441516  1.0000
  C   C32       1.0  0.1086106817891164  0.178405475689253  0.8482281682934951  1.0000
  C   C33       1.0  0.15370671533032268  0.5973232470415795  0.6085005424858706  1.0000
  C   C34       1.0  0.6537058032452164  0.9026808498180047  0.6084975133441403  1.0000
  C   C35       1.0  0.346292351657489  0.5973184683509061  0.1084971439363613  1.0000
  C   C36       1.0  0.8462953407253693  0.9026778621464043  0.10849806060485179  1.0000
  C   C37       1.0  0.8462940355115122  0.40267810311869556  0.3915033182701818  1.0000
  C   C38       1.0  0.34629754836544885  0.0973249778811578  0.39150152475588124  1.0000
  C   C39       1.0  0.6537018972626784  0.4026739267226276  0.8915014557384635  1.0000
  C   C40       1.0  0.15370671050095547  0.0973234880106943  0.8915005390712022  1.0000
  N   N1        1.0  0.27841877765553136  0.5145890264181716  0.6189919997602471  1.0000
  N   N2        1.0  0.7784204656720702  0.9854123954947763  0.6189911866892075  1.0000
  N   N3        1.0  0.22157898910735693  0.514587830789985  0.11899123393833115  1.0000
  N   N4        1.0  0.7215832778926271  0.9854120953749473  0.1189904208673909  1.0000
  N   N5        1.0  0.7215780720332958  0.48541142823165023  0.3810083536090473  1.0000
  N   N6        1.0  0.22158158555422594  0.0145889546631182  0.3810087282568445  1.0000
  N   N7        1.0  0.778416560197158  0.4854099373337064  0.8810073657372609  1.0000
  N   N8        1.0  0.27842007371804556  0.014588359274320298  0.881009055655184  1.0000
  Cl  Cl1       1.0  0.5408701529903013  0.21690863691046763  0.6576740449851284  1.0000
  Cl  Cl2       1.0  0.04087236396208739  0.2830929753715523  0.6576744973740032  1.0000
  Cl  Cl3       1.0  0.9591270929772405  0.21690923034297074  0.15767502869092448  1.0000
  Cl  Cl4       1.0  0.4591306043334028  0.2830926732954282  0.15767504265633644  1.0000
  Cl  Cl5       1.0  0.4591279970829091  0.7830900267223626  0.3423258699605682  1.0000
  Cl  Cl6       1.0  0.959130987648571  0.7169101658030641  0.3423254175722902  1.0000
  Cl  Cl7       1.0  0.040874958249027295  0.7830912243073557  0.8423262015249904  1.0000
  Cl  Cl8       1.0  0.5408727472772341  0.7169122588961724  0.8423253107135548  1.0000
  Cl  Cl9       1.0  0.24650084242642825  0.9986497777361975  0.5781476756201868  1.0000
  Cl  Cl10      1.0  0.7464986331924519  0.5013542818961481  0.5781506682071295  1.0000
  Cl  Cl11      1.0  0.2535008235626819  0.9986476863369376  0.07814734766169097  1.0000
  Cl  Cl12      1.0  0.7534973139444218  0.5013575635444312  0.07814595601610107  1.0000
  Cl  Cl13      1.0  0.7535025091842583  0.0013551544540817  0.4218504856330441  1.0000
  Cl  Cl14      1.0  0.2534969161118923  0.49864975478949  0.4218536309726914  1.0000
  Cl  Cl15      1.0  0.7464973265105712  0.0013536638196569998  0.9218503751677287  1.0000
  Cl  Cl16      1.0  0.24649823536010723  0.4986455776283734  0.9218508899669401  1.0000
  Cl  Cl17      1.0  0.5413578007990479  0.2619749994561005  0.4983689878553859  1.0000
  Cl  Cl18      1.0  0.041352209827962796  0.23803089897239715  0.4983694271966712  1.0000
  Cl  Cl19      1.0  0.9586446298617445  0.2619708205495783  0.9983701889392902  1.0000
  Cl  Cl20      1.0  0.45864554081250464  0.2380311976068583  0.9983693130111745  1.0000
  Cl  Cl21      1.0  0.45864685119597925  0.7380308282430615  0.5016300502446285  1.0000
  Cl  Cl22      1.0  0.9586446398608356  0.761974033219488  0.501631364596605  1.0000
  Cl  Cl23      1.0  0.04135482059581359  0.7380278430835149  0.0016301644297271995  1.0000
  Cl  Cl24      1.0  0.541357810798125  0.7619737345849983  0.0016314787820518996  1.0000
  O   O1        1.0  0.3194901188239712  0.43843049182805777  0.5758756841700288  1.0000
  O   O2        1.0  0.8194905098733256  0.0615719153920722  0.5758743099589692  1.0000
  O   O3        1.0  0.18050895102304307  0.4384292965377128  0.07587404222170589  1.0000
  O   O4        1.0  0.680513243225455  0.061571615611129005  0.07587442170406429  1.0000
  O   O5        1.0  0.6805132327866446  0.561571753839246  0.4241259844694695  1.0000
  O   O6        1.0  0.18051544250604928  0.9384303302744283  0.42412604341051  1.0000
  O   O7        1.0  0.8194852978970886  0.5615684715862413  0.9241249958772356  1.0000
  O   O8        1.0  0.3194914087695722  0.9384297345467514  0.9241254932419665  1.0000
