data_image0
_chemical_formula_structural       Zn16H12C96S16Br4Cl16O52
_chemical_formula_sum              "Zn16 H12 C96 S16 Br4 Cl16 O52"
_cell_length_a       19.66236852822952
_cell_length_b       19.74825318141995
_cell_length_c       33.36197697078515
_cell_angle_alpha    78.97863583996839
_cell_angle_beta     79.23193197938492
_cell_angle_gamma    63.988630000137455

_space_group_name_H-M_alt    "P 1"
_space_group_IT_number       1

loop_
  _space_group_symop_operation_xyz
  'x, y, z'

loop_
  _atom_site_type_symbol
  _atom_site_label
  _atom_site_symmetry_multiplicity
  _atom_site_fract_x
  _atom_site_fract_y
  _atom_site_fract_z
  _atom_site_occupancy
  Zn  Zn1       1.0  0.055123579015742094  0.4001026768015592  0.4778679557104866  1.0000
  Zn  Zn2       1.0  0.9858150594210784  0.48380769448585415  0.5606216831457689  1.0000
  Zn  Zn3       1.0  0.05825472092892169  0.560933947860434  0.481994639026496  1.0000
  Zn  Zn4       1.0  0.9004126668727112  0.554987324877068  0.48008678891415  1.0000
  Zn  Zn5       1.0  0.6932024625718469  0.34909232191944284  0.27164884938103034  1.0000
  Zn  Zn6       1.0  0.69088684744694  0.18770790638691903  0.26599230718611727  1.0000
  Zn  Zn7       1.0  0.7696464550536676  0.266292304569667  0.1903344658984096  1.0000
  Zn  Zn8       1.0  0.8479813196481415  0.19631093011162906  0.2726874866327124  1.0000
  Zn  Zn9       1.0  0.2659415687313214  0.7658506871183236  0.6901360857900798  1.0000
  Zn  Zn10      1.0  0.3498051118504008  0.6970769054852612  0.7717372233675306  1.0000
  Zn  Zn11      1.0  0.1920505878691401  0.8485122898675  0.7709426788666037  1.0000
  Zn  Zn12      1.0  0.1913666768281246  0.6872675702707127  0.7668635564716482  1.0000
  Zn  Zn13      1.0  0.5587258312980695  0.061647068866861256  0.9832310780250495  1.0000
  Zn  Zn14      1.0  0.40234815351597314  0.05336457363777215  0.9778222051582119  1.0000
  Zn  Zn15      1.0  0.5563748273436389  0.9004164987922179  0.9785180000788145  1.0000
  Zn  Zn16      1.0  0.4820615507722153  0.9848157219607144  0.06055045153857461  1.0000
  H   H1        1.0  0.9536785193402365  0.25030190346281955  0.3517537914936213  1.0000
  H   H2        1.0  0.7461679750658304  0.45421074370388953  0.3497613717043748  1.0000
  H   H3        1.0  0.9982783254432873  0.3013691727068208  0.3998073463575196  1.0000
  H   H4        1.0  0.09631244599785299  0.5957835289944242  0.6995482911387612  1.0000
  H   H5        1.0  0.20206368697309074  0.7014466561936318  0.5989650585935778  1.0000
  H   H6        1.0  0.0503539893055702  0.551090003809847  0.6489699859993081  1.0000
  H   H7        1.0  0.5500781620040344  0.051182268268469534  0.15367187090923548  1.0000
  H   H8        1.0  0.650778155748327  0.15209641275607313  0.048168958324957586  1.0000
  H   H9        1.0  0.6015157543091476  0.10005590611665138  0.19934343008156222  1.0000
  H   H10       1.0  0.5015128210517757  0.7939037787899678  0.8978920327751113  1.0000
  H   H11       1.0  0.2984082160772489  0.002084340120355  0.9002300554384277  1.0000
  H   H12       1.0  0.44822234300190905  0.7517168563254799  0.8498125590422704  1.0000
  C   C1        1.0  0.06169821367285519  0.3164595876391302  0.5617848974432462  1.0000
  C   C2        1.0  0.0693082099980344  0.5706766112458226  0.5685361281664215  1.0000
  C   C3        1.0  0.18333541825592192  0.4397038343194238  0.4384048502601985  1.0000
  C   C4        1.0  0.9360135172757679  0.6840230303671859  0.43874774483062146  1.0000
  C   C5        1.0  0.9304186266712691  0.4307011706545013  0.43105858617416015  1.0000
  C   C6        1.0  0.8174512732563458  0.5609093933464067  0.5629333157227593  1.0000
  C   C7        1.0  0.5660508740857678  0.30947315272212705  0.31103289206798485  1.0000
  C   C8        1.0  0.6826839066108406  0.17989106165275356  0.1804333202532291  1.0000
  C   C9        1.0  0.6897333299644829  0.4332936360556231  0.1882642432668646  1.0000
  C   C10       1.0  0.9356017660550648  0.1882159156586242  0.19001675626167008  1.0000
  C   C11       1.0  0.8185383162838917  0.3204032837220083  0.3193470365989626  1.0000
  C   C12       1.0  0.8130380159921912  0.0659047298679455  0.31131742493713693  1.0000
  C   C13       1.0  0.43313455633628445  0.6895438178298859  0.6880443332749665  1.0000
  C   C14       1.0  0.3179796899644955  0.8207895763520764  0.8188787696181877  1.0000
  C   C15       1.0  0.18815281249744936  0.9328658977733112  0.6879582020626246  1.0000
  C   C16       1.0  0.06545960375672878  0.8087100744564781  0.8109060666681388  1.0000
  C   C17       1.0  0.1804758434431406  0.6792318597537843  0.681245625441264  1.0000
  C   C18       1.0  0.31424655585939837  0.5659606948084671  0.8111298779413475  1.0000
  C   C19       1.0  0.4370265860686969  0.18388656147381255  0.9385799338916813  1.0000
  C   C20       1.0  0.43259301095751806  0.92860598880781  0.9305989770475521  1.0000
  C   C21       1.0  0.6836269940141192  0.9406012118328417  0.9388449734637875  1.0000
  C   C22       1.0  0.5606293535237228  0.817079236527654  0.06212129325759012  1.0000
  C   C23       1.0  0.5678717455221616  0.07036179872445561  0.06969061926574228  1.0000
  C   C24       1.0  0.3153007426305265  0.061896977656914494  0.060454921478317686  1.0000
  C   C25       1.0  0.8982217871102806  0.4059836069938072  0.4021080335584485  1.0000
  C   C26       1.0  0.8469824191880377  0.3494517836997702  0.34792515464062035  1.0000
  C   C27       1.0  0.8263792180211239  0.4491508269474808  0.3875843104113983  1.0000
  C   C28       1.0  0.9184622158107628  0.3058471936460876  0.3619191536624342  1.0000
  C   C29       1.0  0.8015359803333553  0.4207474935542877  0.36079614130941456  1.0000
  C   C30       1.0  0.9429868025828156  0.33428684388726276  0.3885234667820328  1.0000
  C   C31       1.0  0.09978600670086733  0.6004868404957904  0.5957303210175482  1.0000
  C   C32       1.0  0.15199470413750046  0.6514253674799518  0.6521091234587786  1.0000
  C   C33       1.0  0.14317769415009707  0.6433695005768951  0.5817509230298583  1.0000
  C   C34       1.0  0.10912654515401951  0.6088939385993155  0.6665761395004496  1.0000
  C   C35       1.0  0.1687164875541285  0.6683971023813129  0.6098449944496664  1.0000
  C   C36       1.0  0.08378573430756119  0.5842021805616608  0.6385362582194959  1.0000
  C   C37       1.0  0.30516795075069336  0.4538454549139104  0.4007264531571336  1.0000
  C   C38       1.0  0.44483505506349263  0.2948745754739477  0.34949624182663536  1.0000
  C   C39       1.0  0.2585148638989239  0.41535817726443  0.41386798100320027  1.0000
  C   C40       1.0  0.4913837834655865  0.33337173713859153  0.33612031675315285  1.0000
  C   C41       1.0  0.3770212734026757  0.33882681378514695  0.3730762205470626  1.0000
  C   C42       1.0  0.3731689706234818  0.40981046303220137  0.3772522077297253  1.0000
  C   C43       1.0  0.7257381408204822  0.5754321985522708  0.6307282297526912  1.0000
  C   C44       1.0  0.524732610016649  0.6738031033530233  0.6202317002320186  1.0000
  C   C45       1.0  0.7431033740300066  0.5850011093922092  0.5881691950063159  1.0000
  C   C46       1.0  0.5075061521866645  0.6645164522357231  0.662838914280897  1.0000
  C   C47       1.0  0.6044190556481865  0.6412500513028689  0.608533374860464  1.0000
  C   C48       1.0  0.6460677856191311  0.6078398375046418  0.6423865011840135  1.0000
  C   C49       1.0  0.07642306725545468  0.2247443199771198  0.6297554831896761  1.0000
  C   C50       1.0  0.17425895346501358  0.0243606415333488  0.6200208726296952  1.0000
  C   C51       1.0  0.08607848421300449  0.24209040175082205  0.5871485610515919  1.0000
  C   C52       1.0  0.16436195685344052  0.007133775059948303  0.6626297498396667  1.0000
  C   C53       1.0  0.1421369117694695  0.1037879095679415  0.6080499963358932  1.0000
  C   C54       1.0  0.1086402977477547  0.14531169744880398  0.6416968735135526  1.0000
  C   C55       1.0  0.8421754352040125  0.8016929648037561  0.39694501836169854  1.0000
  C   C56       1.0  0.9069956616490061  0.9480480366825007  0.3529670405857885  1.0000
  C   C57       1.0  0.9105970333401955  0.7584979254432582  0.4136775420946677  1.0000
  C   C58       1.0  0.838527953584375  0.991225315415441  0.33622286364076365  1.0000
  C   C59       1.0  0.9083572641454652  0.8787971981721654  0.375050947070882  1.0000
  C   C60       1.0  0.8410243716588609  0.8707631882997334  0.37472476403538485  1.0000
  C   C61       1.0  0.6549074264659396  0.1534925167986288  0.15010292136084047  1.0000
  C   C62       1.0  0.5975270908126263  0.09875454840702252  0.09801844899742208  1.0000
  C   C63       1.0  0.6684973946413065  0.16810452901462736  0.10688389970165697  1.0000
  C   C64       1.0  0.5833297506359615  0.08381025819272021  0.14080060139426817  1.0000
  C   C65       1.0  0.6399952391471189  0.14076054859578588  0.08140175934432392  1.0000
  C   C66       1.0  0.6118609558074297  0.11098350150412271  0.1660297429747573  1.0000
  C   C67       1.0  0.673799241472281  0.5249201133061094  0.12026324758139849  1.0000
  C   C68       1.0  0.5757523899195717  0.7253107869180087  0.13009902939369763  1.0000
  C   C69       1.0  0.6647014359202927  0.5076191511966498  0.16289097594181362  1.0000
  C   C70       1.0  0.5850101659555165  0.7427442788518167  0.08749163747132367  1.0000
  C   C71       1.0  0.6081206395018127  0.6458634653688196  0.1420098197598776  1.0000
  C   C72       1.0  0.6412681084877931  0.6043809029323765  0.10833321765402813  1.0000
  C   C73       1.0  0.0830474483666848  0.1229996837080733  0.1781021039668005  1.0000
  C   C74       1.0  0.1678189952739046  0.12620395586807118  0.07235563603423151  1.0000
  C   C75       1.0  0.010559125893877296  0.1624889769541085  0.1654418803908726  1.0000
  C   C76       1.0  0.2403310917321164  0.08700864099674281  0.0850284248308455  1.0000
  C   C77       1.0  0.11045029078586308  0.1393141161553402  0.10634531440848602  1.0000
  C   C78       1.0  0.14039227029118706  0.10980107971950298  0.14411031425157722  1.0000
  C   C79       1.0  0.34389144485364653  0.8520971280062282  0.8477108020175238  1.0000
  C   C80       1.0  0.40292438072825837  0.9009165569562754  0.9019194194982703  1.0000
  C   C81       1.0  0.3015762503966855  0.9234168147818947  0.8623407208437045  1.0000
  C   C82       1.0  0.4456798547889775  0.8299137439743657  0.8878267527929253  1.0000
  C   C83       1.0  0.3311888441876576  0.9470975939658075  0.8890950451091654  1.0000
  C   C84       1.0  0.4160566135934189  0.8066164517939427  0.8611898096945724  1.0000
  C   C85       1.0  0.4081627683536552  0.448035492438848  0.8529422489098621  1.0000
  C   C86       1.0  0.34294460158790224  0.3019445292842633  0.8970341077301711  1.0000
  C   C87       1.0  0.3398564217699303  0.49127170139445286  0.8361058270663763  1.0000
  C   C88       1.0  0.4114198539246204  0.25862384922728415  0.9137386342677872  1.0000
  C   C89       1.0  0.34181797725489815  0.3710440160467385  0.8748355806923058  1.0000
  C   C90       1.0  0.40922726082661137  0.3789684501680313  0.8751550263629825  1.0000
  C   C91       1.0  0.9440968289716665  0.794630440938171  0.8495550310613567  1.0000
  C   C92       1.0  0.8053196805717491  0.954337364758352  0.90052772619066  1.0000
  C   C93       1.0  0.9908021783369065  0.8329008479264955  0.8359520295449627  1.0000
  C   C94       1.0  0.7584806147880981  0.916160279570228  0.9140348363547517  1.0000
  C   C95       1.0  0.872990584415561  0.9099407561469515  0.8769939177844464  1.0000
  C   C96       1.0  0.8764287726191781  0.838978340759411  0.8730998659544156  1.0000
  S   S1        1.0  0.298054362368525  0.3255596166205876  0.3976894631827435  1.0000
  S   S2        1.0  0.45207298649705757  0.4230700945643093  0.3524697417175632  1.0000
  S   S3        1.0  0.6621251838344975  0.6333214868571557  0.5625278168844688  1.0000
  S   S4        1.0  0.5884845442817478  0.6160064972127943  0.6884186208111914  1.0000
  S   S5        1.0  0.134436103982388  0.16134561569207048  0.5618966767989166  1.0000
  S   S6        1.0  0.11599980682228049  0.0878857625085772  0.687866346990397  1.0000
  S   S7        1.0  0.973235899050337  0.8022575822761767  0.40221762017038293  1.0000
  S   S8        1.0  0.7761629757210499  0.9472055097385307  0.3475027465182166  1.0000
  S   S9        1.0  0.6163432045605717  0.5883293633278297  0.18817189505197263  1.0000
  S   S10       1.0  0.6331457191432436  0.6620142421356829  0.06219020140139969  1.0000
  S   S11       1.0  0.012629965552896702  0.18319178894608965  0.11214642509277438  1.0000
  S   S12       1.0  0.2382187169751333  0.06620155101580853  0.13832211543972764  1.0000
  S   S13       1.0  0.277158384625018  0.4475624491382462  0.8475186602697988  1.0000
  S   S14       1.0  0.473983826754818  0.3024629167667002  0.9023998009404793  1.0000
  S   S15       1.0  0.9519442165236497  0.9227822527759175  0.8519821499169636  1.0000
  S   S16       1.0  0.7973903508402882  0.8262192081267653  0.8980497228625952  1.0000
  Br  Br1       1.0  0.7561727879810292  0.5472088005532285  0.4014352086688149  1.0000
  Br  Br2       1.0  0.17242127918738953  0.6714596161934308  0.5256316485663746  1.0000
  Br  Br3       1.0  0.7243907161953942  0.22442084400840656  0.07836820305312389  1.0000
  Br  Br4       1.0  0.20313199651934605  0.9943012159958112  0.8486221398071124  1.0000
  Cl  Cl1       1.0  0.2869641676547587  0.542299777574911  0.4104578181867993  1.0000
  Cl  Cl2       1.0  0.4630317995872204  0.20631829025033713  0.3398910185530753  1.0000
  Cl  Cl3       1.0  0.7889553043976035  0.5310508801054538  0.6662045037855577  1.0000
  Cl  Cl4       1.0  0.4615645109551636  0.7180724019119539  0.5847411197148703  1.0000
  Cl  Cl5       1.0  0.032142368388015485  0.2876368831203067  0.6650118494633972  1.0000
  Cl  Cl6       1.0  0.2183955730114278  0.9613450147905734  0.5848388392036199  1.0000
  Cl  Cl7       1.0  0.7671954487098914  0.7781430235511522  0.4010637597684905  1.0000
  Cl  Cl8       1.0  0.9821827994189217  0.9713719409516698  0.3487065056316824  1.0000
  Cl  Cl9       1.0  0.7172602273046492  0.46194434889440583  0.08503027182533171  1.0000
  Cl  Cl10      1.0  0.5319780765511269  0.7882303215610664  0.16535914921218617  1.0000
  Cl  Cl11      1.0  0.10458154205090857  0.0926335803346774  0.22746077608132964  1.0000
  Cl  Cl12      1.0  0.1461789147556729  0.15653564219805818  0.02302238482217691  1.0000
  Cl  Cl13      1.0  0.483368151490474  0.47130590055228766  0.8486847065627572  1.0000
  Cl  Cl14      1.0  0.2677847940981479  0.27859209910089067  0.9013071049968532  1.0000
  Cl  Cl15      1.0  0.9619986479472047  0.7060344496294493  0.840175781149604  1.0000
  Cl  Cl16      1.0  0.7876125781024327  0.04286502255735066  0.909905401908624  1.0000
  O   O1        1.0  0.0007683265822961999  0.49821014574479944  0.5001656377392864  1.0000
  O   O2        1.0  0.07798565641868999  0.31504235403949105  0.5228220274805295  1.0000
  O   O3        1.0  0.03323798231192399  0.5307140039969767  0.5865575870540666  1.0000
  O   O4        1.0  0.15423533224106478  0.5062300480637774  0.4490446088262274  1.0000
  O   O5        1.0  0.0269450423968465  0.3749776041126082  0.5806090442280621  1.0000
  O   O6        1.0  0.1539987069084887  0.3913643652116008  0.4466755433120255  1.0000
  O   O7        1.0  0.08116520323852679  0.5871362065951119  0.5299399106817333  1.0000
  O   O8        1.0  0.0038458544337842994  0.6569679863246306  0.4485657140500408  1.0000
  O   O9        1.0  0.8893526059645681  0.4946918090464718  0.44381709845699646  1.0000
  O   O10       1.0  0.8893135524974413  0.6532181815066518  0.44854302095365745  1.0000
  O   O11       1.0  0.9969101951937772  0.38522700062627996  0.4407741510521602  1.0000
  O   O12       1.0  0.8768069405559088  0.5259378921655083  0.5814652432371546  1.0000
  O   O13       1.0  0.8150752511668173  0.5779110412928007  0.5240018373773196  1.0000
  O   O14       1.0  0.7493744841560213  0.2501176771760003  0.2506005044582765  1.0000
  O   O15       1.0  0.5950353701212804  0.35813958108666116  0.3030746710768213  1.0000
  O   O16       1.0  0.6647698782423248  0.16186844687724278  0.2185595023681799  1.0000
  O   O17       1.0  0.7273348588695187  0.3747529941322441  0.16963975599749398  1.0000
  O   O18       1.0  0.59503383980622  0.2436023079521235  0.29955221073870325  1.0000
  O   O19       1.0  0.6712222468831682  0.4346265481645871  0.22713830744173444  1.0000
  O   O20       1.0  0.7217119316662133  0.21794486164877475  0.16619330361690743  1.0000
  O   O21       1.0  0.8782728748954369  0.22420614559412402  0.16950395821393022  1.0000
  O   O22       1.0  0.8626709949178916  0.254797317992825  0.30881829539092825  1.0000
  O   O23       1.0  0.9339326786620532  0.17294519123247182  0.2289316777828958  1.0000
  O   O24       1.0  0.7529414371552859  0.3633346757541176  0.3079637457993273  1.0000
  O   O25       1.0  0.7467199744458242  0.09166814284269256  0.2996237038324239  1.0000
  O   O26       1.0  0.8585313178872979  0.09812403472664513  0.3036335409615063  1.0000
  O   O27       1.0  0.2500519207322967  0.7491315901625696  0.7504548036099052  1.0000
  O   O28       1.0  0.3741990159295767  0.7242210909179718  0.6691287554400134  1.0000
  O   O29       1.0  0.36445192127040826  0.7556419253003455  0.8082153511923735  1.0000
  O   O30       1.0  0.1698945942502306  0.9342803754415883  0.726841253517641  1.0000
  O   O31       1.0  0.4348057620213552  0.6739300798650731  0.7270545306220486  1.0000
  O   O32       1.0  0.22438898388289633  0.8741981583401071  0.6693336724103319  1.0000
  O   O33       1.0  0.2524159093480378  0.8607242014456415  0.8072481792413273  1.0000
  O   O34       1.0  0.09405489685381951  0.8576642681857365  0.8023753627336205  1.0000
  O   O35       1.0  0.16497371927780344  0.6614354727081206  0.7195751809611011  1.0000
  O   O36       1.0  0.0948796340364666  0.7423440570116  0.8000370119263138  1.0000
  O   O37       1.0  0.21792904803960056  0.7185389777215646  0.6651635305801094  1.0000
  O   O38       1.0  0.3595935372701291  0.5983499179052243  0.8027876354076398  1.0000
  O   O39       1.0  0.2474220508153806  0.5914442643280536  0.8001102846474952  1.0000
  O   O40       1.0  0.5007721805407499  0.9990571787107567  0.00011296064942463533  1.0000
  O   O41       1.0  0.503650116554951  0.15802892441446648  0.9499185407075004  1.0000
  O   O42       1.0  0.38928893427431893  0.9940413261368947  0.9415664253484765  1.0000
  O   O43       1.0  0.6543759662062526  0.8921662877398829  0.9470146538522642  1.0000
  O   O44       1.0  0.3915993371658288  0.15157810668238622  0.9465871807158734  1.0000
  O   O45       1.0  0.6546748249197591  0.006828738563619771  0.9498707672369662  1.0000
  O   O46       1.0  0.4983019927807747  0.8848446182307296  0.9416405833084767  1.0000
  O   O47       1.0  0.5784781398736526  0.8154254065676126  0.023221809967999732  1.0000
  O   O48       1.0  0.5292113561790401  0.03248182992048495  0.0864005165887463  1.0000
  O   O49       1.0  0.5243835540075353  0.8758060435396329  0.08070441906402687  1.0000
  O   O50       1.0  0.5837952704830868  0.08646915255010867  0.031214399729812204  1.0000
  O   O51       1.0  0.3166499608278883  0.07663908007990732  0.021520416863978698  1.0000
  O   O52       1.0  0.3728514454699265  0.027121492228666  0.08087802887828839  1.0000
