data_image0
_chemical_formula_structural       Al2H6C16S2N2O15
_chemical_formula_sum              "Al2 H6 C16 S2 N2 O15"
_cell_length_a       6.823780797017212
_cell_length_b       11.224336002909132
_cell_length_c       12.804415826094663
_cell_angle_alpha    63.22936480398863
_cell_angle_beta     70.65238466944056
_cell_angle_gamma    70.77332534108017

_space_group_name_H-M_alt    "P 1"
_space_group_IT_number       1

loop_
  _space_group_symop_operation_xyz
  'x, y, z'

loop_
  _atom_site_type_symbol
  _atom_site_label
  _atom_site_symmetry_multiplicity
  _atom_site_fract_x
  _atom_site_fract_y
  _atom_site_fract_z
  _atom_site_occupancy
  Al  Al1       1.0  0.501037431946628  0.500444588060482  0.49787665258593716  1.0000
  Al  Al2       1.0  0.0003465643198624523  0.49945230513989697  0.5016584695782881  1.0000
  H   H1        1.0  0.22054068740403926  0.6733565283584825  0.3964641552287275  1.0000
  H   H2        1.0  0.717438805925468  0.3804036634527677  0.6465933336348969  1.0000
  H   H3        1.0  0.7701125104506659  0.12570634039984444  0.4655567542099562  1.0000
  H   H4        1.0  0.23056038380970284  0.8768023827806601  0.5324721838003939  1.0000
  H   H5        1.0  0.6155791225665227  0.5625484723901125  0.14460618465096783  1.0000
  H   H6        1.0  0.5186031447699195  0.43631153515478627  0.8991358988974055  1.0000
  C   C1        1.0  0.8666531358626558  0.5306136954583067  0.29651998152645825  1.0000
  C   C2        1.0  0.6255605283347877  0.7291984758736659  0.491672024821824  1.0000
  C   C3        1.0  0.14220405528276814  0.4663129361283892  0.7044819476462507  1.0000
  C   C4        1.0  0.37557934055300995  0.2742124969623276  0.5038289316645859  1.0000
  C   C5        1.0  0.5617301261059995  0.8674122959467567  0.49835773625193264  1.0000
  C   C6        1.0  0.4388129484191411  0.13535602460587626  0.49847757952876043  1.0000
  C   C7        1.0  0.7096722767872594  0.9390140642670418  0.48222368368082147  1.0000
  C   C8        1.0  0.2906211272387297  0.06346679005281433  0.5156145062802437  1.0000
  C   C9        1.0  0.6528809427191503  0.07021772092249283  0.4805855093947997  1.0000
  C   C10       1.0  0.3479775303021739  0.9323514862911749  0.5168435054968654  1.0000
  C   C11       1.0  0.23187732838398745  0.46238012776487386  0.8852266834842623  1.0000
  C   C12       1.0  0.7870881983264794  0.5388142251575943  0.11310398022509102  1.0000
  C   C13       1.0  0.09074243134489987  0.4773754683288872  0.8198057758043262  1.0000
  C   C14       1.0  0.9265314543598182  0.5222073715666796  0.17851387916351058  1.0000
  C   C15       1.0  0.8980367469882824  0.5187464117051306  0.005956603611046787  1.0000
  C   C16       1.0  0.12035555001183718  0.4859413170527913  0.9920473901472989  1.0000
  S   S1        1.0  0.8249845123537013  0.5245547024857585  0.8868468962666753  1.0000
  S   S2        1.0  0.19276399940697084  0.48102323421938564  0.11110034320245177  1.0000
  N   N1        1.0  0.9349624537441629  0.8706449293384609  0.4767335328466017  1.0000
  N   N2        1.0  0.06383149715565396  0.12872890057120398  0.523309479837188  1.0000
  O   O1        1.0  0.6675353699120805  0.5568582551156637  0.3403434473336305  1.0000
  O   O2        1.0  0.8247803260236781  0.6806139628598374  0.4695743042129762  1.0000
  O   O3        1.0  0.9866269737254999  0.48391480515027757  0.6601105854993675  1.0000
  O   O4        1.0  0.5234884112707263  0.33127568942335006  0.48377861145056045  1.0000
  O   O5        1.0  0.33953443852851023  0.43918776619515393  0.656435519529701  1.0000
  O   O6        1.0  0.17688343004019907  0.3209661346116733  0.530741819518795  1.0000
  O   O7        1.0  0.01613309158934589  0.5116336741967585  0.34479840115727717  1.0000
  O   O8        1.0  0.47775109389078846  0.6750860695786045  0.5057156019214161  1.0000
  O   O9        1.0  0.2458207971175456  0.5749920604938339  0.44076937825588663  1.0000
  O   O10       1.0  0.7510931824331949  0.42865964326783534  0.5601799808530854  1.0000
  O   O11       1.0  0.9820284616966574  0.796808201011096  0.5752138114165392  1.0000
  O   O12       1.0  0.06085143785377063  0.8958340148869726  0.3781286383308639  1.0000
  O   O13       1.0  0.9398304123132422  0.09462147612469352  0.6215830311070931  1.0000
  O   O14       1.0  0.015120380439981304  0.20637565779254177  0.4256235985495208  1.0000
  O   O15       1.0  0.445248799999277  0.4289401000506103  0.8488710591333798  1.0000
