data_image0
_chemical_formula_structural       Cu4H36C20N2O12
_chemical_formula_sum              "Cu4 H36 C20 N2 O12"
_cell_length_a       7.512313606692084
_cell_length_b       10.218294153662859
_cell_length_c       11.130453090814301
_cell_angle_alpha    62.34504029867357
_cell_angle_beta     73.17974411020398
_cell_angle_gamma    68.81063944306587

_space_group_name_H-M_alt    "P 1"
_space_group_IT_number       1

loop_
  _space_group_symop_operation_xyz
  'x, y, z'

loop_
  _atom_site_type_symbol
  _atom_site_label
  _atom_site_symmetry_multiplicity
  _atom_site_fract_x
  _atom_site_fract_y
  _atom_site_fract_z
  _atom_site_occupancy
  Cu  Cu1       1.0  0.09681924378364223  0.5135776848547734  0.796728442633757  1.0000
  Cu  Cu2       1.0  0.9031675264165527  0.4864230565266253  0.20327796744287954  1.0000
  Cu  Cu3       1.0  0.24761730745747462  0.557259692108559  0.9772315510109523  1.0000
  Cu  Cu4       1.0  0.7523437448735207  0.442743513345377  0.022766154281981643  1.0000
  H   H1        1.0  0.6771815261904734  0.1342325468011083  0.9420982884159983  1.0000
  H   H2        1.0  0.32279343498715457  0.8657500612334629  0.0578999884069589  1.0000
  H   H3        1.0  0.7987900383222166  0.2697171069329515  0.8201726192225678  1.0000
  H   H4        1.0  0.20122967024156677  0.7302513875266142  0.17985088003978697  1.0000
  H   H5        1.0  0.8174438152089394  0.0727260815714956  0.7350376132818893  1.0000
  H   H6        1.0  0.18254623226160047  0.9272688777089468  0.2649750826294408  1.0000
  H   H7        1.0  0.5615436141576852  0.12480046471497988  0.7535341760628924  1.0000
  H   H8        1.0  0.43846833374436023  0.875182960363766  0.2464827614243461  1.0000
  H   H9        1.0  0.6915533536899262  0.256884720059574  0.6280510925102689  1.0000
  H   H10       1.0  0.3084480728054685  0.7430852093498287  0.3719501354933713  1.0000
  H   H11       1.0  0.38790105216671117  0.911089814497316  0.5222665648219406  1.0000
  H   H12       1.0  0.6120850546242806  0.08893081801952718  0.4776921187014977  1.0000
  H   H13       1.0  0.1382344672940264  0.9900349981760213  0.525611195232237  1.0000
  H   H14       1.0  0.8617566245522567  0.009994397783216901  0.47438150719407457  1.0000
  H   H15       1.0  0.28488700566402503  0.15803766998811847  0.5521443809830017  1.0000
  H   H16       1.0  0.7151388250802455  0.8419710386519058  0.4478503489969795  1.0000
  H   H17       1.0  0.3801697081941811  0.003420884192138398  0.700251646917188  1.0000
  H   H18       1.0  0.6198792221960189  0.9965650211951097  0.29973294105262493  1.0000
  H   H19       1.0  0.127667189924864  0.0836804631872141  0.7039503528377791  1.0000
  H   H20       1.0  0.8723660872596567  0.9163018820593293  0.29605308521802703  1.0000
  H   H21       1.0  0.3307490825632938  0.43899995059481256  0.5347515185502516  1.0000
  H   H22       1.0  0.6692601891366506  0.5609962984184589  0.4652399003949767  1.0000
  H   H23       1.0  0.7478189748645077  0.5508761447727935  0.680021982894658  1.0000
  H   H24       1.0  0.252183943046937  0.4491223792560248  0.319972391705285  1.0000
  H   H25       1.0  0.5717505579545944  0.7759688800294384  0.8330437241154697  1.0000
  H   H26       1.0  0.4282553552318547  0.2240409338101372  0.16696152999206498  1.0000
  H   H27       1.0  0.7830883962102959  0.8291778600974878  0.8180476466834602  1.0000
  H   H28       1.0  0.21692627342977033  0.17080547736006216  0.18197689477891282  1.0000
  H   H29       1.0  0.7436274577669763  0.8034203473530112  0.6806906890682853  1.0000
  H   H30       1.0  0.2563932477072867  0.1965825192192554  0.3193191421810723  1.0000
  H   H31       1.0  0.9870642027257117  0.11649342208749401  0.05079032470150934  1.0000
  H   H32       1.0  0.012933714024455981  0.883494647563438  0.9492237520938359  1.0000
  H   H33       1.0  0.11000017164963789  0.15911517719595736  0.8790343270294868  1.0000
  H   H34       1.0  0.8899965982027707  0.8408969070431026  0.12097531514621808  1.0000
  H   H35       1.0  0.2226407578707068  0.14464654487176884  0.007513351485023591  1.0000
  H   H36       1.0  0.7773307937211981  0.855390693737654  0.9925004624439143  1.0000
  C   C1        1.0  0.4932119879461396  0.35288202510640326  0.8479096281352838  1.0000
  C   C2        1.0  0.5067746513645801  0.6471233193613982  0.1520930846541829  1.0000
  C   C3        1.0  0.6746045141782274  0.22688304592968933  0.8382627886016395  1.0000
  C   C4        1.0  0.32541395025035047  0.7730983255029145  0.16172950589825064  1.0000
  C   C5        1.0  0.6868099543249642  0.16732979162519254  0.7327255839813417  1.0000
  C   C6        1.0  0.3131904697236577  0.8326595677333796  0.26727309941210814  1.0000
  C   C7        1.0  0.22393257463668442  0.7875665695097709  0.7017566025262597  1.0000
  C   C8        1.0  0.7760658307051713  0.2124458444795749  0.29822024426317734  1.0000
  C   C9        1.0  0.25326892356225983  0.9394961550699533  0.5891698556995307  1.0000
  C   C10       1.0  0.7467402220996175  0.060517378000710685  0.410805373224825  1.0000
  C   C11       1.0  0.2626248431829836  0.052040999426942784  0.63939747337632  1.0000
  C   C12       1.0  0.7374074653326516  0.9479529284773418  0.36058962454431753  1.0000
  C   C13       1.0  0.18289602202935382  0.4668179015342346  0.5179473153755865  1.0000
  C   C14       1.0  0.8171105280584355  0.5331863285102898  0.4820457769251831  1.0000
  C   C15       1.0  0.8592069682447843  0.5280249813803407  0.5984524288731592  1.0000
  C   C16       1.0  0.14079968368013596  0.4719872804301346  0.40153638617537973  1.0000
  C   C17       1.0  0.7269201375291274  0.7601640474147118  0.7934388537374062  1.0000
  C   C18       1.0  0.27308643495612017  0.2398354319637973  0.20657239407229613  1.0000
  C   C19       1.0  0.08347309772366883  0.18408269463444774  0.9702774443524048  1.0000
  C   C20       1.0  0.9165041927752637  0.8159294218582714  0.029735899245508776  1.0000
  N   N1        1.0  0.04205268640124162  0.49451152972808626  0.6159752555812402  1.0000
  N   N2        1.0  0.9579537124548168  0.5054972757316775  0.384016850348928  1.0000
  O   O1        1.0  0.3621252593751549  0.38344611637117504  0.7806740839177948  1.0000
  O   O2        1.0  0.6378637516190011  0.6165603333297582  0.2193313082469715  1.0000
  O   O3        1.0  0.4846634988329796  0.41709667012192136  0.9252135175350561  1.0000
  O   O4        1.0  0.5153312174161612  0.5829003981638011  0.07481447715433376  1.0000
  O   O5        1.0  0.27236191928867015  0.7466399802678154  0.8174066879154863  1.0000
  O   O6        1.0  0.7276013669296689  0.2533610308718722  0.1825816257737641  1.0000
  O   O7        1.0  0.15553263390378888  0.7123581421756242  0.6700982097152917  1.0000
  O   O8        1.0  0.8444653737923531  0.28764750669191136  0.32987076061566256  1.0000
  O   O9        1.0  0.8239129937256704  0.6028576454945805  0.8492687773399864  1.0000
  O   O10       1.0  0.1760776907720825  0.39713962340088216  0.15074103409524042  1.0000
  O   O11       1.0  0.9958671914933888  0.34094330192458944  0.9399826835151613  1.0000
  O   O12       1.0  0.004088473788641485  0.6590632676344085  0.060022728472802066  1.0000
