data_image0
_chemical_formula_structural       Cd2H30C32S6N8O12
_chemical_formula_sum              "Cd2 H30 C32 S6 N8 O12"
_cell_length_a       8.411822163796565
_cell_length_b       11.660914486982616
_cell_length_c       11.966872265309194
_cell_angle_alpha    106.53912810856778
_cell_angle_beta     106.31955108481588
_cell_angle_gamma    94.30154305156734

_space_group_name_H-M_alt    "P 1"
_space_group_IT_number       1

loop_
  _space_group_symop_operation_xyz
  'x, y, z'

loop_
  _atom_site_type_symbol
  _atom_site_label
  _atom_site_symmetry_multiplicity
  _atom_site_fract_x
  _atom_site_fract_y
  _atom_site_fract_z
  _atom_site_occupancy
  Cd  Cd1       1.0  0.1483948604826324  0.1719526043006425  0.2839773880796344  1.0000
  Cd  Cd2       1.0  0.8516114012846644  0.8280528225816894  0.7160257492850306  1.0000
  H   H1        1.0  0.03880955375124981  0.6115071661242767  0.747533466697007  1.0000
  H   H2        1.0  0.9611998644088401  0.3885008694196869  0.2524517887960229  1.0000
  H   H3        1.0  0.1456806211476476  0.9072052255740889  0.21387205363822662  1.0000
  H   H4        1.0  0.8543184503031185  0.09282238976396685  0.7861458318841131  1.0000
  H   H5        1.0  0.008989311427924859  0.9132649164668653  0.09407824004971847  1.0000
  H   H6        1.0  0.9909963720586676  0.08675488258256082  0.9059415526788612  1.0000
  H   H7        1.0  0.5527135776393663  0.15173325936277854  0.32971896266672474  1.0000
  H   H8        1.0  0.4472843445150616  0.84825598212759  0.6702914437219789  1.0000
  H   H9        1.0  0.6198251131800845  0.608494204393928  0.463537553684283  1.0000
  H   H10       1.0  0.3801640619735879  0.39150351180206405  0.5364642894321889  1.0000
  H   H11       1.0  0.5882521234784265  0.384590677701702  0.3650393878339884  1.0000
  H   H12       1.0  0.41172722656456523  0.6154073366359043  0.6349622865110476  1.0000
  H   H13       1.0  0.025037302174993677  0.38917669325231685  0.6639379942565924  1.0000
  H   H14       1.0  0.9749768505986439  0.6108348589313124  0.3360491587272564  1.0000
  H   H15       1.0  0.9164405642613503  0.20838511152251726  0.4637753026208955  1.0000
  H   H16       1.0  0.08357036380132137  0.7916238022355487  0.5362146690418896  1.0000
  H   H17       1.0  0.7470885124458705  0.19369580427017039  0.5222111248981706  1.0000
  H   H18       1.0  0.25294356395853873  0.8063088503251239  0.4777976857667313  1.0000
  H   H19       1.0  0.411779055607674  0.007521602454282606  0.1833422513425518  1.0000
  H   H20       1.0  0.5882249005940423  0.9924930365447153  0.8166613075255427  1.0000
  H   H21       1.0  0.7756901412850326  0.11397361101883521  0.023768121242703374  1.0000
  H   H22       1.0  0.224312922735308  0.8860337251457724  0.9762273968875521  1.0000
  H   H23       1.0  0.44273551666172745  0.005841687156184599  0.5903406408880087  1.0000
  H   H24       1.0  0.5572451565149308  0.9941480521055084  0.40965733591212944  1.0000
  H   H25       1.0  0.3202225727667241  0.0975663717395676  0.6696990806890001  1.0000
  H   H26       1.0  0.6797593408839973  0.9024233356284698  0.33030163695069353  1.0000
  H   H27       1.0  0.6771883391267296  0.8278896571148594  0.07098734672553064  1.0000
  H   H28       1.0  0.32280352148502806  0.1721043411582031  0.9290240228732145  1.0000
  H   H29       1.0  0.7520464465248438  0.6892267724686505  0.04702438429498552  1.0000
  H   H30       1.0  0.24794099863862584  0.3107691769016654  0.9529816462940205  1.0000
  C   C1        1.0  0.9395177404954964  0.5576455383729666  0.6638613346510809  1.0000
  C   C2        1.0  0.0604867802910647  0.4423626528560193  0.33612718383239576  1.0000
  C   C3        1.0  0.7071561693442733  0.5562159004394331  0.5048836923974847  1.0000
  C   C4        1.0  0.2928382375299848  0.44378713442267065  0.4951147935857847  1.0000
  C   C5        1.0  0.6896131087352089  0.4312296211966783  0.4504459409668798  1.0000
  C   C6        1.0  0.3103744510835398  0.5687754500461609  0.5495526033000502  1.0000
  C   C7        1.0  0.803129645755462  0.3675335407291841  0.5072757819709537  1.0000
  C   C8        1.0  0.19687562219357352  0.6324728182332537  0.49272156882013013  1.0000
  C   C9        1.0  0.9307334222637778  0.4332122489122198  0.6163623990780849  1.0000
  C   C10       1.0  0.06927453913008459  0.5667949315673725  0.38362985606173083  1.0000
  C   C11       1.0  0.7265928409584744  0.14691349267111062  0.23733427175707789  1.0000
  C   C12       1.0  0.27339150933112677  0.8530889467603728  0.7626704385649461  1.0000
  C   C13       1.0  0.7912666172390743  0.2316318225853493  0.4596826509761343  1.0000
  C   C14       1.0  0.20874745503835615  0.7683706226077267  0.5403195199261434  1.0000
  C   C15       1.0  0.6064092404251227  0.0701966039129474  0.11673891056579315  1.0000
  C   C16       1.0  0.3936012095077642  0.9298105160864337  0.8832604999412084  1.0000
  C   C17       1.0  0.4515980859462943  0.005262521150413603  0.1038037794993159  1.0000
  C   C18       1.0  0.5484082521259096  0.9947474749359417  0.8961997989245063  1.0000
  C   C19       1.0  0.654456249209865  0.0637714942217968  0.01213094760428393  1.0000
  C   C20       1.0  0.34554929575859467  0.9362357781554991  0.9878700522050822  1.0000
  C   C21       1.0  0.7521931496116637  0.7774876579596037  0.9089009608840185  1.0000
  C   C22       1.0  0.24784153718213986  0.22252152520211876  0.09112548833568472  1.0000
  C   C23       1.0  0.31165911455665457  0.11844931260012712  0.4938133187895631  1.0000
  C   C24       1.0  0.6883195617605368  0.8815249356883044  0.5061791538652685  1.0000
  C   C25       1.0  0.4022155262971268  0.09496589020030649  0.6127338369538009  1.0000
  C   C26       1.0  0.5977644630035784  0.9050128937449387  0.3872609807556984  1.0000
  C   C27       1.0  0.5187288476299585  0.32737183642953477  0.761079025816592  1.0000
  C   C28       1.0  0.48126499637832854  0.6726165526023565  0.23890193531035214  1.0000
  C   C29       1.0  0.4684272389738524  0.5233822396574226  0.8609417942594532  1.0000
  C   C30       1.0  0.53157064182642  0.47661151977685995  0.13904311102319866  1.0000
  C   C31       1.0  0.6752741087654713  0.7437433458955098  0.9992623419447355  1.0000
  C   C32       1.0  0.3247343721123314  0.2562611103988529  0.0007459754569154619  1.0000
  S   S1        1.0  0.5980978393172904  0.19818756964123446  0.7012481023806388  1.0000
  S   S2        1.0  0.4018944754153111  0.8017953967758231  0.29874025417797156  1.0000
  S   S3        1.0  0.6467202418711936  0.46895999650129744  0.8338726040376372  1.0000
  S   S4        1.0  0.3532734802867452  0.5310238034839543  0.1660978739016841  1.0000
  S   S5        1.0  0.4579527124900551  0.671054423123792  0.9387681110419666  1.0000
  S   S6        1.0  0.5420512146710692  0.3289345729135889  0.061212483654486484  1.0000
  N   N1        1.0  0.8293349564733462  0.6189652656504238  0.6097066327847713  1.0000
  N   N2        1.0  0.17066388901776008  0.3810403641687258  0.3902859174508393  1.0000
  N   N3        1.0  0.6760081501694303  0.17184955051742185  0.3370653709966831  1.0000
  N   N4        1.0  0.32399963165060086  0.8281439438462856  0.6629364399381714  1.0000
  N   N5        1.0  0.36087270304138036  0.32789985693281665  0.7568410034980175  1.0000
  N   N6        1.0  0.6391103675834203  0.6720897821634183  0.24314404441238224  1.0000
  N   N7        1.0  0.3322947302362635  0.4396830028201252  0.8141190537171641  1.0000
  N   N8        1.0  0.667715190989739  0.5603094862310201  0.18587036352985825  1.0000
  O   O1        1.0  0.1560059329538817  0.1201488846004679  0.4678810899238997  1.0000
  O   O2        1.0  0.8439736266307349  0.8798582929484626  0.5321340192000292  1.0000
  O   O3        1.0  0.07512385917321046  0.9605251426020377  0.18202954440114652  1.0000
  O   O4        1.0  0.9248684706543815  0.0394962758558179  0.8179869820846406  1.0000
  O   O5        1.0  0.39736334860615596  0.1322309333609297  0.4236829998299925  1.0000
  O   O6        1.0  0.6026045670369413  0.8677189402192907  0.5762998007210811  1.0000
  O   O7        1.0  0.8725004704901593  0.18650236922236724  0.24321213942226896  1.0000
  O   O8        1.0  0.12751315565316904  0.8135156472668045  0.756798422386595  1.0000
  O   O9        1.0  0.6629801444305912  0.7515285782001514  0.7973280710030934  1.0000
  O   O10       1.0  0.3370796339336336  0.2484560451291884  0.2026839708541459  1.0000
  O   O11       1.0  0.9040493912004025  0.8311748992041289  0.9509420097885339  1.0000
  O   O12       1.0  0.09597099514753892  0.16884478630002767  0.04909039109870149  1.0000
