data_image0
_chemical_formula_structural       Cu2H24C32N20
_chemical_formula_sum              "Cu2 H24 C32 N20"
_cell_length_a       7.085710755061955
_cell_length_b       9.488604788993976
_cell_length_c       13.848290356111633
_cell_angle_alpha    89.99999215754723
_cell_angle_beta     90.00048544405712
_cell_angle_gamma    90.12659615257424

_space_group_name_H-M_alt    "P 1"
_space_group_IT_number       1

loop_
  _space_group_symop_operation_xyz
  'x, y, z'

loop_
  _atom_site_type_symbol
  _atom_site_label
  _atom_site_symmetry_multiplicity
  _atom_site_fract_x
  _atom_site_fract_y
  _atom_site_fract_z
  _atom_site_occupancy
  Cu  Cu1       1.0  0.9999898578941074  2.2102079242005558e-06  0.5000004666772284  1.0000
  Cu  Cu2       1.0  0.5000015636835826  2.9238227270021098e-06  0.9999975061580813  1.0000
  H   H1        1.0  0.1661489605462023  0.46248291555352944  0.6643986787401346  1.0000
  H   H2        1.0  0.33384332564746444  0.537508792912618  0.16439872023071445  1.0000
  H   H3        1.0  0.8338231323290657  0.5375217152237822  0.3356000569249247  1.0000
  H   H4        1.0  0.6661791968331912  0.4624814645871993  0.8355985713267131  1.0000
  H   H5        1.0  0.8182748363803045  0.5004201909714892  0.6136892191431543  1.0000
  H   H6        1.0  0.6817294357921143  0.49957464933475376  0.11368928099529542  1.0000
  H   H7        1.0  0.18170013497169182  0.4995865097811674  0.3863116828610559  1.0000
  H   H8        1.0  0.3183018067656818  0.5004249792861729  0.8863137874692626  1.0000
  H   H9        1.0  0.7174537384727843  0.2466130328327338  0.5256434412831226  1.0000
  H   H10       1.0  0.7825477720658114  0.7533829455409132  0.0256476186443777  1.0000
  H   H11       1.0  0.28253373438282386  0.7533861231109286  0.4743466290870231  1.0000
  H   H12       1.0  0.21747226701184272  0.24661999422470154  0.9743511171300838  1.0000
  H   H13       1.0  0.428409558354673  0.2868508857420835  0.6465898440421043  1.0000
  H   H14       1.0  0.0715811225121641  0.7131440159330609  0.14658149659489794  1.0000
  H   H15       1.0  0.5715833611915926  0.713140819098406  0.3534211675529733  1.0000
  H   H16       1.0  0.9284244677467798  0.28684646649264783  0.8534064074834902  1.0000
  H   H17       1.0  0.3761145993470053  0.1220508629721522  0.5897054320802299  1.0000
  H   H18       1.0  0.12388656343236451  0.8779470923273323  0.089699518687425  1.0000
  H   H19       1.0  0.6238757521097255  0.8779503629409289  0.4103026910666259  1.0000
  H   H20       1.0  0.8761191679368566  0.12204865875532532  0.910291273834936  1.0000
  H   H21       1.0  0.32064109788526446  0.14933434234079357  0.7134527130542736  1.0000
  H   H22       1.0  0.1793547784877418  0.8506572920966773  0.2134434378339876  1.0000
  H   H23       1.0  0.6793250970449949  0.850660879823245  0.2865539658152656  1.0000
  H   H24       1.0  0.8206536055670597  0.1493320991108931  0.7865430220290933  1.0000
  C   C1        1.0  0.13830745558153273  0.25484172843226816  0.6137714089810018  1.0000
  C   C2        1.0  0.36168423520249604  0.7451573938754236  0.11376294856305691  1.0000
  C   C3        1.0  0.8616729905259818  0.745158574956086  0.3862309372567481  1.0000
  C   C4        1.0  0.6383201697787017  0.2548415371469233  0.8862242334025652  1.0000
  C   C5        1.0  0.8961143153890989  0.40359848746818716  0.603169678448964  1.0000
  C   C6        1.0  0.6038756536664637  0.5963954943802606  0.1031657908920067  1.0000
  C   C7        1.0  0.10386136159912951  0.5963818512478342  0.396839166773333  1.0000
  C   C8        1.0  0.3961407449649458  0.4036296299785889  0.8968358333192584  1.0000
  C   C9        1.0  0.8475184468425567  0.27836158902896807  0.5604234857013283  1.0000
  C   C10       1.0  0.6524695264136895  0.721635604603506  0.0604198420377529  1.0000
  C   C11       1.0  0.1524677280404632  0.7216418005765772  0.4395882479901587  1.0000
  C   C12       1.0  0.3475360639979215  0.27835487781493373  0.9395875590321838  1.0000
  C   C13       1.0  0.3264058322604201  0.2000140634461189  0.6419868691857715  1.0000
  C   C14       1.0  0.17358472007733644  0.7999787341953776  0.1419775587761691  1.0000
  C   C15       1.0  0.673577464140216  0.7999872561843588  0.3580219760557669  1.0000
  C   C16       1.0  0.8264110495189102  0.20001398689880284  0.8580089010583763  1.0000
  C   C17       1.0  0.0778334710001545  0.8638159548151801  0.6949892916698417  1.0000
  C   C18       1.0  0.422192086103216  0.13618794454192337  0.1949817236312299  1.0000
  C   C19       1.0  0.9221754211285643  0.13619240355375686  0.305017387298399  1.0000
  C   C20       1.0  0.5778336534136771  0.8638170277149225  0.8050112352700438  1.0000
  C   C21       1.0  0.0529765280868162  0.8140233618330796  0.7885473497474179  1.0000
  C   C22       1.0  0.4470416896047099  0.185967935501985  0.28854929139885854  1.0000
  C   C23       1.0  0.9470544604962188  0.1859667832042007  0.2114535523833325  1.0000
  C   C24       1.0  0.5529588210120266  0.814043696527264  0.7114458337777521  1.0000
  C   C25       1.0  0.1207206202849136  0.8941684191163687  0.8664777088374365  1.0000
  C   C26       1.0  0.379266364518692  0.1058232512649013  0.36647210577130096  1.0000
  C   C27       1.0  0.8792905859642205  0.10582093459606766  0.1335304143560307  1.0000
  C   C28       1.0  0.6207255389193093  0.894183224568323  0.6335208530527936  1.0000
  C   C29       1.0  0.9613468281110472  0.6848845720674887  0.8041693926359414  1.0000
  C   C30       1.0  0.5386532874615853  0.3151070588528952  0.3041738233079343  1.0000
  C   C31       1.0  0.038671376685620394  0.31510258046784395  0.1958286210221516  1.0000
  C   C32       1.0  0.461347110307635  0.6849003582488533  0.6958241903112424  1.0000
  N   N1        1.0  0.9992218866566277  0.18704776995779326  0.5669726471863399  1.0000
  N   N2        1.0  0.500772002519966  0.81295566621106  0.066969048331849  1.0000
  N   N3        1.0  0.000757120237963691  0.8129514984416771  0.4330318653804285  1.0000
  N   N4        1.0  0.49923530921203974  0.18704638851554015  0.9330275210810585  1.0000
  N   N5        1.0  0.0782282202711286  0.38652292603448046  0.6359039791461926  1.0000
  N   N6        1.0  0.4217637889120738  0.6134751260528263  0.13589577031630992  1.0000
  N   N7        1.0  0.9217352655611109  0.6134765485403475  0.36410992082550564  1.0000
  N   N8        1.0  0.5782705013711009  0.3865328949357618  0.8641022433803585  1.0000
  N   N9        1.0  0.10584949886848702  0.9049640166549935  0.616318276268494  1.0000
  N   N10       1.0  0.3941511212294699  0.09505079726386609  0.11632140463923693  1.0000
  N   N11       1.0  0.8941508988950774  0.0950434004470253  0.3836790152398777  1.0000
  N   N12       1.0  0.6058549206287368  0.904956544861882  0.8836816637684066  1.0000
  N   N13       1.0  0.6805539868188436  0.9617768133438316  0.5695593095978069  1.0000
  N   N14       1.0  0.8194656233033228  0.038236820828601  0.0695606425125419  1.0000
  N   N15       1.0  0.31943802952887523  0.03823387741392989  0.4304387040025048  1.0000
  N   N16       1.0  0.18053618547259734  0.9617705775298901  0.9304366489990558  1.0000
  N   N17       1.0  0.8833072140403929  0.5772006891414209  0.8162833356903932  1.0000
  N   N18       1.0  0.6166763847739534  0.42279958753244534  0.31627947638163795  1.0000
  N   N19       1.0  0.1167196543813773  0.42279372705261414  0.18371828854211714  1.0000
  N   N20       1.0  0.3833097899903208  0.5772038020787491  0.6837170929830876  1.0000
