data_image0
_chemical_formula_structural       Al2H18C28N4O14
_chemical_formula_sum              "Al2 H18 C28 N4 O14"
_cell_length_a       6.784150632241192
_cell_length_b       17.013546818773328
_cell_length_c       17.01356864795528
_cell_angle_alpha    86.48886872450281
_cell_angle_beta     81.74236299070132
_cell_angle_gamma    81.74247338907664

_space_group_name_H-M_alt    "P 1"
_space_group_IT_number       1

loop_
  _space_group_symop_operation_xyz
  'x, y, z'

loop_
  _atom_site_type_symbol
  _atom_site_label
  _atom_site_symmetry_multiplicity
  _atom_site_fract_x
  _atom_site_fract_y
  _atom_site_fract_z
  _atom_site_occupancy
  Al  Al1       1.0  0.4999938298292932  0.499999854551611  0.49999935936972423  1.0000
  Al  Al2       1.0  0.9999926485457775  0.4999993120049811  0.5000002968779498  1.0000
  H   H1        1.0  0.7499989589200169  0.42330313339829934  0.576695590194973  1.0000
  H   H2        1.0  0.25000161618280703  0.5766935781036225  0.4233049196950773  1.0000
  H   H3        1.0  0.3476334172249338  0.7409170999401339  0.5017607798603907  1.0000
  H   H4        1.0  0.2901387199666346  0.888988729347105  0.4991541889412972  1.0000
  H   H5        1.0  0.9243131237311102  0.8919188266065776  0.49862727481466634  1.0000
  H   H6        1.0  0.07569154199372721  0.10807910493148402  0.5013700101667241  1.0000
  H   H7        1.0  0.7098623643776633  0.11101099807684281  0.5008420274975194  1.0000
  H   H8        1.0  0.6523635895216697  0.25908142000969303  0.49823748452511313  1.0000
  H   H9        1.0  0.8476353141435384  0.5017609803831962  0.7409180149951384  1.0000
  H   H10       1.0  0.7901391232698883  0.499155125114598  0.8889885833131574  1.0000
  H   H11       1.0  0.424309046108931  0.4986298664154989  0.8919182558844839  1.0000
  H   H12       1.0  0.5756918070257979  0.5013704302869827  0.10808029603603596  1.0000
  H   H13       1.0  0.2098614583450953  0.5008415926683298  0.11101133809590644  1.0000
  H   H14       1.0  0.15236296387885057  0.4982381213491538  0.2590813260370127  1.0000
  H   H15       1.0  0.012752431013424756  0.6802796680930359  0.5045893177459818  1.0000
  H   H16       1.0  0.9872496400625864  0.319717049631855  0.4954105217900065  1.0000
  H   H17       1.0  0.5127521501237168  0.5045893960067502  0.6802806543356967  1.0000
  H   H18       1.0  0.48725039763296957  0.4954103062351083  0.3197178341539982  1.0000
  C   C1        1.0  0.19531945015658891  0.5029357870626044  0.6446812100818634  1.0000
  C   C2        1.0  0.3046822084943985  0.35531747337088143  0.497062574374205  1.0000
  C   C3        1.0  0.8046818198121669  0.49706332711570417  0.35531679024216345  1.0000
  C   C4        1.0  0.69531648636201  0.6446804458372953  0.5029362150614602  1.0000
  C   C5        1.0  0.6674443413755783  0.7319097224726223  0.5020360984597616  1.0000
  C   C6        1.0  0.47296250350832736  0.774271795637077  0.5011232378071498  1.0000
  C   C7        1.0  0.4397397844262443  0.8561517381821986  0.49967139860814314  1.0000
  C   C8        1.0  0.6045317756875263  0.8984032988876083  0.4990601693707363  1.0000
  C   C9        1.0  0.7990251026087023  0.8582647679942993  0.4992575420775155  1.0000
  C   C10       1.0  0.8326422882601463  0.7750164604382378  0.5009835973630175  1.0000
  C   C11       1.0  0.2009732079744708  0.14173436514312243  0.5007388565497025  1.0000
  C   C12       1.0  0.3954648598101683  0.10159644755348302  0.5009345272443468  1.0000
  C   C13       1.0  0.5602602142667336  0.1438467942135802  0.5003255250692364  1.0000
  C   C14       1.0  0.5270391767822957  0.2257261297360459  0.49887479940138496  1.0000
  C   C15       1.0  0.3325558494540175  0.26808820295853747  0.49796202062184164  1.0000
  C   C16       1.0  0.16735662478151878  0.22498087692937932  0.4990140335529248  1.0000
  C   C17       1.0  0.16744489637295595  0.5020364707707474  0.7319098530259609  1.0000
  C   C18       1.0  0.9729630521890371  0.5011231189356808  0.7742720400335801  1.0000
  C   C19       1.0  0.939740331911828  0.499671191187133  0.8561517101509255  1.0000
  C   C20       1.0  0.10453275783618919  0.4990625926487128  0.898402817636729  1.0000
  C   C21       1.0  0.2990259429600499  0.4992590165529906  0.8582647814847563  1.0000
  C   C22       1.0  0.332641468247182  0.5009849253500392  0.7750166690803298  1.0000
  C   C23       1.0  0.700972745384199  0.5007388963741805  0.14173459643189557  1.0000
  C   C24       1.0  0.8954642293739427  0.5009359084580681  0.10159721219173433  1.0000
  C   C25       1.0  0.06026005105438509  0.5003261272794078  0.14384760433490842  1.0000
  C   C26       1.0  0.027040104538294002  0.4988747938173789  0.22572709226384557  1.0000
  C   C27       1.0  0.8325561619227031  0.49796323152914834  0.2680887173368021  1.0000
  C   C28       1.0  0.6673585109093235  0.4990135882027006  0.2249820200400167  1.0000
  N   N1        1.0  0.5891084865751708  0.9822655301881795  0.49846995968984953  1.0000
  N   N2        1.0  0.4108921939594197  0.017735392321967008  0.5015256313834797  1.0000
  N   N3        1.0  0.08910772873361594  0.49847362681455104  0.982264700962425  1.0000
  N   N4        1.0  0.9108931113767937  0.501526657325904  0.017735027920061007  1.0000
  O   O1        1.0  0.37752782469526375  0.5040612387269549  0.6086665455848462  1.0000
  O   O2        1.0  0.12247507483783696  0.3913335432237375  0.49593745820610036  1.0000
  O   O3        1.0  0.955607483781968  0.4983041434114739  0.39154540856871745  1.0000
  O   O4        1.0  0.544389796408197  0.6084520728176132  0.5016929170495672  1.0000
  O   O5        1.0  0.6224751203589775  0.4959372621476917  0.39133315675132263  1.0000
  O   O6        1.0  0.8775248978065023  0.6086649640479891  0.5040618193952329  1.0000
  O   O7        1.0  0.0443937861867809  0.5016949707668347  0.6084525917553167  1.0000
  O   O8        1.0  0.4556087128237606  0.3915464596362029  0.4983040885008878  1.0000
  O   O9        1.0  0.7499974679792913  0.4648834628703114  0.5351188422810581  1.0000
  O   O10       1.0  0.24999908286034156  0.5351162019176101  0.46488350458685096  1.0000
  O   O11       1.0  0.0228311542857327  0.7385993586708325  0.5015766329858736  1.0000
  O   O12       1.0  0.9771677457316131  0.26139796613475147  0.49842217489204205  1.0000
  O   O13       1.0  0.5228325858799749  0.5015767935167476  0.7385992755636154  1.0000
  O   O14       1.0  0.4771692995715782  0.49842053745378234  0.2613987800871698  1.0000
