data_image0
_chemical_formula_structural       Tb2Cd4H38C40N12Cl4O26
_chemical_formula_sum              "Tb2 Cd4 H38 C40 N12 Cl4 O26"
_cell_length_a       7.373428515434114
_cell_length_b       12.515027416027054
_cell_length_c       17.27659135507664
_cell_angle_alpha    68.79930061211007
_cell_angle_beta     87.05093025003244
_cell_angle_gamma    81.34230057230904

_space_group_name_H-M_alt    "P 1"
_space_group_IT_number       1

loop_
  _space_group_symop_operation_xyz
  'x, y, z'

loop_
  _atom_site_type_symbol
  _atom_site_label
  _atom_site_symmetry_multiplicity
  _atom_site_fract_x
  _atom_site_fract_y
  _atom_site_fract_z
  _atom_site_occupancy
  Tb  Tb1       1.0  0.7730019361471535  0.5867985816422773  0.7745793527335609  1.0000
  Tb  Tb2       1.0  0.27320902677882225  0.3610347985477702  0.22554376793129194  1.0000
  Cd  Cd1       1.0  0.8180524383318045  0.018209217706115017  0.9051866134245901  1.0000
  Cd  Cd2       1.0  0.3182016909241839  0.9232044638723025  0.0944987467483287  1.0000
  Cd  Cd3       1.0  0.5542450298670545  0.8342481101915952  0.4732165153456479  1.0000
  Cd  Cd4       1.0  0.053594336084088874  0.3078561659020238  0.5268057029419922  1.0000
  H   H1        1.0  0.2699741350380336  0.322133509387342  0.8370809892343305  1.0000
  H   H2        1.0  0.7703286223539791  0.15979647877889397  0.16290584921791412  1.0000
  H   H3        1.0  0.382195707682456  0.778207415649888  0.8443557240145341  1.0000
  H   H4        1.0  0.8827419352290632  0.6220098935742442  0.15585108737684553  1.0000
  H   H5        1.0  0.3423807331715383  0.48087323514325664  0.5836901451925202  1.0000
  H   H6        1.0  0.8426868729854606  0.06391494847030534  0.4166362175054702  1.0000
  H   H7        1.0  0.20486962995411057  0.8672293631894519  0.6024617913908514  1.0000
  H   H8        1.0  0.7056925147206883  0.4692724795569062  0.39722029446694773  1.0000
  H   H9        1.0  0.8567297877897392  0.7079038857363996  0.5548495869411313  1.0000
  H   H10       1.0  0.35567079706724775  0.2626437127201412  0.44535170856861594  1.0000
  H   H11       1.0  0.8258491375557782  0.6131679939917731  0.5201647915587204  1.0000
  H   H12       1.0  0.32527513233803523  0.13326958275138875  0.47987038182363767  1.0000
  H   H13       1.0  0.5282136423554108  0.30185389916883293  0.5736384240876619  1.0000
  H   H14       1.0  0.0284720024722489  0.8747651171916075  0.42666979304296154  1.0000
  H   H15       1.0  0.2459381361663803  0.97025309637371  0.8496723918315754  1.0000
  H   H16       1.0  0.7463296691496597  0.8194789952342278  0.15033542680571096  1.0000
  H   H17       1.0  0.0525345067916163  0.06237800501585857  0.5976065441399856  1.0000
  H   H18       1.0  0.5538836564896101  0.6596999856157951  0.401931657785049  1.0000
  H   H19       1.0  0.4433921038742881  0.13580163328597894  0.8381064840369988  1.0000
  H   H20       1.0  0.9440735135488156  0.9745666130409986  0.1617974811359559  1.0000
  H   H21       1.0  0.945960785988163  0.40196836666272145  0.9481475764807785  1.0000
  H   H22       1.0  0.44647832872666976  0.35027539999342144  0.051516289664491025  1.0000
  H   H23       1.0  0.09135943168123371  0.4842427337381704  0.9108181392799397  1.0000
  H   H24       1.0  0.5911781505899115  0.39526319870690685  0.08941369866135326  1.0000
  H   H25       1.0  0.5560865586201589  0.08676352616066636  0.5887706578488336  1.0000
  H   H26       1.0  0.05649307224445719  0.6755145908685734  0.41111560799162566  1.0000
  H   H27       1.0  0.46105355651205576  0.6221138340923247  0.6706159127802139  1.0000
  H   H28       1.0  0.9622819467459538  0.29202235604729754  0.32916906208884467  1.0000
  H   H29       1.0  0.3991734877088506  0.7040190790914592  0.7239948287779826  1.0000
  H   H30       1.0  0.8998105347813096  0.427410780483214  0.276025123174307  1.0000
  H   H31       1.0  0.1749461627579194  0.5037722556066196  0.7363671871634739  1.0000
  H   H32       1.0  0.6753354142066285  0.23985704428604032  0.26386315554734113  1.0000
  H   H33       1.0  0.16359305872177288  0.6171149269496965  0.7607087875035462  1.0000
  H   H34       1.0  0.6634960567219822  0.37759528726115826  0.23961066569143707  1.0000
  H   H35       1.0  0.5719921931617691  0.5164997110531925  0.9466560771996273  1.0000
  H   H36       1.0  0.0718237235982429  0.46313784248462053  0.053034879675465225  1.0000
  H   H37       1.0  0.675345245079718  0.6247549557707972  0.9251632752764326  1.0000
  H   H38       1.0  0.17533152011511527  0.5496889979387163  0.07493461311239002  1.0000
  C   C1        1.0  0.7463649850878368  0.9163059931804083  0.7603185140986997  1.0000
  C   C2        1.0  0.24628744705036346  0.6765372361991809  0.23994658785781559  1.0000
  C   C3        1.0  0.8975246096511145  0.2606433973137142  0.7827216028159328  1.0000
  C   C4        1.0  0.3979485136270853  0.04312080657388859  0.21709205950089236  1.0000
  C   C5        1.0  0.6993626336458405  0.9343756336105785  0.6784364070103667  1.0000
  C   C6        1.0  0.1993550174779557  0.6127249178876893  0.3216930665748806  1.0000
  C   C7        1.0  0.32932814663054455  0.31423281408673615  0.7798462131406368  1.0000
  C   C8        1.0  0.8297188649233007  0.09438575226212718  0.22020537915864946  1.0000
  C   C9        1.0  0.9178713413707417  0.31993607558419485  0.6970242436335499  1.0000
  C   C10       1.0  0.41863969577777743  0.016438731664543016  0.3028686345715245  1.0000
  C   C11       1.0  0.6008051639441091  0.09223028542152871  0.70835382137728  1.0000
  C   C12       1.0  0.10115291351262105  0.8006094117186746  0.29171195869300703  1.0000
  C   C13       1.0  0.30953787869358235  0.8446373972480504  0.7909315370116519  1.0000
  C   C14       1.0  0.8101307577440907  0.6350995399806152  0.20911428452382108  1.0000
  C   C15       1.0  0.04379716580428551  0.14052832173879876  0.7285074267026348  1.0000
  C   C16       1.0  0.5444947331024251  0.868656890549005  0.27129957709015445  1.0000
  C   C17       1.0  0.8524459860631026  0.4389617043145788  0.6411790177803172  1.0000
  C   C18       1.0  0.3534224890323827  0.0795887416550157  0.3586955400278883  1.0000
  C   C19       1.0  0.8074326335810369  0.2908169874370258  0.852955240589694  1.0000
  C   C20       1.0  0.30765285748072563  0.14375774800161167  0.14677772858654245  1.0000
  C   C21       1.0  0.8478071643241095  0.8163901541674435  0.8278926018622459  1.0000
  C   C22       1.0  0.3470674256644345  0.6440098525221883  0.17250572492126542  1.0000
  C   C23       1.0  0.3690487530079878  0.4023597196225308  0.6385047322885458  1.0000
  C   C24       1.0  0.8694423419776315  0.04048472213781194  0.3617424854404377  1.0000
  C   C25       1.0  0.13786420592197152  0.032454622691567195  0.7236772176455022  1.0000
  C   C26       1.0  0.638644395981288  0.7557545432355113  0.2761042985573568  1.0000
  C   C27       1.0  0.5008529196902315  0.20347653707612764  0.7055091056883428  1.0000
  C   C28       1.0  0.001362798802972534  0.9090174378212765  0.2945765966352809  1.0000
  C   C29       1.0  0.21010567573102898  0.8950468701513187  0.6552410749157647  1.0000
  C   C30       1.0  0.710999273797576  0.5498383088119779  0.34452934379523015  1.0000
  C   C31       1.0  0.47121432846176964  0.3020655944846169  0.6330658427937836  1.0000
  C   C32       1.0  0.9715882584899376  0.9347481123763188  0.3671690711815644  1.0000
  C   C33       1.0  0.2325614703448337  0.9511822798797026  0.7937051157485231  1.0000
  C   C34       1.0  0.7330841238308068  0.7444589459032115  0.20623511384077628  1.0000
  C   C35       1.0  0.12886944429655497  0.003632357516394643  0.6527303795901818  1.0000
  C   C36       1.0  0.6299540785716714  0.655989617344403  0.3469527393876462  1.0000
  C   C37       1.0  0.4277610715653779  0.2106157702697969  0.7804169463145814  1.0000
  C   C38       1.0  0.9283229200377293  0.9914100386580246  0.21958087371794488  1.0000
  C   C39       1.0  0.7240063336064323  0.8642870407112968  0.6245088910306438  1.0000
  C   C40       1.0  0.2235968210627064  0.4886610065360629  0.37559356903038593  1.0000
  N   N1        1.0  0.976059061294535  0.14827262939019895  0.8007806620455471  1.0000
  N   N2        1.0  0.4764551602348703  0.9488724633583561  0.1989856673842355  1.0000
  N   N3        1.0  0.00937008630886278  0.24196527215185168  0.6642349607721914  1.0000
  N   N4        1.0  0.5102365261236059  0.9055987642162577  0.3356610765437369  1.0000
  N   N5        1.0  0.2986301419014623  0.4085450767326859  0.710460641167977  1.0000
  N   N6        1.0  0.799037755697292  0.11894660705902277  0.2896990783392752  1.0000
  N   N7        1.0  0.29709863821863536  0.8168041455370909  0.7233612547850756  1.0000
  N   N8        1.0  0.7977901284907603  0.5396848681813395  0.27657268870493107  1.0000
  N   N9        1.0  0.6104637304901672  0.04676295495902141  0.6474067205007331  1.0000
  N   N10       1.0  0.11067439745668389  0.6941672101029398  0.35259448346904076  1.0000
  N   N11       1.0  0.6853218646269641  0.014541829624114556  0.776687733215745  1.0000
  N   N12       1.0  0.1854063297901193  0.7911978083233464  0.22353556836733188  1.0000
  Cl  Cl1       1.0  0.32552970755364186  0.7039152230750146  0.5395802186200103  1.0000
  Cl  Cl2       1.0  0.8252400018163044  0.24328929148773407  0.46020722102550604  1.0000
  Cl  Cl3       1.0  0.9980666343004213  0.9218404416864203  0.038858408454238685  1.0000
  Cl  Cl4       1.0  0.49882280975534604  0.959969865695072  0.9613784816608801  1.0000
  O   O1        1.0  0.8672249145073464  0.7160054786156137  0.8220663186620528  1.0000
  O   O2        1.0  0.366892567495043  0.5376674625298038  0.1785750923399406  1.0000
  O   O3        1.0  0.8033401041273437  0.3948449517436854  0.8521406941996263  1.0000
  O   O4        1.0  0.3037063673015155  0.24689273120353755  0.14775750356975692  1.0000
  O   O5        1.0  0.7461023620977584  0.2113376671096816  0.9115799195068847  1.0000
  O   O6        1.0  0.2460985913449747  0.12311676882377039  0.08794144942671522  1.0000
  O   O7        1.0  0.8324364633540782  0.6984932648137344  0.5021300698720739  1.0000
  O   O8        1.0  0.33171665411828133  0.20048103836606398  0.49799706089410734  1.0000
  O   O9        1.0  0.8649840556217113  0.4626769439732428  0.5628993570045397  1.0000
  O   O10       1.0  0.3657751777960884  0.02503019254388748  0.4369781269467979  1.0000
  O   O11       1.0  0.023689340033648466  0.44993044035128793  0.961738124973067  1.0000
  O   O12       1.0  0.5249417705272137  0.41131061647730155  0.03802525712452362  1.0000
  O   O13       1.0  0.47473604105780975  0.6233670790007223  0.7266744018343376  1.0000
  O   O14       1.0  0.9753574963446141  0.34953232988448246  0.27323924770418273  1.0000
  O   O15       1.0  0.6741230861849914  0.9199738018930574  0.5492264209559751  1.0000
  O   O16       1.0  0.17274623210830234  0.46922191002672525  0.45062830304475204  1.0000
  O   O17       1.0  0.0951336719666926  0.5538077925004358  0.7664972520400753  1.0000
  O   O18       1.0  0.5951227779448728  0.32008529399154645  0.23371773499934537  1.0000
  O   O19       1.0  0.7849226781874066  0.5142720666076455  0.6722423923089026  1.0000
  O   O20       1.0  0.28612162075297215  0.18608985445402468  0.3275606734675876  1.0000
  O   O21       1.0  0.7882733628658085  0.7571184833638184  0.6531811876622131  1.0000
  O   O22       1.0  0.2885151050804922  0.41005231054961644  0.3471739525534759  1.0000
  O   O23       1.0  0.9067548212189606  0.8354614223760279  0.887866537434171  1.0000
  O   O24       1.0  0.4050420021309833  0.7229000619033455  0.11241638258238135  1.0000
  O   O25       1.0  0.6046676060029911  0.5859450687991197  0.8998152251123843  1.0000
  O   O26       1.0  0.10491129557308916  0.4855344868252587  0.10004922857930859  1.0000
