data_image0
_chemical_formula_structural       Zn2H22C18N6O8
_chemical_formula_sum              "Zn2 H22 C18 N6 O8"
_cell_length_a       5.086773699360427
_cell_length_b       11.405756068854958
_cell_length_c       11.545691831362822
_cell_angle_alpha    97.9982908576351
_cell_angle_beta     94.08330550586778
_cell_angle_gamma    105.38149929485257

_space_group_name_H-M_alt    "P 1"
_space_group_IT_number       1

loop_
  _space_group_symop_operation_xyz
  'x, y, z'

loop_
  _atom_site_type_symbol
  _atom_site_label
  _atom_site_symmetry_multiplicity
  _atom_site_fract_x
  _atom_site_fract_y
  _atom_site_fract_z
  _atom_site_occupancy
  Zn  Zn1       1.0  0.15276762282339001  0.2625324851419036  0.1542056241518566  1.0000
  Zn  Zn2       1.0  0.8472457439778649  0.7374668012048105  0.8457942919979473  1.0000
  H   H1        1.0  0.8673009019243237  0.29292559469229934  0.9719180323609251  1.0000
  H   H2        1.0  0.13271350195422837  0.7070829531150622  0.028085374483623585  1.0000
  H   H3        1.0  0.77579379133806  0.3563675934874837  0.09724948336236142  1.0000
  H   H4        1.0  0.2242203175911398  0.6436373163441118  0.9027544521157866  1.0000
  H   H5        1.0  0.3708191175789111  0.15305125607396522  0.9858985681905781  1.0000
  H   H6        1.0  0.6291815659301605  0.8469460207115559  0.01409862924447938  1.0000
  H   H7        1.0  0.4840657708404307  0.1329597349775966  0.11893113289566061  1.0000
  H   H8        1.0  0.5159323635315046  0.8670355665959589  0.8810622531664194  1.0000
  H   H9        1.0  0.7603531813201981  0.411742293691951  0.5391825968429488  1.0000
  H   H10       1.0  0.23963222444805876  0.5882642124847736  0.4608205302831294  1.0000
  H   H11       1.0  0.4383374370094089  0.27646635522914653  0.652527288600794  1.0000
  H   H12       1.0  0.5616345787155481  0.7235420082552083  0.3474794986079246  1.0000
  H   H13       1.0  0.9841999648707829  0.1382821208847886  0.5498071775123208  1.0000
  H   H14       1.0  0.01578321411999897  0.8617159695190042  0.4501907206301611  1.0000
  H   H15       1.0  0.2728857514451093  0.46794187366455026  0.9892115570720392  1.0000
  H   H16       1.0  0.7271277401750709  0.5320658387522315  0.010794324650333904  1.0000
  H   H17       1.0  0.16400085001108505  0.5265148059207333  0.12305555831485288  1.0000
  H   H18       1.0  0.8360139565218246  0.47349203219670255  0.8769511982674986  1.0000
  H   H19       1.0  0.06034071182211421  0.9816946744579839  0.12764714035154162  1.0000
  H   H20       1.0  0.9396497659909999  0.018300496634324804  0.8723440114931833  1.0000
  H   H21       1.0  0.2318156468227598  0.9386944561583518  0.005548772746962432  1.0000
  H   H22       1.0  0.7681736858144106  0.06130525582070589  0.9944418390330585  1.0000
  C   C1        1.0  0.7981575860799166  0.12272684502168117  0.31054578627868784  1.0000
  C   C2        1.0  0.20181854490729015  0.877265652788644  0.6894503023023546  1.0000
  C   C3        1.0  0.06265985812790117  0.20070715577621456  0.385101520440756  1.0000
  C   C4        1.0  0.93733515471574  0.7992842136878978  0.6148843697152699  1.0000
  C   C5        1.0  0.48278837707567135  0.34743647105438674  0.37840380653123873  1.0000
  C   C6        1.0  0.5172191314221807  0.6525563770111448  0.6215960383459844  1.0000
  C   C7        1.0  0.5620970130611622  0.3517367076898025  0.4974580213170796  1.0000
  C   C8        1.0  0.4378796994326919  0.6482592587905885  0.502559262623187  1.0000
  C   C9        1.0  0.38059322234409615  0.27604007281340864  0.5597008001377688  1.0000
  C   C10       1.0  0.6193842943414084  0.7239632244777  0.44029024882698314  1.0000
  C   C11       1.0  0.12851424589879906  0.19923573810606848  0.5041800194280697  1.0000
  C   C12       1.0  0.8714784324304503  0.8007598701780694  0.49582347410067473  1.0000
  C   C13       1.0  0.6587792936881414  0.4171786189684497  0.2950443794984068  1.0000
  C   C14       1.0  0.3412207995285926  0.5828198365472305  0.7049607042052983  1.0000
  C   C15       1.0  0.09242815150315659  0.47158747158893277  0.034866834827347794  1.0000
  C   C16       1.0  0.9075855011000443  0.5284212478882112  0.9651417525904407  1.0000
  C   C17       1.0  0.1240481684717025  0.004471628363525299  0.04258606401946001  1.0000
  C   C18       1.0  0.8759501356370264  0.9955273397974341  0.9574076568378872  1.0000
  N   N1        1.0  0.23936265557077263  0.2738331949538805  0.32732755881693265  1.0000
  N   N2        1.0  0.760642133659509  0.7261624659939727  0.6726749688934747  1.0000
  N   N3        1.0  0.9427277338126459  0.34645589318338915  0.05230311567054708  1.0000
  N   N4        1.0  0.057286956261485465  0.6535536330727041  0.9477021334405364  1.0000
  N   N5        1.0  0.3078659202595162  0.13095418639093026  0.0642704142484618  1.0000
  N   N6        1.0  0.6921352640997963  0.869042975948069  0.9357233294711094  1.0000
  O   O1        1.0  0.7836583549113242  0.1395398189893484  0.20052823288591526  1.0000
  O   O2        1.0  0.21634200663172024  0.8604554436754485  0.7994635531583256  1.0000
  O   O3        1.0  0.5439137448053941  0.3992323906458779  0.1867649464797125  1.0000
  O   O4        1.0  0.4561011869400744  0.6007744188599276  0.8132409466737726  1.0000
  O   O5        1.0  0.620784209527578  0.0513492609998991  0.35487627352782175  1.0000
  O   O6        1.0  0.3792319302128817  0.9486451125088635  0.6451129581113477  1.0000
  O   O7        1.0  0.8959429766857595  0.4820504091993952  0.3306139434224207  1.0000
  O   O8        1.0  0.10405277864755651  0.5179454359951521  0.6693958477882376  1.0000
