data_image0
_chemical_formula_structural       Cd2H44C28N4O12
_chemical_formula_sum              "Cd2 H44 C28 N4 O12"
_cell_length_a       9.244890028224901
_cell_length_b       10.326760393905037
_cell_length_c       10.607089239625115
_cell_angle_alpha    114.86393806212115
_cell_angle_beta     100.95118535960951
_cell_angle_gamma    107.10576219715595

_space_group_name_H-M_alt    "P 1"
_space_group_IT_number       1

loop_
  _space_group_symop_operation_xyz
  'x, y, z'

loop_
  _atom_site_type_symbol
  _atom_site_label
  _atom_site_symmetry_multiplicity
  _atom_site_fract_x
  _atom_site_fract_y
  _atom_site_fract_z
  _atom_site_occupancy
  Cd  Cd1       1.0  0.1881904844786106  0.4563482287025523  0.3617216532942179  1.0000
  Cd  Cd2       1.0  0.8118105332266764  0.5436535915962608  0.6382798979682601  1.0000
  H   H1        1.0  0.8828703200468978  0.30217527939234395  0.3471382980843172  1.0000
  H   H2        1.0  0.11712968677462507  0.6978241870170124  0.6528611826539502  1.0000
  H   H3        1.0  0.9885210366844533  0.30826717226690203  0.4819664457139508  1.0000
  H   H4        1.0  0.011480073276779164  0.6917322973881145  0.5180332218059148  1.0000
  H   H5        1.0  0.5023720787342472  0.6159340654253428  0.3825959655742181  1.0000
  H   H6        1.0  0.4976290336474919  0.3840654022531923  0.6174027587771531  1.0000
  H   H7        1.0  0.44110665959200196  0.7503880836031841  0.46187961530311095  1.0000
  H   H8        1.0  0.5588949594418793  0.24961256003183513  0.538119672726104  1.0000
  H   H9        1.0  0.08618472285113653  0.22007757641922862  0.013805881900559286  1.0000
  H   H10       1.0  0.913812890758557  0.7799265867628976  0.986197935928217  1.0000
  H   H11       1.0  0.12301083493906637  0.9832882455552652  0.8402846906072408  1.0000
  H   H12       1.0  0.876983556666424  0.016713561199054507  0.15971856947112426  1.0000
  H   H13       1.0  0.3010283412783751  0.8894035675449815  0.9502649897445106  1.0000
  H   H14       1.0  0.6989661474240805  0.11059588461258582  0.04973450025423175  1.0000
  H   H15       1.0  0.40043606070690174  0.27319551421315685  0.383025367325345  1.0000
  H   H16       1.0  0.5995682664175206  0.7268063158226141  0.6169767442819488  1.0000
  H   H17       1.0  0.4612261178227328  0.9051970103081077  0.16810142951938886  1.0000
  H   H18       1.0  0.5387732949317154  0.09480362683560631  0.8318974849466155  1.0000
  H   H19       1.0  0.6116200586430268  0.1007187591447547  0.2559458097025597  1.0000
  H   H20       1.0  0.38837884745928625  0.8992807020424751  0.7440525410856009  1.0000
  H   H21       1.0  0.3130113602065947  0.8304082606331562  0.3127832678540512  1.0000
  H   H22       1.0  0.6869892455230086  0.16959003108889453  0.6872148928194617  1.0000
  H   H23       1.0  0.2518715407689245  0.9877256671446448  0.35658881747625754  1.0000
  H   H24       1.0  0.7481279594004632  0.012272623308227502  0.6434100995841516  1.0000
  H   H25       1.0  0.74885270236814  0.10163040231960001  0.45993007685522236  1.0000
  H   H26       1.0  0.25114781110551837  0.8983702400462479  0.540069967560896  1.0000
  H   H27       1.0  0.613696004250542  0.8987699163059447  0.3751523323117424  1.0000
  H   H28       1.0  0.3863045116436226  0.10123072408342182  0.6248467689358745  1.0000
  H   H29       1.0  0.5389582673813252  0.4517047938042326  0.138932596475712  1.0000
  H   H30       1.0  0.46104394571962365  0.5482946790964365  0.861067257825766  1.0000
  H   H31       1.0  0.6116719941666064  0.30211695729772725  0.09818354051069633  1.0000
  H   H32       1.0  0.38833012909890396  0.6978848642702575  0.9018172543648784  1.0000
  H   H33       1.0  0.6409398507828074  0.47282082895598176  0.936548841772527  1.0000
  H   H34       1.0  0.3590613465933644  0.5271762940081789  0.06345082834174322  1.0000
  H   H35       1.0  0.7356571006808251  0.3439037431093794  0.9291261321194565  1.0000
  H   H36       1.0  0.2643435900432112  0.6560922038982967  0.07087297431696268  1.0000
  H   H37       1.0  0.8516152663376033  0.5347557322018164  0.9668921373622364  1.0000
  H   H38       1.0  0.14838321326598708  0.46524021226751  0.03310848184798219  1.0000
  H   H39       1.0  0.9272761076650012  0.7748690032569102  0.22779787619220557  1.0000
  H   H40       1.0  0.07272449806460202  0.22512928846513353  0.7722002844813074  1.0000
  H   H41       1.0  0.8354549993080838  0.747275283144518  0.35258813394737115  1.0000
  H   H42       1.0  0.16454560400101312  0.2527230105540071  0.6474109698946505  1.0000
  H   H43       1.0  0.7142735720918125  0.7157655950140057  0.18186500262434174  1.0000
  H   H44       1.0  0.2857265245651491  0.2842315227280282  0.8181335375398215  1.0000
  C   C1        1.0  0.1671575120168924  0.17670886622569534  0.054888610821528495  1.0000
  C   C2        1.0  0.8328401914282394  0.8232929482891082  0.9451142664331507  1.0000
  C   C3        1.0  0.18818579449406062  0.0469421684430458  0.9603443047358763  1.0000
  C   C4        1.0  0.811809705092152  0.9530596376039784  0.03965725578708409  1.0000
  C   C5        1.0  0.28901454517227887  0.9950538340186484  0.022255210915965145  1.0000
  C   C6        1.0  0.7109842710945955  0.004947975835904101  0.9777440804462925  1.0000
  C   C7        1.0  0.37062946646174316  0.0760407381718906  0.17669168449145892  1.0000
  C   C8        1.0  0.6293709571764695  0.9239622528612801  0.8233093004987634  1.0000
  C   C9        1.0  0.34227965255126247  0.20519100890463454  0.26251120230575237  1.0000
  C   C10       1.0  0.6577213627335183  0.7948108133706526  0.7374912921252271  1.0000
  C   C11       1.0  0.49010791831190664  0.02985979119997491  0.24546342376694938  1.0000
  C   C12       1.0  0.5098904811382711  0.9701384940307636  0.7545343633433529  1.0000
  C   C13       1.0  0.3485316526356144  0.9556035281989709  0.3929421407816276  1.0000
  C   C14       1.0  0.6514678499542796  0.04439476027742021  0.60705583311028  1.0000
  C   C15       1.0  0.6350120058150851  0.021030179036010607  0.45268014744515017  1.0000
  C   C16       1.0  0.364987496774809  0.9789681094403806  0.5473178264467574  1.0000
  C   C17       1.0  0.9384184369923715  0.5056366889742562  0.2177976773501838  1.0000
  C   C18       1.0  0.061584282760712476  0.4943639598828966  0.782202740629145  1.0000
  C   C19       1.0  0.7899833546298822  0.5287079739057179  0.15362014866212795  1.0000
  C   C20       1.0  0.21001986935483075  0.47129385288440073  0.8463817761635607  1.0000
  C   C21       1.0  0.642745238468521  0.4267664545779085  0.17259661734762216  1.0000
  C   C22       1.0  0.35725425928036003  0.573231837851438  0.8274032428812956  1.0000
  C   C23       1.0  0.6787476325523728  0.4597724356829789  0.3309507158911201  1.0000
  C   C24       1.0  0.3212518676170078  0.5402258547698936  0.669048201169289  1.0000
  C   C25       1.0  0.7521250991198585  0.46650537862831243  0.986816934602913  1.0000
  C   C26       1.0  0.24787338290424538  0.5334905638645324  0.013182741438804092  1.0000
  C   C27       1.0  0.8188452939039196  0.7019984384579275  0.23457907974434988  1.0000
  C   C28       1.0  0.1811553094051845  0.2979998552405974  0.7654200240976647  1.0000
  N   N1        1.0  0.24239661547361638  0.2535557577686447  0.20367807509508387  1.0000
  N   N2        1.0  0.7576049040427932  0.746447242439608  0.7963259261822625  1.0000
  N   N3        1.0  0.5015324785353387  0.05588267900459701  0.3950631433734201  1.0000
  N   N4        1.0  0.49846591849433974  0.944115608202623  0.6049355869053911  1.0000
  O   O1        1.0  0.04005135795016208  0.6116128076336552  0.34991003940175586  1.0000
  O   O2        1.0  0.9599497495905639  0.388386663997828  0.6500905712866183  1.0000
  O   O3        1.0  0.9537218424786361  0.38114734957667207  0.14130324946343353  1.0000
  O   O4        1.0  0.04628087969495443  0.6188532973040067  0.8586962253473868  1.0000
  O   O5        1.0  0.6508845053725522  0.5673788295628343  0.42440046614454713  1.0000
  O   O6        1.0  0.3491143958887477  0.4326206355773509  0.5755997709806235  1.0000
  O   O7        1.0  0.7436190752545498  0.382629224597217  0.3701003511254226  1.0000
  O   O8        1.0  0.25638203712719587  0.6173702430813179  0.6298983732259413  1.0000
  O   O9        1.0  0.9726933525236703  0.27383468761298974  0.3754685362460676  1.0000
  O   O10       1.0  0.027307757437562093  0.7261647820420196  0.6245311312738051  1.0000
  O   O11       1.0  0.40709978877119113  0.6435434105984188  0.37148982373247447  1.0000
  O   O12       1.0  0.5929002204708383  0.3564560538344637  0.6285087138372841  1.0000
