data_image0
_chemical_formula_structural       Co4H12C32Cl4O16
_chemical_formula_sum              "Co4 H12 C32 Cl4 O16"
_cell_length_a       4.824944369072547
_cell_length_b       12.886056130801048
_cell_length_c       13.818048010501744
_cell_angle_alpha    102.58928786978127
_cell_angle_beta     89.9994213856265
_cell_angle_gamma    90.00036757918573

_space_group_name_H-M_alt    "P 1"
_space_group_IT_number       1

loop_
  _space_group_symop_operation_xyz
  'x, y, z'

loop_
  _atom_site_type_symbol
  _atom_site_label
  _atom_site_symmetry_multiplicity
  _atom_site_fract_x
  _atom_site_fract_y
  _atom_site_fract_z
  _atom_site_occupancy
  Co  Co1       1.0  0.21834568238834606  0.39324632494670897  0.4384885716217822  1.0000
  Co  Co2       1.0  0.7183617061678261  0.1067579034997408  0.561509437625574  1.0000
  Co  Co3       1.0  0.781637213379831  0.606758738294431  0.5615139749094382  1.0000
  Co  Co4       1.0  0.2816543506085196  0.89324074819784  0.4384890044358301  1.0000
  H   H1        1.0  0.42192352476718037  0.22630426106798754  0.0269543273031232  1.0000
  H   H2        1.0  0.9218994384830169  0.2736859903875057  0.9730403327656988  1.0000
  H   H3        1.0  0.578078024049084  0.7736944162151216  0.9730455671793051  1.0000
  H   H4        1.0  0.0780896749654616  0.7263070703616422  0.026955607272363125  1.0000
  H   H5        1.0  0.17948594088218778  0.0593426930843322  0.0399807714715834  1.0000
  H   H6        1.0  0.6794547477976208  0.44064562184469475  0.9600172676867089  1.0000
  H   H7        1.0  0.8205218256337544  0.940654368512476  0.9600173706977697  1.0000
  H   H8        1.0  0.3205343655771102  0.5593491313881314  0.039984781848083545  1.0000
  H   H9        1.0  0.2021676309833538  0.9963816423786512  0.1989844332283965  1.0000
  H   H10       1.0  0.7021459342249939  0.5036129050657719  0.8010157216403044  1.0000
  H   H11       1.0  0.7978422080906569  0.003614624172868695  0.8010135589850121  1.0000
  H   H12       1.0  0.2978431791872396  0.49638820854296023  0.19898752751563356  1.0000
  C   C1        1.0  0.7413137361458128  0.29065429011772176  0.3519887710237697  1.0000
  C   C2        1.0  0.24131957050226296  0.20934760364799132  0.6480094412358568  1.0000
  C   C3        1.0  0.25867744987542096  0.7093475673448425  0.6480117232857836  1.0000
  C   C4        1.0  0.7586902685941651  0.7906542410311559  0.3519903268449839  1.0000
  C   C5        1.0  0.5883343693506119  0.22168232806014743  0.2669123439839396  1.0000
  C   C6        1.0  0.08833271525769959  0.27831613461024324  0.7330857569935034  1.0000
  C   C7        1.0  0.4116568166659392  0.7783187343554304  0.7330880003729732  1.0000
  C   C8        1.0  0.9116771238584959  0.7216872873641691  0.2669135847936985  1.0000
  C   C9        1.0  0.5741451192496213  0.2552420438758602  0.17716028469185116  1.0000
  C   C10       1.0  0.0741382184275565  0.24475557487404836  0.8228362592546787  1.0000
  C   C11       1.0  0.4258564295713328  0.7447574284542355  0.822839759743225  1.0000
  C   C12       1.0  0.9258674755594568  0.7552454491572862  0.17716190648227584  1.0000
  C   C13       1.0  0.4283907555225355  0.19795820688717214  0.0956446981414416  1.0000
  C   C14       1.0  0.9283795072583986  0.3020360688168182  0.904352869614776  1.0000
  C   C15       1.0  0.5716066481786085  0.8020404575938258  0.9043544701486824  1.0000
  C   C16       1.0  0.0716199689904258  0.6979618134176064  0.095646874918323  1.0000
  C   C17       1.0  0.2934079687801087  0.10447702788678734  0.1034929896026  1.0000
  C   C18       1.0  0.7933902693379268  0.39551546193029447  0.896506161703563  1.0000
  C   C19       1.0  0.7065956526046192  0.895520841552319  0.89650602872495  1.0000
  C   C20       1.0  0.20660713432634736  0.6044840487925428  0.1034960613349227  1.0000
  C   C21       1.0  0.3067018804928736  0.0689461556129487  0.19146623553321968  1.0000
  C   C22       1.0  0.8066852652509126  0.4310471254579086  0.808531570873903  1.0000
  C   C23       1.0  0.6933058860324407  0.9310524960778324  0.8085322065414218  1.0000
  C   C24       1.0  0.1933142109968955  0.568952359669197  0.1914691997634108  1.0000
  C   C25       1.0  0.4547878781696752  0.1262337536972851  0.2729253483611558  1.0000
  C   C26       1.0  0.9547767756998908  0.3737637710860823  0.7270741873080481  1.0000
  C   C27       1.0  0.5452136706512789  0.8737657186328107  0.7270746960739203  1.0000
  C   C28       1.0  0.045226845670384805  0.6262405227224903  0.2729296616353026  1.0000
  C   C29       1.0  0.4711842988006794  0.08286187303872344  0.36435085488965063  1.0000
  C   C30       1.0  0.9711765881185314  0.4171364864848713  0.6356495045662243  1.0000
  C   C31       1.0  0.5288172500119189  0.9171344063047114  0.6356478635359222  1.0000
  C   C32       1.0  0.0288228881392811  0.5828717953539595  0.3643558203458852  1.0000
  Cl  Cl1       1.0  0.7423699829671406  0.3712570129845433  0.16594922957367692  1.0000
  Cl  Cl2       1.0  0.24236904745374233  0.1287416639238756  0.8340462009164327  1.0000
  Cl  Cl3       1.0  0.2576232756235726  0.6287424337413299  0.834049362476776  1.0000
  Cl  Cl4       1.0  0.7576283562936509  0.8712577444092561  0.1659502125306105  1.0000
  O   O1        1.0  0.0037984733994420997  0.283577886670912  0.3494032445946331  1.0000
  O   O2        1.0  0.5038117398060321  0.21642596429729372  0.6505939973832754  1.0000
  O   O3        1.0  0.9961844223791302  0.7164271637715202  0.6505985757376606  1.0000
  O   O4        1.0  0.4962043170353069  0.7835766114403742  0.3494022896456315  1.0000
  O   O5        1.0  0.6129947914986218  0.35841977625214133  0.4177656809586594  1.0000
  O   O6        1.0  0.11300757699028448  0.14158029137215777  0.5822311887538305  1.0000
  O   O7        1.0  0.38698810425081115  0.6415821068010459  0.582236265761992  1.0000
  O   O8        1.0  0.8870043346096138  0.8584168214228995  0.4177698582046289  1.0000
  O   O9        1.0  0.6514780190079746  0.12359838580825058  0.4292099114797523  1.0000
  O   O10       1.0  0.15146616924967302  0.3764025399591162  0.5707869853343581  1.0000
  O   O11       1.0  0.3485338926636387  0.8764002402885039  0.5707870781904134  1.0000
  O   O12       1.0  0.8485312344635005  0.623601715448217  0.42921468502213134  1.0000
  O   O13       1.0  0.3072106876480021  0.0071435644259807  0.3701065629124329  1.0000
  O   O14       1.0  0.8072044492225174  0.4928585269983118  0.6298965223270513  1.0000
  O   O15       1.0  0.6927991514494422  0.9928566773604788  0.6298921790641856  1.0000
  O   O16       1.0  0.19280538983298362  0.5071505754934265  0.3701104049190178  1.0000
