data_image0
_chemical_formula_structural       Sm4H48C32N4O44
_chemical_formula_sum              "Sm4 H48 C32 N4 O44"
_cell_length_a       6.614021772
_cell_length_b       12.289369875
_cell_length_c       17.704
_cell_angle_alpha    90.0
_cell_angle_beta     90.0
_cell_angle_gamma    90.0

_space_group_name_H-M_alt    "P 1"
_space_group_IT_number       1

loop_
  _space_group_symop_operation_xyz
  'x, y, z'

loop_
  _atom_site_type_symbol
  _atom_site_label
  _atom_site_symmetry_multiplicity
  _atom_site_fract_x
  _atom_site_fract_y
  _atom_site_fract_z
  _atom_site_occupancy
  Sm  Sm1       1.0  0.5162864770805627  0.9737472402343172  0.3774971757794816  1.0000
  Sm  Sm2       1.0  0.4837117430643972  0.026255211071188  0.8774960460912808  1.0000
  Sm  Sm3       1.0  0.0162881229777696  0.5262482996102378  0.3774932218707647  1.0000
  Sm  Sm4       1.0  0.9837131210459519  0.47375089684978633  0.8774960460912808  1.0000
  H   H1        1.0  0.8428336331760137  0.0771048483069592  0.2782924762765475  1.0000
  H   H2        1.0  0.15716156309017756  0.9228992304212866  0.7782936059647554  1.0000
  H   H3        1.0  0.34285039846705706  0.422893936211679  0.2782919114324471  1.0000
  H   H4        1.0  0.65716445301112  0.577109328805193  0.7782953004970636  1.0000
  H   H5        1.0  0.9861050091505492  0.0212663466604326  0.3378462494351524  1.0000
  H   H6        1.0  0.013891699055022903  0.9787418006246611  0.8378462494351595  1.0000
  H   H7        1.0  0.4861081669871439  0.4787413886832823  0.337845684591052  1.0000
  H   H8        1.0  0.5138915650971968  0.5212683860245519  0.8378473791233603  1.0000
  H   H9        1.0  0.7764715897581738  0.1526555078968173  0.4451751016719356  1.0000
  H   H10       1.0  0.22352511844740525  0.8473420611404592  0.9451717126073191  1.0000
  H   H11       1.0  0.2764717237159999  0.3473375806422325  0.445172842295527  1.0000
  H   H12       1.0  0.7235234725501911  0.6526648706632726  0.9451728422955269  1.0000
  H   H13       1.0  0.5596095881735793  0.2000379209841299  0.45703400361499996  1.0000
  H   H14       1.0  0.440394679728911  0.7999653440327421  0.9570317442385914  1.0000
  H   H15       1.0  0.059606698252643815  0.2999592361117678  0.4570345684591075  1.0000
  H   H16       1.0  0.9403930338317039  0.7000432151937303  0.9570317442385914  1.0000
  H   H17       1.0  0.7914397896542058  0.8568901503585024  0.47684195661997103  1.0000
  H   H18       1.0  0.2085659901876724  0.1431106735242622  0.9768430863081788  1.0000
  H   H19       1.0  0.2914293400363519  0.6431029483519382  0.4768402620876627  1.0000
  H   H20       1.0  0.7085658562298391  0.35689706181945274  0.9768413917758706  1.0000
  H   H21       1.0  0.8491716830713827  0.9745544419135682  0.5116956619972868  1.0000
  H   H22       1.0  0.1508325848311074  0.0254455682578296  0.0116950971531864  1.0000
  H   H23       1.0  0.349170305089828  0.52544028421962  0.5116922729326703  1.0000
  H   H24       1.0  0.650826403115744  0.4745605396631447  0.011694532309086  1.0000
  H   H25       1.0  0.2155708053511347  0.9262858971440976  0.499089471305922  1.0000
  H   H26       1.0  0.7844213670362877  0.0737132993159264  0.999089471305922  1.0000
  H   H27       1.0  0.7155782310902268  0.5737202209482675  0.499085517397198  1.0000
  H   H28       1.0  0.2844290606910321  0.4263025731414913  0.9990928603705383  1.0000
  H   H29       1.0  0.4105111978152678  0.944211144918448  0.5521565747853572  1.0000
  H   H30       1.0  0.5894824865115353  0.0557847966960949  0.0521571396294647  1.0000
  H   H31       1.0  0.9105140877362106  0.555784394926107  0.5521537505648411  1.0000
  H   H32       1.0  0.08947506077245043  0.44421642895665775  0.0521548802530489  1.0000
  H   H33       1.0  0.2310606243344537  0.171732157260017  0.3532472887483067  1.0000
  H   H34       1.0  0.7689360838711183  0.8282645980658927  0.8532455942159984  1.0000
  H   H35       1.0  0.7310680500735458  0.3282576764335516  0.3532467239041992  1.0000
  H   H36       1.0  0.2689331939501827  0.6717407063150986  0.8532461590600988  1.0000
  H   H37       1.0  0.1431337894906477  0.1274743958343123  0.4301299141436985  1.0000
  H   H38       1.0  0.8568659425936929  0.8725264280484525  0.9301265250790749  1.0000
  H   H39       1.0  0.643139703290352  0.3725219475502186  0.4301265250790749  1.0000
  H   H40       1.0  0.3568615407333766  0.6274813174666534  0.9301282196113901  1.0000
  H   H41       1.0  0.5102946613039947  0.8773029137915813  0.0700112968820576  1.0000
  H   H42       1.0  0.4897126304772642  0.12269709637980951  0.5700073429733408  1.0000
  H   H43       1.0  0.0102902594436785  0.6226975083211883  0.070005083596925  1.0000
  H   H44       1.0  0.9897124965194308  0.3772992470047214  0.5700107320379573  1.0000
  H   H45       1.0  0.5902505517183202  0.5934860838420306  0.2109709670131039  1.0000
  H   H46       1.0  0.4097506923054014  0.4065106714838791  0.7109670131043799  1.0000
  H   H47       1.0  0.0902552214943029  0.9065102697138911  0.2109675779484874  1.0000
  H   H48       1.0  0.9097596299838743  0.0934864856120186  0.7109715318572043  1.0000
  C   C1        1.0  0.4965692755811518  0.0257238575464385  0.1919696113872575  1.0000
  C   C2        1.0  0.5034138251699717  0.9742712703567307  0.6919701762313579  1.0000
  C   C3        1.0  0.9965736774414751  0.474274113260833  0.1919656574785336  1.0000
  C   C4        1.0  0.0034245427034847007  0.5257267106219317  0.6919684816990497  1.0000
  C   C5        1.0  0.5300844358938122  0.9027598740085949  0.1903801400813379  1.0000
  C   C6        1.0  0.46992436782683467  0.0972409498741698  0.6903767510167214  1.0000
  C   C7        1.0  0.0300770101547201  0.5972421755269224  0.1903750564844131  1.0000
  C   C8        1.0  0.9699151622327022  0.4027602757785829  0.6903784455490296  1.0000
  C   C9        1.0  0.5277545373039345  0.8386857995841696  0.1248983280614553  1.0000
  C   C10       1.0  0.4722512425379436  0.1613223477009242  0.624892679620423  1.0000
  C   C11       1.0  0.027750135443611205  0.6613138088172335  0.1248932444645305  1.0000
  C   C12       1.0  0.9722571563376476  0.3386748093949805  0.6248971983732474  1.0000
  C   C13       1.0  0.5443798227642134  0.725553066649809  0.1320509489380939  1.0000
  C   C14       1.0  0.4556214212595151  0.2744510120784369  0.6320475598734774  1.0000
  C   C15       1.0  0.0443799567220395  0.7744457280402274  0.1320475598734774  1.0000
  C   C16       1.0  0.9556364066955184  0.2255461450174607  0.6320515137821943  1.0000
  C   C17       1.0  0.5399649597645748  0.6478241017218949  0.0658738138273804  1.0000
  C   C18       1.0  0.4600347723197659  0.3521775358722365  0.5658721192950722  1.0000
  C   C19       1.0  0.0399711414799384  0.8521771341022486  0.0658721192950722  1.0000
  C   C20       1.0  0.9600376622407013  0.1478220623577755  0.5658755083596958  1.0000
  C   C21       1.0  0.5743751881922279  0.6808925180958454  0.2038776547672825  1.0000
  C   C22       1.0  0.4256305916496431  0.3191042372300643  0.70387821961139  1.0000
  C   C23       1.0  0.07437381021067321  0.819104649171443  0.203874265702666  1.0000
  C   C24       1.0  0.9256380173887353  0.1808937335772072  0.7038821735201068  1.0000
  C   C25       1.0  0.5845172775763245  0.7503924199368299  0.2657213059195698  1.0000
  C   C26       1.0  0.4154915261443151  0.2496051491004536  0.7657184816990537  1.0000
  C   C27       1.0  0.0845053160190901  0.7496014924849845  0.2657139629462293  1.0000
  C   C28       1.0  0.915491392186482  0.2503936354181846  0.7657235652959784  1.0000
  C   C29       1.0  0.6296395965356398  0.7120828886273571  0.3451440352462711  1.0000
  C   C30       1.0  0.370361647488089  0.287916307832667  0.8451400813375542  1.0000
  C   C31       1.0  0.1296412424328466  0.7879126512171979  0.3451361274288303  1.0000
  C   C32       1.0  0.870358489651494  0.2120857315314524  0.8451434704021707  1.0000
  N   N1        1.0  0.5568639062532554  0.8580993254546314  0.258676005422501  1.0000
  N   N2        1.0  0.44314640940677213  0.1418966161599045  0.7586737460460924  1.0000
  N   N3        1.0  0.056857992453551304  0.6418970281012903  0.2586703569814759  1.0000
  N   N4        1.0  0.9431402276914085  0.3581029820701005  0.7586743108901928  1.0000
  O   O1        1.0  0.4679633824465128  0.0659366597508324  0.2580467690917274  1.0000
  O   O2        1.0  0.5320151824864611  0.9340568407295962  0.7580450745594192  1.0000
  O   O3        1.0  0.9679768559431353  0.4340564287882174  0.2580405558065948  1.0000
  O   O4        1.0  0.0320213642018246  0.5659411402490662  0.7580450745594192  1.0000
  O   O5        1.0  0.4985393325977726  0.0791082057004147  0.1316645955716211  1.0000
  O   O6        1.0  0.5014558636684185  0.9208869222027545  0.6316600768187968  1.0000
  O   O7        1.0  0.9985195434279535  0.42088732397274237  0.1316578174423881  1.0000
  O   O8        1.0  0.0014620453837821  0.57910699021906  0.6316589471305889  1.0000
  O   O9        1.0  0.5970300879136587  0.779933397520921  0.3978072751920436  1.0000
  O   O10       1.0  0.40296964417068193  0.22006254409362214  0.8978021915951189  1.0000
  O   O11       1.0  0.09702568605333543  0.7200613286122604  0.3978016267510185  1.0000
  O   O12       1.0  0.9029710221522366  0.2799427501159784  0.8978067103479432  1.0000
  O   O13       1.0  0.7004331342863352  0.6171724081174688  0.3533517849073675  1.0000
  O   O14       1.0  0.2995681097373932  0.3828259746311886  0.8533472661545431  1.0000
  O   O15       1.0  0.2004317563047806  0.8828190631702313  0.3533495255309518  1.0000
  O   O16       1.0  0.7995679757795601  0.1171776921556784  0.8533534794396758  1.0000
  O   O17       1.0  0.5672993118777399  0.5489288766320897  0.0799260054225002  1.0000
  O   O18       1.0  0.4326868127521522  0.4510670649824533  0.5799254405783998  1.0000
  O   O19       1.0  0.0673175891081712  0.95107154548068  0.0799254405783998  1.0000
  O   O20       1.0  0.9326912146124684  0.0489300921134515  0.5799288296430163  1.0000
  O   O21       1.0  0.51495445848375  0.6873493178184589  0.9988268187980082  1.0000
  O   O22       1.0  0.4850467855399714  0.3126555746211537  0.4988245594215996  1.0000
  O   O23       1.0  0.014960640199113603  0.8126616825421279  0.9988234297333918  1.0000
  O   O24       1.0  0.9850436277033766  0.1873383276292699  0.4988268187980083  1.0000
  O   O25       1.0  0.8518221128105454  0.0170838702175544  0.313901943063712  1.0000
  O   O26       1.0  0.14817308345564584  0.9829210222220581  0.8139025079078195  1.0000
  O   O27       1.0  0.3518252706471402  0.4829149143010909  0.3139013782196116  1.0000
  O   O28       1.0  0.6481729494978128  0.517085095870307  0.813901943063712  1.0000
  O   O29       1.0  0.6371630069076206  0.1485926470253602  0.4243103253502056  1.0000
  O   O30       1.0  0.3628367251767202  0.8514081768573973  0.9243052417532737  1.0000
  O   O31       1.0  0.1371616289260658  0.3514028826477968  0.4243086308178974  1.0000
  O   O32       1.0  0.8628335673401254  0.6485979412349678  0.9243052417532737  1.0000
  O   O33       1.0  0.7995951906884644  0.9344433536304493  0.46555072300045447  1.0000
  O   O34       1.0  0.2004121010927946  0.0655582839636821  0.965550158156347  1.0000
  O   O35       1.0  0.2995892768887601  0.5655513725027319  0.4655473339358309  1.0000
  O   O36       1.0  0.700407431316812  0.4344502650913995  0.9655484636240388  1.0000
  O   O37       1.0  0.3513535455595119  0.9567097515648654  0.4997396068685021  1.0000
  O   O38       1.0  0.6486386268279105  0.0432894448951586  0.999739606868502  1.0000
  O   O39       1.0  0.8513549235410667  0.5432890431251636  0.4997373474920934  1.0000
  O   O40       1.0  0.1486372488463559  0.4567150356030751  0.9997384771803013  1.0000
  O   O41       1.0  0.2146984163268968  0.1055562663663423  0.3829795526434694  1.0000
  O   O42       1.0  0.7852967799392943  0.8944413026709412  0.8829767284229533  1.0000
  O   O43       1.0  0.7147058420659819  0.3944343810385931  0.3829767284229533  1.0000
  O   O44       1.0  0.28529993777589624  0.6055648154214239  0.8829778581111611  1.0000
