data_image0
_chemical_formula_structural       Gd4Ag12H24C56N8O44
_chemical_formula_sum              "Gd4 Ag12 H24 C56 N8 O44"
_cell_length_a       8.035586913000586
_cell_length_b       13.916096917001854
_cell_length_c       14.612918003002594
_cell_angle_alpha    90.00005532541651
_cell_angle_beta     89.99996045939096
_cell_angle_gamma    89.999979749691

_space_group_name_H-M_alt    "P 1"
_space_group_IT_number       1

loop_
  _space_group_symop_operation_xyz
  'x, y, z'

loop_
  _atom_site_type_symbol
  _atom_site_label
  _atom_site_symmetry_multiplicity
  _atom_site_fract_x
  _atom_site_fract_y
  _atom_site_fract_z
  _atom_site_occupancy
  Gd  Gd1       1.0  0.9690688322217867  0.7500005562532763  0.2500001971910137  1.0000
  Gd  Gd2       1.0  0.5309312589348778  0.7499994159733986  0.7500003477035548  1.0000
  Gd  Gd3       1.0  0.03093184663296  0.2500000733055714  0.750000211625519  1.0000
  Gd  Gd4       1.0  0.4690694199203235  0.2499997764008626  0.2500000611123099  1.0000
  Ag  Ag1       1.0  0.5560151223205452  0.8235426502960195  0.0145962639685138  1.0000
  Ag  Ag2       1.0  0.9439811890966467  0.8235431041164741  0.9854050328725562  1.0000
  Ag  Ag3       1.0  0.9439840231825231  0.676457083213165  0.5145968762320194  1.0000
  Ag  Ag4       1.0  0.5560173587841889  0.6764563882366872  0.48540496969422964  1.0000
  Ag  Ag5       1.0  0.44398182314214557  0.1764565420786184  0.9854041448480473  1.0000
  Ag  Ag6       1.0  0.056015756365383106  0.17645680685080123  0.0145960602703639  1.0000
  Ag  Ag7       1.0  0.05601416674453929  0.323542827753286  0.4854028482586229  1.0000
  Ag  Ag8       1.0  0.4439820756061792  0.3235435227303327  0.5145961234482215  1.0000
  Ag  Ag9       1.0  0.24999886518045858  0.9441900077207066  3.8717945469999997e-07  1.0000
  Ag  Ag10      1.0  0.24999742575573689  0.5558090914171174  0.5000009612852523  1.0000
  Ag  Ag11      1.0  0.7500018136751763  0.0558091846532136  0.9999993373103919  1.0000
  Ag  Ag12      1.0  0.7500007641698047  0.4441915381426682  0.5000008161837783  1.0000
  H   H1        1.0  0.27345049559075824  0.7674855677156455  0.5554909980863342  1.0000
  H   H2        1.0  0.2265504448449533  0.7674855160876459  0.44450906613308655  1.0000
  H   H3        1.0  0.2265494583009158  0.7325143062855515  0.05549092247643729  1.0000
  H   H4        1.0  0.27344901524531917  0.7325140338158177  0.9445091095886511  1.0000
  H   H5        1.0  0.7265489388000433  0.23251434325103296  0.44450941073009187  1.0000
  H   H6        1.0  0.7734489895458481  0.2325143948790326  0.5554913426833394  1.0000
  H   H7        1.0  0.7734499760901129  0.26748488608883036  0.9445094863396618  1.0000
  H   H8        1.0  0.7265504191457098  0.26748515855856436  0.055491299227448096  1.0000
  H   H9        1.0  0.6144079485284593  0.4719879184008989  0.0655859073818021  1.0000
  H   H10       1.0  0.8855935622944956  0.47198617630104417  0.9344157505426336  1.0000
  H   H11       1.0  0.8855926918133362  0.028013082457761098  0.5655857207359674  1.0000
  H   H12       1.0  0.6144066098731145  0.028012324210145302  0.434414844646021  1.0000
  H   H13       1.0  0.38559148586300307  0.528011273973135  0.934413817108279  1.0000
  H   H14       1.0  0.1144071165600664  0.5280122974816166  0.0655860269249402  1.0000
  H   H15       1.0  0.11440798704120433  0.9719868285091379  0.4344153724062494  1.0000
  H   H16       1.0  0.38559282451900867  0.9719861495712506  0.5655841955177081  1.0000
  H   H17       1.0  0.9008026046200398  0.35437744061930226  0.2905559252940506  1.0000
  H   H18       1.0  0.5991977358563646  0.3543762456935369  0.7094456244926803  1.0000
  H   H19       1.0  0.5991989946203446  0.1456230697834044  0.790554585574192  1.0000
  H   H20       1.0  0.9008002329486899  0.14562346386568237  0.2094454036200446  1.0000
  H   H21       1.0  0.0991980742338399  0.6456231889402416  0.7094458521745182  1.0000
  H   H22       1.0  0.40080045407049175  0.6456229466809731  0.2905547843236532  1.0000
  H   H23       1.0  0.4008016842350628  0.8543768411827981  0.2094451389159815  1.0000
  H   H24       1.0  0.09919920144321279  0.8543757285080104  0.7905536365440111  1.0000
  C   C1        1.0  0.6932919585426094  0.6610955530621464  0.1053241071092472  1.0000
  C   C2        1.0  0.8067081886410534  0.6610952234716547  0.8946770403670571  1.0000
  C   C3        1.0  0.8067095607231565  0.8389049910439039  0.6053242359094071  1.0000
  C   C4        1.0  0.6932917188695883  0.8389048954685022  0.3946770750555402  1.0000
  C   C5        1.0  0.3067099647758554  0.33890651368116653  0.8946763017077045  1.0000
  C   C6        1.0  0.19329373467809324  0.3389046874947751  0.1053233684489001  1.0000
  C   C7        1.0  0.19329111813202363  0.1610956385145954  0.39467548858110035  1.0000
  C   C8        1.0  0.3067077155214406  0.16109429690587965  0.6053233337605588  1.0000
  C   C9        1.0  0.754142523616622  0.5703905385986301  0.14950208879092486  1.0000
  C   C10       1.0  0.7458564362647239  0.57038945766746  0.8504996596116143  1.0000
  C   C11       1.0  0.745858939572024  0.9296100503070335  0.6495016394927049  1.0000
  C   C12       1.0  0.7541410383953604  0.9296098978806951  0.3504983862201385  1.0000
  C   C13       1.0  0.24586064416733683  0.4296100909592793  0.8504969513730956  1.0000
  C   C14       1.0  0.2541454870546502  0.4296097347066806  0.14950074920402298  1.0000
  C   C15       1.0  0.2541417392833837  0.07038986065916929  0.3504980849974686  1.0000
  C   C16       1.0  0.24585839599610895  0.0703892944933386  0.6495013382699426  1.0000
  C   C17       1.0  0.7005721200530886  0.479880956545699  0.1226333647533053  1.0000
  C   C18       1.0  0.7994293857957047  0.47987917365961147  0.8773683004284436  1.0000
  C   C19       1.0  0.7994296923392313  0.0201208207556931  0.6226332031745443  1.0000
  C   C20       1.0  0.7005708587848716  0.0201207061856081  0.377367354950877  1.0000
  C   C21       1.0  0.2994273143376986  0.5201203916052178  0.8773663597377634  1.0000
  C   C22       1.0  0.20057253752300144  0.5201207373071668  0.1226327927135387  1.0000
  C   C23       1.0  0.20057223097902724  0.9798805273956787  0.3773678899680917  1.0000
  C   C24       1.0  0.2994298200705359  0.9798792047806016  0.6226323695392965  1.0000
  C   C25       1.0  0.7484093154409593  0.39840626533484164  0.1746099324296182  1.0000
  C   C26       1.0  0.7515934862175584  0.3984058763980868  0.8253902891877444  1.0000
  C   C27       1.0  0.7515911865111349  0.10159484608234948  0.6746091793835376  1.0000
  C   C28       1.0  0.7484080688045438  0.10159466933029651  0.32539076932822997  1.0000
  C   C29       1.0  0.2515901189493874  0.6015950828164236  0.8253904763874756  1.0000
  C   C30       1.0  0.2484084371013608  0.6015947531606401  0.1746101196285537  1.0000
  C   C31       1.0  0.24840949234404522  0.89840578347615  0.3253905451069699  1.0000
  C   C32       1.0  0.2515913655869256  0.8984045230437443  0.674608955161851  1.0000
  C   C33       1.0  0.8596295151433112  0.4146227641644487  0.2486786299933499  1.0000
  C   C34       1.0  0.640373276295854  0.41462160355051464  0.7513216065340843  1.0000
  C   C35       1.0  0.6403696483254465  0.0853777037719894  0.7486779037607789  1.0000
  C   C36       1.0  0.8596271282816943  0.08537814847427677  0.2513220300407113  1.0000
  C   C37       1.0  0.1403686747826569  0.5853778653949888  0.7513224631496627  1.0000
  C   C38       1.0  0.3596298914881189  0.5853775888231566  0.24867811795529343  1.0000
  C   C39       1.0  0.3596322749932668  0.9146222071947891  0.2513231893812033  1.0000
  C   C40       1.0  0.1403685727178967  0.9146217624917268  0.7486763257983569  1.0000
  C   C41       1.0  0.9076707675745013  0.5078457480447794  0.2691961265350713  1.0000
  C   C42       1.0  0.592330720651198  0.5078445761393124  0.7308048800334676  1.0000
  C   C43       1.0  0.5923280547523078  0.9921542436475832  0.7691951080142516  1.0000
  C   C44       1.0  0.9076693948718101  0.9921546580291505  0.230804290880215  1.0000
  C   C45       1.0  0.0923274223514738  0.4921548815146579  0.7308049666079413  1.0000
  C   C46       1.0  0.40767244713300227  0.492153897642062  0.2691948444555763  1.0000
  C   C47       1.0  0.4076713796393605  0.0078456673183993  0.2308039321501383  1.0000
  C   C48       1.0  0.09232879505614731  0.007843815752373499  0.7691947492837485  1.0000
  C   C49       1.0  0.0163817370543811  0.5337482542549522  0.3483652984142722  1.0000
  C   C50       1.0  0.4836205951460784  0.5337469245730375  0.6516352352181087  1.0000
  C   C51       1.0  0.48361908954107247  0.9662519167428198  0.8483641092857253  1.0000
  C   C52       1.0  0.0163804811691861  0.9662523283332689  0.1516347690399229  1.0000
  C   C53       1.0  0.9836164528718142  0.46625165671219543  0.6516357947284064  1.0000
  C   C54       1.0  0.5163788392451778  0.4662515492090549  0.3483651735976636  1.0000
  C   C55       1.0  0.5163815893154365  0.0337472756304038  0.151634246552085  1.0000
  C   C56       1.0  0.9836189532222763  0.0337468640407721  0.8483649554501581  1.0000
  N   N1        1.0  0.856173601924212  0.5851130837077532  0.2211010547896421  1.0000
  N   N2        1.0  0.6438265931436434  0.5851119503758682  0.7789000228234142  1.0000
  N   N3        1.0  0.6438265259160474  0.9148868592126574  0.7211006302312839  1.0000
  N   N4        1.0  0.8561734613296466  0.914887332564774  0.2788993819444485  1.0000
  N   N5        1.0  0.14382583246592873  0.4148875458515633  0.7789000383531359  1.0000
  N   N6        1.0  0.3561765746403296  0.4148872419977962  0.22109970166596332  1.0000
  N   N7        1.0  0.35617290847518757  0.08511305175367309  0.27889909425912407  1.0000
  N   N8        1.0  0.1438272175259883  0.08511185980913888  0.7211003425453981  1.0000
  O   O1        1.0  0.7630366664404206  0.7401601141289688  0.1323385842933718  1.0000
  O   O2        1.0  0.7369634309167453  0.7401604895485646  0.8676626358800092  1.0000
  O   O3        1.0  0.7369660629986114  0.7598404573717161  0.6323386665611325  1.0000
  O   O4        1.0  0.7630352664212624  0.7598403205885658  0.3676612030550359  1.0000
  O   O5        1.0  0.23696650134351668  0.25984195261317916  0.8676597715452914  1.0000
  O   O6        1.0  0.26303475900945017  0.2598394214185901  0.1323384572626765  1.0000
  O   O7        1.0  0.2630358603207413  0.2401601721866626  0.36766105792914067  1.0000
  O   O8        1.0  0.23696292350690135  0.24015887178489945  0.6323371527832364  1.0000
  O   O9        1.0  0.5782188835695549  0.657396940559522  0.0474137219788986  1.0000
  O   O10       1.0  0.9217825104091234  0.657396646904985  0.9525874220964639  1.0000
  O   O11       1.0  0.9217814647412651  0.8426035448206689  0.5474131266845816  1.0000
  O   O12       1.0  0.5782185680575582  0.8426028121680528  0.4525868190289444  1.0000
  O   O13       1.0  0.421784284213743  0.34260440759102545  0.9525860025114739  1.0000
  O   O14       1.0  0.0782194129095828  0.34260326406180047  0.0474136710455113  1.0000
  O   O15       1.0  0.0782192141139149  0.15739708473783048  0.4525865978059258  1.0000
  O   O16       1.0  0.4217821107978708  0.15739566161391136  0.5474135897865864  1.0000
  O   O17       1.0  0.6854668437004251  0.3128614439152669  0.1586863227770436  1.0000
  O   O18       1.0  0.8145335229389873  0.3128610586617952  0.8413151888377327  1.0000
  O   O19       1.0  0.8145349229287291  0.1871389327617621  0.6586856247727582  1.0000
  O   O20       1.0  0.6854642784768643  0.1871387846234498  0.341315086919451  1.0000
  O   O21       1.0  0.3145350796182811  0.687138467051511  0.8413147703649313  1.0000
  O   O22       1.0  0.1854646669876416  0.6871388523050044  0.15868521997893484  1.0000
  O   O23       1.0  0.18546700039085104  0.8128609782043198  0.34131409971718807  1.0000
  O   O24       1.0  0.3145351559141716  0.8128604077509394  0.6586853218966482  1.0000
  O   O25       1.0  0.07908031850144683  0.4693753393039584  0.3998265736730246  1.0000
  O   O26       1.0  0.4209183208737315  0.4693725326698441  0.6001752694230544  1.0000
  O   O27       1.0  0.4209195134052451  0.030625380930075597  0.8998256918502817  1.0000
  O   O28       1.0  0.0790806469325389  0.030627165102352194  0.1001743791823557  1.0000
  O   O29       1.0  0.9209178714247346  0.5306260088474345  0.6001738351442968  1.0000
  O   O30       1.0  0.5790798690529256  0.5306259411127171  0.399825823718963  1.0000
  O   O31       1.0  0.5790811654508231  0.969373811443489  0.10017334831354668  1.0000
  O   O32       1.0  0.9209200319224352  0.969372745864206  0.8998260296338358  1.0000
  O   O33       1.0  0.04276309665299749  0.6236089429517122  0.36101920719107733  1.0000
  O   O34       1.0  0.4572379344526922  0.6236068870709912  0.6389827777166062  1.0000
  O   O35       1.0  0.4572389583441563  0.8763919594702327  0.8610179453361866  1.0000
  O   O36       1.0  0.0427606689949442  0.8763930715968797  0.13898153469312288  1.0000
  O   O37       1.0  0.9572375822015217  0.3763924051994252  0.6389812016257821  1.0000
  O   O38       1.0  0.5427614999381305  0.37639158671144907  0.3610183154251843  1.0000
  O   O39       1.0  0.5427617205116846  0.12360795149562158  0.1389810948279759  1.0000
  O   O40       1.0  0.9572387653962907  0.1236068393694509  0.8610181897972922  1.0000
  O   O41       1.0  0.24999986071416913  0.7270898761233936  0.5000003557017294  1.0000
  O   O42       1.0  0.2499989191505705  0.7729099416061231  3.0843681739999995e-07  1.0000
  O   O43       1.0  0.7499995736764049  0.27291075343557475  0.5000000531150306  1.0000
  O   O44       1.0  0.7499999054530377  0.22708946232182103  0.9999999637195813  1.0000
