data_image0
_chemical_formula_structural       Zn2H28C66N12O28
_chemical_formula_sum              "Zn2 H28 C66 N12 O28"
_cell_length_a       15.900823153121292
_cell_length_b       16.995188539690425
_cell_length_c       17.65233218341224
_cell_angle_alpha    91.0922895275267
_cell_angle_beta     91.38887439946959
_cell_angle_gamma    90.23827747503397

_space_group_name_H-M_alt    "P 1"
_space_group_IT_number       1

loop_
  _space_group_symop_operation_xyz
  'x, y, z'

loop_
  _atom_site_type_symbol
  _atom_site_label
  _atom_site_symmetry_multiplicity
  _atom_site_fract_x
  _atom_site_fract_y
  _atom_site_fract_z
  _atom_site_occupancy
  Zn  Zn1       1.0  0.49921078937754965  0.41223947485087814  0.4968758510923907  1.0000
  Zn  Zn2       1.0  0.5059088214140529  0.5870712239455995  0.5030742590020553  1.0000
  H   H1        1.0  0.06202998680402769  0.3707887659700972  0.5386025202397918  1.0000
  H   H2        1.0  0.9400299487035823  0.6145485242049702  0.4400696382534692  1.0000
  H   H3        1.0  0.4195294843208329  0.5813880327699223  0.2527251859676839  1.0000
  H   H4        1.0  0.6113794769327682  0.42875133479082445  0.7315586855009573  1.0000
  H   H5        1.0  0.43886016500387365  0.587314048671402  0.11300105977884563  1.0000
  H   H6        1.0  0.6386273411308065  0.44544842208929936  0.8712446737354614  1.0000
  H   H7        1.0  0.5673578914278108  0.1325823176343306  0.6044361261664124  1.0000
  H   H8        1.0  0.38026845576168  0.8625739642937874  0.4319068945141213  1.0000
  H   H9        1.0  0.5061818402201579  0.2534798603137888  0.29647617955834  1.0000
  H   H10       1.0  0.43147629400304066  0.31842385777120796  0.19013384866302374  1.0000
  H   H11       1.0  0.29508654177104887  0.3865307073304932  0.21172354633795726  1.0000
  H   H12       1.0  0.23364958634405747  0.38825940194485736  0.3396839499439111  1.0000
  H   H13       1.0  0.3078784958350552  0.3225279473173329  0.44635595376436765  1.0000
  H   H14       1.0  0.7211425743733385  0.7374135004295183  0.512213303766629  1.0000
  H   H15       1.0  0.8320970587313069  0.6768339362405269  0.5940228856063856  1.0000
  H   H16       1.0  0.7963298039559134  0.6246965906198765  0.719190265404855  1.0000
  H   H17       1.0  0.6492960007806516  0.6341782517948287  0.7644342900640029  1.0000
  H   H18       1.0  0.537706762547046  0.6930441260655227  0.6827422707054823  1.0000
  H   H19       1.0  0.9842974409378086  0.7114187625374908  0.5253914741547947  1.0000
  H   H20       1.0  0.036178275843056384  0.8222343768381533  0.6072343213063365  1.0000
  H   H21       1.0  0.13932534670570357  0.7976241988390456  0.7126297792766538  1.0000
  H   H22       1.0  0.1905072404362471  0.6614494008059707  0.73504666682085  1.0000
  H   H23       1.0  0.13872038540227288  0.5508576536989267  0.6539950163365376  1.0000
  H   H24       1.0  0.08162529640988228  0.32265128469303767  0.3884294103847098  1.0000
  H   H25       1.0  0.048326811798027294  0.21215547651273425  0.2992769659906643  1.0000
  H   H26       1.0  0.9004790037912681  0.18880324690190514  0.25376359242108754  1.0000
  H   H27       1.0  0.7862641949643745  0.2774162029216072  0.2985288091131225  1.0000
  H   H28       1.0  0.819363944267408  0.388079323582609  0.38647431390906223  1.0000
  C   C1        1.0  0.49733641268693407  0.5016737546723462  0.6445363951668741  1.0000
  C   C2        1.0  0.5166756479004133  0.5092447245225885  0.3567619705919044  1.0000
  C   C3        1.0  0.6608361865852144  0.4887055034364066  0.5049065697885171  1.0000
  C   C4        1.0  0.3436999909821026  0.5001952202873666  0.4942662333669008  1.0000
  C   C5        1.0  0.035416135943108884  0.42514892574534  0.516719747281684  1.0000
  C   C6        1.0  0.9683235359096753  0.5617036157031093  0.4635922270376513  1.0000
  C   C7        1.0  0.9780028841814569  0.4812905273110957  0.5609945284061484  1.0000
  C   C8        1.0  0.027032063160170594  0.506341077357547  0.41987224050338073  1.0000
  C   C9        1.0  0.751381422310743  0.48858837423293267  0.5024872985750123  1.0000
  C   C10       1.0  0.25320999491543006  0.5027140532204938  0.4925748019197871  1.0000
  C   C11       1.0  0.9755556107415726  0.43014592478029806  0.4448124073822869  1.0000
  C   C12       1.0  0.027339295359723792  0.5570584158068072  0.5355529939190549  1.0000
  C   C13       1.0  0.9155226009069181  0.4887979667558682  0.489828335841125  1.0000
  C   C14       1.0  0.08830226228799631  0.4976372299239813  0.490457286018277  1.0000
  C   C15       1.0  0.8272715076483336  0.4874139725054222  0.49570384244587035  1.0000
  C   C16       1.0  0.17674571810765363  0.5017095980209944  0.4904725837076074  1.0000
  C   C17       1.0  0.6114826092675472  0.47946445510247315  0.16124029891207675  1.0000
  C   C18       1.0  0.46915432914969557  0.5656712419583271  0.8504881490142113  1.0000
  C   C19       1.0  0.5970121250721121  0.47269715429276005  0.23864763504832356  1.0000
  C   C20       1.0  0.45418375679464856  0.5552553360143405  0.7728923363708378  1.0000
  C   C21       1.0  0.5288711370724568  0.5098031971976835  0.27231278430004124  1.0000
  C   C22       1.0  0.5055476930125948  0.5064733767337372  0.7294028542013822  1.0000
  C   C23       1.0  0.47236677503292407  0.5517625393961723  0.22644773465592047  1.0000
  C   C24       1.0  0.5717066767050482  0.4667579890221205  0.7657911608828984  1.0000
  C   C25       1.0  0.4835267959340967  0.5559564954432403  0.14905182838023026  1.0000
  C   C26       1.0  0.5871669410264031  0.476380099678913  0.8430638489701043  1.0000
  C   C27       1.0  0.553543952738231  0.520473550402478  0.11461778003862123  1.0000
  C   C28       1.0  0.5360562659128264  0.525886051173593  0.8874706291111709  1.0000
  C   C29       1.0  0.5581858412065797  0.5240720885383965  0.03515213569184541  1.0000
  C   C30       1.0  0.5480469871118315  0.5289669658250131  0.9667131818287519  1.0000
  C   C31       1.0  0.5362274935251888  0.1613901476454629  0.5569886518944502  1.0000
  C   C32       1.0  0.43161981295519053  0.8351638032293777  0.4633943020523576  1.0000
  C   C33       1.0  0.5330935197587722  0.24260309885934098  0.553631166772526  1.0000
  C   C34       1.0  0.4371462505092865  0.754068193335371  0.4675684091821284  1.0000
  C   C35       1.0  0.45593187632858445  0.24322273183934576  0.44083252135806833  1.0000
  C   C36       1.0  0.5568079735058049  0.7567862668544763  0.5449121132286053  1.0000
  C   C37       1.0  0.4571379391967412  0.1609214754423292  0.44033852187067185  1.0000
  C   C38       1.0  0.5564361882124301  0.8388187751977084  0.5412290901745893  1.0000
  C   C39       1.0  0.497295613428136  0.11768346727579629  0.49774889963011065  1.0000
  C   C40       1.0  0.49453510118165395  0.8804080117171296  0.500468851918612  1.0000
  C   C41       1.0  0.4965040859318393  0.034799424521196394  0.49775273539462733  1.0000
  C   C42       1.0  0.4948062592979595  0.9632368972961697  0.49837786283509916  1.0000
  C   C43       1.0  0.411819655467319  0.28428495127239733  0.3782771851288232  1.0000
  C   C44       1.0  0.446002923613662  0.2820517486069888  0.30572578634453873  1.0000
  C   C45       1.0  0.4040988346521246  0.31917522107728047  0.2461622720546615  1.0000
  C   C46       1.0  0.3279145189771313  0.3574732803155811  0.2583333234994428  1.0000
  C   C47       1.0  0.2931313657808515  0.35840148783069736  0.33027750821032253  1.0000
  C   C48       1.0  0.33475971201515614  0.3216907047739497  0.390275255212302  1.0000
  C   C49       1.0  0.622302075186866  0.7178500627100914  0.5920065171586871  1.0000
  C   C50       1.0  0.7055685525038554  0.7147518360810778  0.5675208016239852  1.0000
  C   C51       1.0  0.7676299212827686  0.680904808699175  0.6133040725543923  1.0000
  C   C52       1.0  0.7474519272644428  0.6514378094824167  0.683944473102628  1.0000
  C   C53       1.0  0.664891191137329  0.6560634219387893  0.7088238279105286  1.0000
  C   C54       1.0  0.6020083414779761  0.6890349740248852  0.6632065804911493  1.0000
  C   C55       1.0  0.05691960249993849  0.6233532018462211  0.5844819281947624  1.0000
  C   C56       1.0  0.028907370181975995  0.7002113279863238  0.5717766556988837  1.0000
  C   C57       1.0  0.058274268103048095  0.7626732804335602  0.6177682114641387  1.0000
  C   C58       1.0  0.11604022213840888  0.7488699563560883  0.6768097045226968  1.0000
  C   C59       1.0  0.1445577263365792  0.6724430289249523  0.6897326221152726  1.0000
  C   C60       1.0  0.11524322207685597  0.6100768907219845  0.6439169929070874  1.0000
  C   C61       1.0  0.9527104406490136  0.36304603108246886  0.39386020864008503  1.0000
  C   C62       1.0  0.0167727866742595  0.31254530829119176  0.3690143370222502  1.0000
  C   C63       1.0  0.9980210007892578  0.2504086794397295  0.31873196038424123  1.0000
  C   C64       1.0  0.9150779567559155  0.23742448009755884  0.29318894123218103  1.0000
  C   C65       1.0  0.8511465163409041  0.286918844787614  0.3181077824732982  1.0000
  C   C66       1.0  0.8697339800690995  0.3496725618209027  0.3680067389495037  1.0000
  N   N1        1.0  0.49574070036248225  0.2841897109521128  0.49863480067459437  1.0000
  N   N2        1.0  0.4966723683657576  0.7141663138202361  0.5055795501097722  1.0000
  N   N3        1.0  0.9466065347635817  0.47022941854465466  0.637104285974907  1.0000
  N   N4        1.0  0.0545724347345384  0.5172325117835258  0.3425576827049498  1.0000
  N   N5        1.0  0.4121447068874318  0.11636933216286847  0.3791120384866461  1.0000
  N   N6        1.0  0.6219386811679825  0.8849905081968644  0.5830294081268407  1.0000
  N   N7        1.0  0.6864549726209218  0.44407622207361186  0.12766409892077493  1.0000
  N   N8        1.0  0.4128642064331487  0.6152776824859032  0.8958115494563902  1.0000
  N   N9        1.0  0.6572406440840904  0.43108958303611183  0.2893154997697708  1.0000
  N   N10       1.0  0.38284319774771086  0.5967356931218647  0.7358447291199754  1.0000
  N   N11       1.0  0.5771171336328039  0.28457579483148276  0.618216661028079  1.0000
  N   N12       1.0  0.37039980261906874  0.7106096180109986  0.4227789486772339  1.0000
  O   O1        1.0  0.5162904981978187  0.43687556658372967  0.6131165738907074  1.0000
  O   O2        1.0  0.5349932447708099  0.5735479223614561  0.3910659126544332  1.0000
  O   O3        1.0  0.47551594209181747  0.5650515508633658  0.6125938533322214  1.0000
  O   O4        1.0  0.4889717106816248  0.4463639323707794  0.3840621291888838  1.0000
  O   O5        1.0  0.6242584649928135  0.4250384750202302  0.4833076860521503  1.0000
  O   O6        1.0  0.38244565617474535  0.5622700628900431  0.47621517544715203  1.0000
  O   O7        1.0  0.6263314725344244  0.5520295099888626  0.5276024972434075  1.0000
  O   O8        1.0  0.3763659108902856  0.4347478332655896  0.5131818601384526  1.0000
  O   O9        1.0  0.9061260556917289  0.5260670316554439  0.6638935403493778  1.0000
  O   O10       1.0  0.961167097651561  0.40684718218039245  0.6683778555068262  1.0000
  O   O11       1.0  0.0181502539301093  0.5674347747449814  0.30393249884901513  1.0000
  O   O12       1.0  0.11185377266409087  0.4732432132295016  0.32102260362763974  1.0000
  O   O13       1.0  0.3348981583786638  0.11273965985550657  0.3833443642838291  1.0000
  O   O14       1.0  0.45610393118934667  0.08470930921689049  0.330652928948176  1.0000
  O   O15       1.0  0.6104095994817482  0.8975206703491808  0.6510033523324099  1.0000
  O   O16       1.0  0.6810510500858554  0.9088346303527643  0.5454322096247  1.0000
  O   O17       1.0  0.7129292021678352  0.4740917015587912  0.06948457707636632  1.0000
  O   O18       1.0  0.7177457134111902  0.3864430508121827  0.15976865298895154  1.0000
  O   O19       1.0  0.4464371325419448  0.6606129242812812  0.9432103164336642  1.0000
  O   O20       1.0  0.3362306965966581  0.6067908697269712  0.8838228340304757  1.0000
  O   O21       1.0  0.6396625358879076  0.3631362101626934  0.3062108802727295  1.0000
  O   O22       1.0  0.718168018511001  0.47041506994526117  0.3131577161363098  1.0000
  O   O23       1.0  0.3866922029983755  0.6693939284862721  0.7355402345176147  1.0000
  O   O24       1.0  0.32568295557206983  0.5550505859479317  0.7088484101911023  1.0000
  O   O25       1.0  0.6447130675082136  0.3162383160114004  0.6051053001682973  1.0000
  O   O26       1.0  0.5430874988527492  0.27915174364229506  0.680054350181422  1.0000
  O   O27       1.0  0.2989857774818105  0.7143791176103206  0.4479523913934359  1.0000
  O   O28       1.0  0.3922318342065195  0.6801893011468964  0.3625658719339243  1.0000
