data_image0
_chemical_formula_structural       Zn4H30C70Br6N10O28
_chemical_formula_sum              "Zn4 H30 C70 Br6 N10 O28"
_cell_length_a       13.198008102778129
_cell_length_b       14.133446585842382
_cell_length_c       28.568577507922978
_cell_angle_alpha    90.02178029226232
_cell_angle_beta     89.79989876399566
_cell_angle_gamma    89.86359241845562

_space_group_name_H-M_alt    "P 1"
_space_group_IT_number       1

loop_
  _space_group_symop_operation_xyz
  'x, y, z'

loop_
  _atom_site_type_symbol
  _atom_site_label
  _atom_site_symmetry_multiplicity
  _atom_site_fract_x
  _atom_site_fract_y
  _atom_site_fract_z
  _atom_site_occupancy
  Zn  Zn1       1.0  0.5111892046060333  0.3985496234376314  0.4935609349697644  1.0000
  Zn  Zn2       1.0  0.4872595126511214  0.6020913490789469  0.5028493322417162  1.0000
  Zn  Zn3       1.0  0.5111804556222596  0.6021045425456394  0.041110351525020405  1.0000
  Zn  Zn4       1.0  0.48850113978046755  0.3986272138963686  0.0318266213462053  1.0000
  H   H1        1.0  0.621609674248802  0.05690658741012561  0.4431861800630941  1.0000
  H   H2        1.0  0.37721862476614376  0.9443090778802983  0.5526838616112357  1.0000
  H   H3        1.0  0.5965164933370916  0.7433336069794053  0.4557608907115025  1.0000
  H   H4        1.0  0.6150734269214767  0.9165628415345424  0.4481224068027601  1.0000
  H   H5        1.0  0.40614055026868806  0.257415438570142  0.5422123195687335  1.0000
  H   H6        1.0  0.3881256531143293  0.08438213680629052  0.5498933612895485  1.0000
  H   H7        1.0  0.5048845262181773  0.6185696432162334  0.18880826372983966  1.0000
  H   H8        1.0  0.4933925018592689  0.31611393495125384  0.179461382370512  1.0000
  H   H9        1.0  0.5045871790066626  0.3810306172943713  0.3456993467684555  1.0000
  H   H10       1.0  0.49345735101900357  0.6835333227423276  0.3550698335532445  1.0000
  H   H11       1.0  0.5035122822987219  0.34221160406217166  0.7400621455341254  1.0000
  H   H12       1.0  0.5045659149420773  0.6576011122005951  0.7946793215658304  1.0000
  H   H13       1.0  0.49712767221032544  0.37116365251569766  0.8930117366669137  1.0000
  H   H14       1.0  0.4962513763943975  0.3530158203638366  0.8076875018645142  1.0000
  H   H15       1.0  0.49672390053396503  0.6287088667275994  0.6417481387859639  1.0000
  H   H16       1.0  0.49671214501209704  0.6468702090512934  0.727074553195024  1.0000
  H   H17       1.0  0.8301523155522118  0.3804132538764762  0.5004395884136059  1.0000
  H   H18       1.0  0.8075543300938294  0.6827261459766589  0.49911521149510213  1.0000
  H   H19       1.0  0.1682336048806761  0.6194545509888698  0.5013352044969395  1.0000
  H   H20       1.0  0.1910562072565867  0.3172997751346146  0.4958542227204249  1.0000
  H   H21       1.0  0.6213876071784271  0.9432200344278601  0.0911928708643188  1.0000
  H   H22       1.0  0.3778899679308195  0.057150222181242306  0.9821497726372572  1.0000
  H   H23       1.0  0.5981368807724793  0.2567218750307917  0.078129323356066  1.0000
  H   H24       1.0  0.6162086695700424  0.0833971697226232  0.0857478639855884  1.0000
  H   H25       1.0  0.4069811602588445  0.7436341035938697  0.9923928297543158  1.0000
  H   H26       1.0  0.3892923806422317  0.9167911559198885  0.9845982386984533  1.0000
  H   H27       1.0  0.8300721862045322  0.6209111132228812  0.034455101594971914  1.0000
  H   H28       1.0  0.8094688578437969  0.3185701987951576  0.0362769067359778  1.0000
  H   H29       1.0  0.16974397543645378  0.3823240342003871  0.03427982141246841  1.0000
  H   H30       1.0  0.190543397434439  0.6844938118591842  0.0399585416629762  1.0000
  C   C1        1.0  0.5002262539700055  0.4789054998208542  0.5888392604622368  1.0000
  C   C2        1.0  0.3032703323094382  0.47875915785719775  0.4974199212564159  1.0000
  C   C3        1.0  0.4979620422495898  0.522879566787566  0.4076358127298861  1.0000
  C   C4        1.0  0.695304748321277  0.5219250694688425  0.4987034693244397  1.0000
  C   C5        1.0  0.5013153178113257  0.5209020594200098  0.9458871654239971  1.0000
  C   C6        1.0  0.3038233329869584  0.5231992709924853  0.0379036931976344  1.0000
  C   C7        1.0  0.49816508624841294  0.47674716113722587  0.1269282850194813  1.0000
  C   C8        1.0  0.6961216013156816  0.4792861545718807  0.03588916307462851  1.0000
  C   C9        1.0  0.5754279101214054  0.19546422035713115  0.4642662869589316  1.0000
  C   C10       1.0  0.5714850150827927  0.0968775717048516  0.4661094758904909  1.0000
  C   C11       1.0  0.4243788548019793  0.805691016556203  0.5321887704860728  1.0000
  C   C12       1.0  0.4284059358643617  0.9042408805862364  0.5303069276221208  1.0000
  C   C13       1.0  0.5499534113193789  0.7915395297913079  0.4764319236793285  1.0000
  C   C14       1.0  0.5593054255012435  0.8887361805858234  0.4725610593311345  1.0000
  C   C15       1.0  0.4515732926752919  0.20940298484250522  0.5209261070201379  1.0000
  C   C16       1.0  0.44275400334576903  0.11218927521748871  0.5248993416495367  1.0000
  C   C17       1.0  0.5037557833888755  0.05283824247320722  0.4969936583702791  1.0000
  C   C18       1.0  0.4972371173831435  0.9482190998122845  0.4999105958368021  1.0000
  C   C19       1.0  0.5030240868061854  0.5505182185324742  0.20641992078101623  1.0000
  C   C20       1.0  0.4975209601877708  0.3796665968625419  0.20085715428348297  1.0000
  C   C21       1.0  0.5020899929564637  0.37295970219314967  0.248808441007057  1.0000
  C   C22       1.0  0.5047304661781739  0.4541470574822668  0.2786330594558279  1.0000
  C   C23       1.0  0.5028349010576748  0.44909363628710963  0.3280919464969827  1.0000
  C   C24       1.0  0.49757194814797157  0.6199432417810157  0.33367120375518056  1.0000
  C   C25       1.0  0.5021923012498206  0.6266232659174736  0.28569658753497146  1.0000
  C   C26       1.0  0.5048072116837475  0.5454319703413901  0.2558782859115283  1.0000
  C   C27       1.0  0.49930357595215474  0.4694141169655099  0.1794184018203708  1.0000
  C   C28       1.0  0.4991905961500223  0.5302081957509586  0.35511725862251353  1.0000
  C   C29       1.0  0.5000643772078847  0.47780805384515207  0.6415537869635698  1.0000
  C   C30       1.0  0.5011035711457481  0.5220334896031531  0.8931900709110324  1.0000
  C   C31       1.0  0.5016159845814273  0.39785902634242387  0.6708420455200824  1.0000
  C   C32       1.0  0.5018729338197119  0.4069141510683707  0.7194954817975798  1.0000
  C   C33       1.0  0.5028948704589739  0.6020013616976384  0.8639141139917896  1.0000
  C   C34       1.0  0.5027629479364465  0.5929441019678734  0.815268520152735  1.0000
  C   C35       1.0  0.49876864700939905  0.4334418532493061  0.8706429209875141  1.0000
  C   C36       1.0  0.49840980415398656  0.4239592208240027  0.8224274293653695  1.0000
  C   C37       1.0  0.49829937494379817  0.5664162725986799  0.6641102051288145  1.0000
  C   C38       1.0  0.498341486843259  0.5759045901942628  0.7123237744355964  1.0000
  C   C39       1.0  0.5002806232335429  0.49580768470183767  0.7415346903825439  1.0000
  C   C40       1.0  0.5005326475723776  0.5040678359238129  0.7932419695307403  1.0000
  C   C41       1.0  0.8679432949677804  0.448592814049988  0.5004103670182758  1.0000
  C   C42       1.0  0.8545897824905353  0.6194431653442722  0.49979379992598894  1.0000
  C   C43       1.0  0.9583767087946952  0.6265999952752639  0.5013290251120068  1.0000
  C   C44       1.0  0.023535958649482297  0.5456530605300784  0.5017750538847849  1.0000
  C   C45       1.0  0.1305121623186238  0.5512682109216627  0.5005368258658862  1.0000
  C   C46       1.0  0.14404953747811083  0.3805195411997887  0.4977850794051761  1.0000
  C   C47       1.0  0.04023196562655331  0.3732255203253489  0.4999497364374221  1.0000
  C   C48       1.0  0.9749831603896554  0.454101011876567  0.5014174777061058  1.0000
  C   C49       1.0  0.8089026131965157  0.5295158118982002  0.49961134949445823  1.0000
  C   C50       1.0  0.1896836461843918  0.47050331457687383  0.4984835851344443  1.0000
  C   C51       1.0  0.5752445098188375  0.8048731485552452  0.07027045152552351  1.0000
  C   C52       1.0  0.5715747861973383  0.9034703323587508  0.06829045151717851  1.0000
  C   C53       1.0  0.42564731634938374  0.19544682987515932  0.0023791176421781002  1.0000
  C   C54       1.0  0.42935866021480246  0.0968638226784932  0.004279594479527301  1.0000
  C   C55       1.0  0.5513785573186994  0.2088017589255244  0.05765965901505871  1.0000
  C   C56       1.0  0.5604000268503242  0.11154922791159551  0.0615304272120127  1.0000
  C   C57       1.0  0.45220444857715597  0.791454830814047  0.013627634781272501  1.0000
  C   C58       1.0  0.44356252566474563  0.888714474111886  0.0095759698171918  1.0000
  C   C59       1.0  0.5043275691074386  0.9477774904923494  0.03739892879755051  1.0000
  C   C60       1.0  0.4981092757079963  0.05243582644595791  0.034438412458619914  1.0000
  C   C61       1.0  0.8683173173394324  0.5527907789424376  0.034695763557280705  1.0000
  C   C62       1.0  0.856094201718875  0.38191256973181  0.0355574973254846  1.0000
  C   C63       1.0  0.9599866052483678  0.3749202140254723  0.0343842592657211  1.0000
  C   C64       1.0  0.0245789980004787  0.4559607920768443  0.0338903875144609  1.0000
  C   C65       1.0  0.1315687508456307  0.450463779589434  0.03512520706031811  1.0000
  C   C66       1.0  0.1439581541177333  0.6212309667904209  0.0379500841934615  1.0000
  C   C67       1.0  0.04013879125993469  0.6284035577778938  0.03573316241947571  1.0000
  C   C68       1.0  0.9754160823235125  0.5474691963205061  0.034073865217273215  1.0000
  C   C69       1.0  0.8097934638562448  0.4717798630653434  0.035326443415556213  1.0000
  C   C70       1.0  0.1901883574584176  0.53129542688594  0.0371363821363602  1.0000
  Br  Br1       1.0  0.6669343835097621  0.2522890492800657  0.4220410526778623  1.0000
  Br  Br2       1.0  0.3312940513280295  0.748827627525401  0.5737687023476357  1.0000
  Br  Br3       1.0  0.5034454318181218  0.2702204471052383  0.6486552003677347  1.0000
  Br  Br4       1.0  0.5058435058776355  0.7296169335496785  0.8861066637458708  1.0000
  Br  Br5       1.0  0.6657591332782858  0.7477485345281282  0.11269926409723753  1.0000
  Br  Br6       1.0  0.3325450321255161  0.2528826974533303  0.9611449192075909  1.0000
  N   N1        1.0  0.5169574839865448  0.2513598755738045  0.490912981574347  1.0000
  N   N2        1.0  0.48330894211964187  0.7496239795874472  0.5058755478964159  1.0000
  N   N3        1.0  0.5170906661011544  0.7492304623173993  0.0436681724536001  1.0000
  N   N4        1.0  0.48475259932206427  0.25113349921039685  0.028464576330741006  1.0000
  N   N5        1.0  0.5049060145777418  0.723694386165505  0.2665111405646456  1.0000
  N   N6        1.0  0.5047241712416763  0.27585633382236113  0.26799759298640424  1.0000
  N   N7        1.0  0.9993417607887879  0.27594906709094863  0.5009723803320796  1.0000
  N   N8        1.0  0.999140908699175  0.723798720016049  0.5026890367345942  1.0000
  N   N9        1.0  0.9987504829956109  0.7256952231466869  0.0348359647066303  1.0000
  N   N10       1.0  0.0013696969554146997  0.2777395615128881  0.0335327218448782  1.0000
  O   O1        1.0  0.5051542903213715  0.40152214960901494  0.5664697129882442  1.0000
  O   O2        1.0  0.4955171289171291  0.5611701336428682  0.5704496275869814  1.0000
  O   O3        1.0  0.3389530158299435  0.5622011446315585  0.4978156714540276  1.0000
  O   O4        1.0  0.3533522532493906  0.40187547963387965  0.4963300551714839  1.0000
  O   O5        1.0  0.4944090663133166  0.6003462234428413  0.4302225700525285  1.0000
  O   O6        1.0  0.5010948719861403  0.4400041830818964  0.4247940228757017  1.0000
  O   O7        1.0  0.659089903865592  0.4387638308885116  0.49687598823730644  1.0000
  O   O8        1.0  0.6457116899692039  0.5990598716151182  0.4998394972199449  1.0000
  O   O9        1.0  0.5034731191981194  0.5983386347989497  0.968279955629832  1.0000
  O   O10       1.0  0.4992675947102683  0.4385226219674082  0.9642456410553566  1.0000
  O   O11       1.0  0.3401249789873121  0.43986606174128434  0.0365570139957185  1.0000
  O   O12       1.0  0.3533442777320559  0.6001140436440906  0.039638025106690115  1.0000
  O   O13       1.0  0.49351213659820553  0.3993200305054572  0.10437967799020952  1.0000
  O   O14       1.0  0.5024040296907515  0.5595575993427389  0.10976340677047602  1.0000
  O   O15       1.0  0.6593814725563619  0.5624830229017732  0.036736333284530104  1.0000
  O   O16       1.0  0.6470047665218744  0.4020857109562783  0.0355307679018111  1.0000
  O   O17       1.0  0.558279577169003  0.7385961703500712  0.23139052198850862  1.0000
  O   O18       1.0  0.45529581358862  0.7850232078311522  0.2875734593817469  1.0000
  O   O19       1.0  0.5577428539751069  0.2607455248850812  0.3030607091299374  1.0000
  O   O20       1.0  0.4553843168967333  0.21469210204827494  0.2469936979257099  1.0000
  O   O21       1.0  0.9227752827150655  0.2606023226170961  0.5251483723112855  1.0000
  O   O22       1.0  0.0460392051995697  0.21493071645423356  0.4782721441906403  1.0000
  O   O23       1.0  0.07498527472454698  0.7391063601648042  0.5271581091997959  1.0000
  O   O24       1.0  0.9531695855234192  0.7849160740483754  0.4799254261684213  1.0000
  O   O25       1.0  0.9223993963641347  0.7411767041510514  0.0107230148783373  1.0000
  O   O26       1.0  0.0448448255391938  0.7866097655872933  0.05757562699802321  1.0000
  O   O27       1.0  0.07795215906166672  0.2620003926798661  0.0093267431960626  1.0000
  O   O28       1.0  0.9551571473895989  0.21703695923580577  0.05647427404797161  1.0000
