data_image0
_chemical_formula_structural       K4H20C12N32O12
_chemical_formula_sum              "K4 H20 C12 N32 O12"
_cell_length_a       6.962021066195007
_cell_length_b       7.622503029680888
_cell_length_c       18.270409912003338
_cell_angle_alpha    90.00006790168877
_cell_angle_beta     89.99996018054091
_cell_angle_gamma    112.02847600946174

_space_group_name_H-M_alt    "P 1"
_space_group_IT_number       1

loop_
  _space_group_symop_operation_xyz
  'x, y, z'

loop_
  _atom_site_type_symbol
  _atom_site_label
  _atom_site_symmetry_multiplicity
  _atom_site_fract_x
  _atom_site_fract_y
  _atom_site_fract_z
  _atom_site_occupancy
  K   K1        1.0  0.9245028738628066  0.8475572216190345  0.7499996710577719  1.0000
  K   K2        1.0  0.07549961019218192  0.152438671848536  0.2499998912385877  1.0000
  K   K3        1.0  0.34518019240281467  0.6299248419806959  0.7500018887729354  1.0000
  K   K4        1.0  0.6548185517752005  0.37007245072081224  0.2500009575228717  1.0000
  H   H1        1.0  0.6732305857593488  0.5937450932883409  0.6143918491998193  1.0000
  H   H2        1.0  0.326768817421801  0.40625325658833594  0.11439157597384052  1.0000
  H   H3        1.0  0.3267687341681835  0.4062536146211926  0.3856099024300619  1.0000
  H   H4        1.0  0.6732305025057242  0.5937454513211976  0.8856101756560406  1.0000
  H   H5        1.0  0.6731353589907415  0.79794291074208  0.5988531129576202  1.0000
  H   H6        1.0  0.32686261518797727  0.2020553927841959  0.0988538337609128  1.0000
  H   H7        1.0  0.3268639609369544  0.2020557971667287  0.4011480913391665  1.0000
  H   H8        1.0  0.673135266197839  0.7979433097987111  0.9011479178691674  1.0000
  H   H9        1.0  0.8645251908660188  0.3912473307047862  0.7075976722805137  1.0000
  H   H10       1.0  0.13547185375960413  0.6087526698086448  0.2075975529796068  1.0000
  H   H11       1.0  0.13547182772759203  0.6087527817595272  0.2924029846838465  1.0000
  H   H12       1.0  0.8645251648340065  0.3912474426556686  0.7924031039847536  1.0000
  H   H13       1.0  0.6235931082803888  0.08493403012928269  0.7067733472796931  1.0000
  H   H14       1.0  0.3764053753928351  0.915065973535242  0.2067738580318519  1.0000
  H   H15       1.0  0.3764047731057616  0.915064672452182  0.2932273096842053  1.0000
  H   H16       1.0  0.6235930817423281  0.0849341442564224  0.7932273462654039  1.0000
  H   H17       1.0  0.23943994636360336  0.47472810348021705  0.9560202317128769  1.0000
  H   H18       1.0  0.760560109876657  0.5252697384738667  0.4560193469966123  1.0000
  H   H19       1.0  0.7605582204029347  0.5252607086169759  0.043982067247824795  1.0000
  H   H20       1.0  0.23944007616833565  0.47474169034105523  0.5439824046362816  1.0000
  C   C1        1.0  0.2475845832131823  0.8154598978969572  0.000395887676639  1.0000
  C   C2        1.0  0.7524232341595792  0.1845410080621335  0.5003959368666315  1.0000
  C   C3        1.0  0.7524190506780358  0.18453176059399107  0.999602579952331  1.0000
  C   C4        1.0  0.24758213030411005  0.81546902684547  0.4996025307666159  1.0000
  C   C5        1.0  0.2084595608779765  0.8758440160333478  0.9271167688455721  1.0000
  C   C6        1.0  0.7915505845609873  0.12416085229199332  0.4271167723923242  1.0000
  C   C7        1.0  0.7915636418336193  0.12416749801115398  0.072887719449561  1.0000
  C   C8        1.0  0.20843492403508884  0.8758321521710073  0.5728882632366776  1.0000
  C   C9        1.0  0.2074832889421074  0.067261844404463  0.9162290198644671  1.0000
  C   C10       1.0  0.792517367475682  0.9327373077047555  0.4162294215307085  1.0000
  C   C11       1.0  0.7925163163676529  0.9327269730128477  0.08376835309817922  1.0000
  C   C12       1.0  0.20748770994497784  0.0672755522937294  0.5837679514370819  1.0000
  N   N1        1.0  0.25460826257071295  0.642478590003691  0.0108121401944814  1.0000
  N   N2        1.0  0.7453943699892208  0.3575237373607437  0.5108133712695065  1.0000
  N   N3        1.0  0.7453907686516672  0.3575158776011591  0.9891874221020204  1.0000
  N   N4        1.0  0.2546075416411853  0.6424848716870314  0.4891872856962607  1.0000
  N   N5        1.0  0.2892918345047448  0.6306567124060792  0.0815823015277957  1.0000
  N   N6        1.0  0.7107041359858712  0.36934012498672086  0.5815835482454049  1.0000
  N   N7        1.0  0.7107054711325561  0.36934057496446826  0.918417260769644  1.0000
  N   N8        1.0  0.28929230685856305  0.6306585722681248  0.4184171087186925  1.0000
  N   N9        1.0  0.3025111779092739  0.7921851456519065  0.1140222246444083  1.0000
  N   N10       1.0  0.6974876497493411  0.2078117880406083  0.6140228481841277  1.0000
  N   N11       1.0  0.6974858406851752  0.2078149668087974  0.8859756956544872  1.0000
  N   N12       1.0  0.3025133957644356  0.7921841000981685  0.3859750721131477  1.0000
  N   N13       1.0  0.2772972599141212  0.9105401212297862  0.0644207429893129  1.0000
  N   N14       1.0  0.7227067782763257  0.0894623529961294  0.5644207537444075  1.0000
  N   N15       1.0  0.7226991829314855  0.0894585760200073  0.9355760826431165  1.0000
  N   N16       1.0  0.2773005988164526  0.9105420370505612  0.4355755245547854  1.0000
  N   N17       1.0  0.2333307078568794  0.19943515675257836  0.9679060502440892  1.0000
  N   N18       1.0  0.7666673267949592  0.800561296048478  0.46790694143702893  1.0000
  N   N19       1.0  0.7666648688707555  0.8005508195939868  0.0320924173846109  1.0000
  N   N20       1.0  0.2333368878324933  0.19945297383574712  0.5320926208636152  1.0000
  N   N21       1.0  0.2253620657454505  0.3424839450291445  0.9293305974258388  1.0000
  N   N22       1.0  0.7746357055455847  0.6575152310172073  0.4293308685491582  1.0000
  N   N23       1.0  0.7746372525201154  0.6575076974841069  0.0706695122030183  1.0000
  N   N24       1.0  0.2253624662088427  0.3424947772601712  0.5706697884174758  1.0000
  N   N25       1.0  0.19581886759944925  0.3061643449155653  0.8578461538163964  1.0000
  N   N26       1.0  0.804177509036002  0.6938346370715182  0.35784588713866583  1.0000
  N   N27       1.0  0.8041804523284102  0.6938343629925258  0.1421545031472959  1.0000
  N   N28       1.0  0.19582066105596846  0.30616830581174537  0.6421547698262343  1.0000
  N   N29       1.0  0.1834989463360941  0.1314142795451971  0.8486344965245536  1.0000
  N   N30       1.0  0.816497435954247  0.8685846781229856  0.3486354071264515  1.0000
  N   N31       1.0  0.8164963450106557  0.8685815872878068  0.1513639711066261  1.0000
  N   N32       1.0  0.1835047627200126  0.1314211058302988  0.6513636078392935  1.0000
  O   O1        1.0  0.6457682442601252  0.70003122111531  0.6366546529010293  1.0000
  O   O2        1.0  0.3542291309623238  0.29996576700376926  0.1366548668658751  1.0000
  O   O3        1.0  0.35422762283495507  0.2999660609307853  0.3633465513958997  1.0000
  O   O4        1.0  0.6457716275069174  0.7000329462323904  0.8633468847638  1.0000
  O   O5        1.0  0.9037529481545833  0.47528846875514563  0.7500012242838778  1.0000
  O   O6        1.0  0.09624550897990493  0.5247116490394034  0.2500021693457555  1.0000
  O   O7        1.0  0.1776899874230224  0.7667124899040232  0.8744611132656104  1.0000
  O   O8        1.0  0.8223204773858158  0.2332894143085369  0.3744611618714373  1.0000
  O   O9        1.0  0.8223191119304051  0.23327494958655853  0.1255335230298726  1.0000
  O   O10       1.0  0.1776702146188639  0.7667233924186618  0.6255323797667174  1.0000
  O   O11       1.0  0.610263764163811  0.0037966868648595994  0.7500006023371597  1.0000
  O   O12       1.0  0.3897346929711815  0.9962034309275295  0.2500011492931904  1.0000
