data_image0
_chemical_formula_structural       Mg2Cu4H36C24O24
_chemical_formula_sum              "Mg2 Cu4 H36 C24 O24"
_cell_length_a       8.301008463033943
_cell_length_b       11.197777660034822
_cell_length_c       11.207549457121644
_cell_angle_alpha    99.39590950279907
_cell_angle_beta     108.26734112137656
_cell_angle_gamma    108.32438812299011

_space_group_name_H-M_alt    "P 1"
_space_group_IT_number       1

loop_
  _space_group_symop_operation_xyz
  'x, y, z'

loop_
  _atom_site_type_symbol
  _atom_site_label
  _atom_site_symmetry_multiplicity
  _atom_site_fract_x
  _atom_site_fract_y
  _atom_site_fract_z
  _atom_site_occupancy
  Mg  Mg1       1.0  0.7497604204507127  0.5812439561153084  0.4189559432788598  1.0000
  Mg  Mg2       1.0  0.2502340073017635  0.4187702870922792  0.5810324163498208  1.0000
  Cu  Cu1       1.0  0.5424314926734796  0.5141891665378041  0.9013559866683566  1.0000
  Cu  Cu2       1.0  0.9575764667499913  0.09866571669767413  0.4854563951900274  1.0000
  Cu  Cu3       1.0  0.4575529505728825  0.48579954873034137  0.09863825186575782  1.0000
  Cu  Cu4       1.0  0.04243983683122832  0.9013537308486409  0.5145678054031039  1.0000
  H   H1        1.0  0.9082007853523993  0.6650417150399336  0.8700201540515877  1.0000
  H   H2        1.0  0.5914812980253789  0.13033048563085  0.3338039933851747  1.0000
  H   H3        1.0  0.09176481078893063  0.3349280805596636  0.12998821736120195  1.0000
  H   H4        1.0  0.4085412652171457  0.8696697305785366  0.6661841694000685  1.0000
  H   H5        1.0  0.7688384342299062  0.7570759089618522  0.8550188858798293  1.0000
  H   H6        1.0  0.7325336134268314  0.14618594736494836  0.24301095089350613  1.0000
  H   H7        1.0  0.23115330695594596  0.2429159088799865  0.14496403466255  1.0000
  H   H8        1.0  0.26751415504099213  0.8538225055520604  0.7569982164921641  1.0000
  H   H9        1.0  0.9201649373219497  0.7724203719836852  0.7677346116133493  1.0000
  H   H10       1.0  0.5815445913523477  0.23379425082350747  0.2276721216783812  1.0000
  H   H11       1.0  0.07985899804224775  0.22755740240626215  0.2322810949415484  1.0000
  H   H12       1.0  0.41847519020917207  0.7661913395393755  0.772305719211282  1.0000
  H   H13       1.0  0.10926395107266985  0.6947974752760829  0.2829380465199165  1.0000
  H   H14       1.0  0.3917008716049964  0.717088738123998  0.3060200793835364  1.0000
  H   H15       1.0  0.8907397813436974  0.3051906930287701  0.7170449404947377  1.0000
  H   H16       1.0  0.6083276597876407  0.282935932569309  0.6939683181898317  1.0000
  H   H17       1.0  0.10353608182028048  0.5659625517125876  0.16165841960282992  1.0000
  H   H18       1.0  0.39746001350846455  0.8386713346671615  0.4346099596846927  1.0000
  H   H19       1.0  0.8964369886949158  0.4339840192278004  0.8383554172488346  1.0000
  H   H20       1.0  0.6025150311586814  0.1613386806206024  0.5653584293047373  1.0000
  H   H21       1.0  0.04897053640407028  0.5350164901437183  0.30114818132373955  1.0000
  H   H22       1.0  0.45219242556581224  0.6992006339803044  0.4657268008091293  1.0000
  H   H23       1.0  0.9510066592867903  0.4649875617454102  0.698875840160767  1.0000
  H   H24       1.0  0.5477908130788053  0.3008192336372702  0.5342575468528068  1.0000
  H   H25       1.0  0.6482984259175241  0.14813141584447467  0.9575767132327258  1.0000
  H   H26       1.0  0.8481694458415421  0.044432107448827224  0.8503242284013552  1.0000
  H   H27       1.0  0.35171751923974176  0.8518857064739225  0.0425710929822146  1.0000
  H   H28       1.0  0.1518350826185326  0.955524844174086  0.1496873008134685  1.0000
  H   H29       1.0  0.4339097486962587  0.08046064332787493  0.8207263351345659  1.0000
  H   H30       1.0  0.06541044104143623  0.17858399974047506  0.9190854209329729  1.0000
  H   H31       1.0  0.5662801921183063  0.9195965473744536  0.17925061631194691  1.0000
  H   H32       1.0  0.93455125321983  0.8214110366130287  0.08091858841690687  1.0000
  H   H33       1.0  0.4404287488234645  0.07815880272377033  0.9821789023107641  1.0000
  H   H34       1.0  0.05232059578121102  0.015468025921642002  0.9199067887188052  1.0000
  H   H35       1.0  0.5593932381473153  0.9217773176596185  0.017698009336562875  1.0000
  H   H36       1.0  0.9477298014157473  0.9845559824575789  0.08012622530613105  1.0000
  C   C1        1.0  0.8287389120912892  0.7051682841103074  0.8013645423139694  1.0000
  C   C2        1.0  0.6721078997950941  0.1995556191525624  0.2947006867976043  1.0000
  C   C3        1.0  0.17125643312256508  0.2948196813129301  0.19862915818779212  1.0000
  C   C4        1.0  0.3279097876430442  0.8004444848454569  0.7052917957876659  1.0000
  C   C5        1.0  0.6771146536943179  0.5929608186204264  0.6860896418366806  1.0000
  C   C6        1.0  0.8229548632926511  0.3143683150206159  0.40776612000833273  1.0000
  C   C7        1.0  0.3228782453901573  0.40703974803697923  0.3139048956234802  1.0000
  C   C8        1.0  0.17703606754334808  0.6856341852880733  0.5922194230869025  1.0000
  C   C9        1.0  0.03907267814243208  0.5899775649671569  0.22857626267631304  1.0000
  C   C10       1.0  0.4617688622801952  0.7716182216484385  0.41056607462228106  1.0000
  C   C11       1.0  0.9609124565206103  0.40999167250616614  0.7714262637948437  1.0000
  C   C12       1.0  0.5382322986436635  0.22840493389511352  0.5894172384703111  1.0000
  C   C13       1.0  0.8431837261360119  0.5679191947775807  0.15324474444877723  1.0000
  C   C14       1.0  0.657248619728904  0.8470088598193259  0.43183704570379433  1.0000
  C   C15       1.0  0.15680319280121321  0.43206471319415135  0.8467464776065938  1.0000
  C   C16       1.0  0.34276393689685153  0.1530212364141263  0.5681811241865304  1.0000
  C   C17       1.0  0.5023147055842616  0.13411185036069642  0.9254505802052505  1.0000
  C   C18       1.0  0.9940344880758477  0.07402085401957953  0.8646380888128888  1.0000
  C   C19       1.0  0.49766867042063023  0.8658778354540929  0.07453735895379762  1.0000
  C   C20       1.0  0.005989842650194565  0.9259773549035021  0.13538222514679904  1.0000
  C   C21       1.0  0.493139940076901  0.2677630581848405  0.9479567817097277  1.0000
  C   C22       1.0  0.004740339334269103  0.051554065281493415  0.7316051295855033  1.0000
  C   C23       1.0  0.5068449130129624  0.7322344393878101  0.052032854008651125  1.0000
  C   C24       1.0  0.99528450011961  0.9484499879684524  0.26841722204276425  1.0000
  O   O1        1.0  0.5383100776697063  0.5195318447659433  0.7055620483294119  1.0000
  O   O2        1.0  0.9619483890342269  0.2947691737660352  0.4804197074946758  1.0000
  O   O3        1.0  0.46168670932495826  0.48046493938687024  0.29442191447321875  1.0000
  O   O4        1.0  0.038043700985845426  0.7052507933302012  0.5195915010305826  1.0000
  O   O5        1.0  0.6928817925083168  0.5745682377503984  0.5778077858878704  1.0000
  O   O6        1.0  0.8063324681639941  0.4223785209812121  0.4277914986056288  1.0000
  O   O7        1.0  0.3071107841316306  0.4254382104437939  0.422170767314725  1.0000
  O   O8        1.0  0.19366549172272587  0.5776251657792175  0.5721707239532706  1.0000
  O   O9        1.0  0.796934533895545  0.5637545840474588  0.03254204740535735  1.0000
  O   O10       1.0  0.7031972274123678  0.967703146776643  0.43533260075567176  1.0000
  O   O11       1.0  0.20305028406566092  0.436211734053181  0.9674581085870528  1.0000
  O   O12       1.0  0.29681683911801576  0.03233761067333771  0.5647109907896422  1.0000
  O   O13       1.0  0.7336713693638401  0.5558101162428032  0.2140753609783204  1.0000
  O   O14       1.0  0.7668874240227341  0.7863465231525526  0.444123319413734  1.0000
  O   O15       1.0  0.2663167030147733  0.44420005942593843  0.7859279127282619  1.0000
  O   O16       1.0  0.23310773027507992  0.21367942173220908  0.5558628078779506  1.0000
  O   O17       1.0  0.5279737203593413  0.33189317487284603  0.8689851844034138  1.0000
  O   O18       1.0  0.9705707846457728  0.13056191113120974  0.6673231713041473  1.0000
  O   O19       1.0  0.47197267649546165  0.6680879751009458  0.13100156061833707  1.0000
  O   O20       1.0  0.029503459624685008  0.8694713175257507  0.33271824027198704  1.0000
  O   O21       1.0  0.4544424954849975  0.30703181529279533  0.04501094998313703  1.0000
  O   O22       1.0  0.04418941654827792  0.9546943229923955  0.6929678700298609  1.0000
  O   O23       1.0  0.5455441753859704  0.6929608218138983  0.9549889140066413  1.0000
  O   O24       1.0  0.955794685490176  0.045297258478896714  0.30704198373316416  1.0000
