data_image0
_chemical_formula_structural       Cd3H34C44N4O12
_chemical_formula_sum              "Cd3 H34 C44 N4 O12"
_cell_length_a       9.528665656773407
_cell_length_b       9.806885332533883
_cell_length_c       12.960338453776112
_cell_angle_alpha    71.76677691436409
_cell_angle_beta     68.84462671848404
_cell_angle_gamma    78.04242446147845

_space_group_name_H-M_alt    "P 1"
_space_group_IT_number       1

loop_
  _space_group_symop_operation_xyz
  'x, y, z'

loop_
  _atom_site_type_symbol
  _atom_site_label
  _atom_site_symmetry_multiplicity
  _atom_site_fract_x
  _atom_site_fract_y
  _atom_site_fract_z
  _atom_site_occupancy
  Cd  Cd1       1.0  9.484483313995498e-07  9.013558610009079e-08  0.9999995329337636  1.0000
  Cd  Cd2       1.0  0.3137439361595113  0.18459319716813374  0.7372049015007249  1.0000
  Cd  Cd3       1.0  0.6862564001926473  0.8154065012539391  0.2627950495385534  1.0000
  H   H1        1.0  0.8779719771911373  0.42820834568858857  0.7129654518383932  1.0000
  H   H2        1.0  0.12202711536824748  0.5717924311360106  0.28703380014334107  1.0000
  H   H3        1.0  0.6772396193076986  0.6612153648359395  0.972212090380211  1.0000
  H   H4        1.0  0.32275846815112885  0.33878433246731277  0.027787683879971332  1.0000
  H   H5        1.0  0.425310151729363  0.6407260913016514  0.7619133455362288  1.0000
  H   H6        1.0  0.5746889408300148  0.35927468552295494  0.23808590644550523  1.0000
  H   H7        1.0  0.750792126495263  0.4323325389042337  0.5845176602921001  1.0000
  H   H8        1.0  0.24920696430470465  0.5676682394502989  0.41548236337749966  1.0000
  H   H9        1.0  0.5992577159179291  0.5653513879879952  0.56934040374842  1.0000
  H   H10       1.0  0.40074149862668657  0.4346483075797635  0.43065830136951194  1.0000
  H   H11       1.0  0.016203020484987007  0.583202177241354  0.8278328028191526  1.0000
  H   H12       1.0  0.9837961923002112  0.41679751985633817  0.1721666739866449  1.0000
  H   H13       1.0  0.9037042857874197  0.5070143909994299  0.9700208370809379  1.0000
  H   H14       1.0  0.09629492699778548  0.49298530609826235  0.029978639724859552  1.0000
  H   H15       1.0  0.42873112890762854  0.7689149680009421  0.007493065740021679  1.0000
  H   H16       1.0  0.5712680821181595  0.2310847306266837  0.9925071827536344  1.0000
  H   H17       1.0  0.3018549574477022  0.7045828251099663  0.9682972027408709  1.0000
  H   H18       1.0  0.6981442535780856  0.29541687351765933  0.03170304575279196  1.0000
  H   H19       1.0  0.24337121970427947  0.8611013403175817  0.13519256563809282  1.0000
  H   H20       1.0  0.7566303622000631  0.13889727817202405  0.8648073127708642  1.0000
  H   H21       1.0  0.32593720574920587  0.9022336438637949  0.2826888757851904  1.0000
  H   H22       1.0  0.6740598730902433  0.09776497697797737  0.7173129641291709  1.0000
  H   H23       1.0  0.9348957808714076  0.21925764710798748  0.34121673112498746  1.0000
  H   H24       1.0  0.06510443349550603  0.780743132570933  0.6587837667780932  1.0000
  H   H25       1.0  0.8778367070476989  0.1737531754838102  0.18415212913259896  1.0000
  H   H26       1.0  0.12216463440501005  0.8262476024596095  0.8158472996282315  1.0000
  H   H27       1.0  0.09400206978635588  0.3199084838085113  0.5888524303297019  1.0000
  H   H28       1.0  0.9059981480993927  0.6800922928105279  0.4111465241976546  1.0000
  H   H29       1.0  0.028872027189422098  0.2900992297627454  0.42867448632004107  1.0000
  H   H30       1.0  0.9711283109221469  0.7099004671293868  0.5713246930313717  1.0000
  H   H31       1.0  0.3345600670916085  0.8940871447384566  0.44211078152016375  1.0000
  H   H32       1.0  0.6654382555406073  0.10591039770078228  0.5578917574517349  1.0000
  H   H33       1.0  0.3878088726341958  0.9449105965019058  0.5992905006384035  1.0000
  H   H34       1.0  0.6121903366321676  0.05508910365566071  0.40071051954312503  1.0000
  C   C1        1.0  0.6506517570490117  0.5296865895089622  0.7263729026938892  1.0000
  C   C2        1.0  0.34934733726979067  0.4703141857857034  0.2736255775999794  1.0000
  C   C3        1.0  0.782583222896598  0.49457707599393064  0.7573669418914123  1.0000
  C   C4        1.0  0.21741574943697375  0.5054247805575754  0.2426320852662656  1.0000
  C   C5        1.0  0.7939699109108461  0.5414530579714236  0.8453216378717062  1.0000
  C   C6        1.0  0.2060293036337697  0.458546637596335  0.1546770672462259  1.0000
  C   C7        1.0  0.6708462446850447  0.6256930630008879  0.9022338297897862  1.0000
  C   C8        1.0  0.3291528478743331  0.3743077138237112  0.09776542219194795  1.0000
  C   C9        1.0  0.5383723338566425  0.6631136453546489  0.8721255832825037  1.0000
  C   C10       1.0  0.4616278840291059  0.3368871312643975  0.1278733712448457  1.0000
  C   C11       1.0  0.5293274463084715  0.6140336161457964  0.7846496588380775  1.0000
  C   C12       1.0  0.4706716462509136  0.3859671606788097  0.2153495931436638  1.0000
  C   C13       1.0  0.6391699550714591  0.4769025655064709  0.6328105918342358  1.0000
  C   C14       1.0  0.3608303830401098  0.5230971313856614  0.36718858751717687  1.0000
  C   C15       1.0  0.5315504948885349  0.36151319204336824  0.6726642720774834  1.0000
  C   C16       1.0  0.4684497229972139  0.638487584575678  0.3273346824498732  1.0000
  C   C17       1.0  0.935345189008899  0.5033772853210648  0.8806843178702692  1.0000
  C   C18       1.0  0.06465390355048582  0.49662349150354135  0.11931493411147195  1.0000
  C   C19       1.0  0.014477403302031207  0.3544344671293658  0.8695155813466613  1.0000
  C   C20       1.0  0.985522816343142  0.6455663079597471  0.13048260149282256  1.0000
  C   C21       1.0  0.4080510054385656  0.7553442954275196  0.9331533500009996  1.0000
  C   C22       1.0  0.5919482055872153  0.244655403200113  0.06684689849266334  1.0000
  C   C23       1.0  0.3772467743098603  0.9048846462333415  0.8588718335433541  1.0000
  C   C24       1.0  0.6227534400570605  0.095116133445579  0.1411286643597265  1.0000
  C   C25       1.0  0.17893059907805764  0.9402526776505266  0.1826533364792625  1.0000
  C   C26       1.0  0.8210719879268352  0.0597470203604331  0.8173460196512538  1.0000
  C   C27       1.0  0.22308420153692052  0.9623055868415232  0.26672068080220873  1.0000
  C   C28       1.0  0.7769161312964031  0.0376941146404235  0.7332808136127936  1.0000
  C   C29       1.0  0.136474251504211  0.06403628778008398  0.3273064000470285  1.0000
  C   C30       1.0  0.8635272084148939  0.9359634119663696  0.6726940252257306  1.0000
  C   C31       1.0  0.009189007943277308  0.14032251186320369  0.2971649639396929  1.0000
  C   C32       1.0  0.9908124519758346  0.8596771878832498  0.7028354613330664  1.0000
  C   C33       1.0  0.9743272340610786  0.11381988758873972  0.21067044330452242  1.0000
  C   C34       1.0  0.025674103872795225  0.8861808934145541  0.7893305288320392  1.0000
  C   C35       1.0  0.14451617818355803  0.22771504248608207  0.5527053088909142  1.0000
  C   C36       1.0  0.8554841581686006  0.7722846559359907  0.4472946421483642  1.0000
  C   C37       1.0  0.10788349753175908  0.2088951480312176  0.46404183265051563  1.0000
  C   C38       1.0  0.8921167203539894  0.7911056285878288  0.5359571218768338  1.0000
  C   C39       1.0  0.17529365806532132  0.0885319912660307  0.4201345297184318  1.0000
  C   C40       1.0  0.8247065580610169  0.9114687868829487  0.5798651964967833  1.0000
  C   C41       1.0  0.2783363621916025  0.991402618892415  0.46981029024256327  1.0000
  C   C42       1.0  0.7216619569217855  0.0085949266066976  0.5301937921050666  1.0000
  C   C43       1.0  0.30924606272711946  0.018381352284158898  0.5580401571440419  1.0000
  C   C44       1.0  0.6907531447798334  0.9816183494033479  0.44196163472534516  1.0000
  N   N1        1.0  0.056600362257391595  0.014707995986235296  0.1546332964255583  1.0000
  N   N2        1.0  0.943399733643126  0.9852938618896584  0.8453662049655934  1.0000
  N   N3        1.0  0.24408509139951917  0.13443076749533836  0.5991559011736882  1.0000
  N   N4        1.0  0.7559141196262685  0.8655689311322875  0.40084434731997487  1.0000
  O   O1        1.0  0.5196631972956995  0.3126130865079162  0.5957880018240047  1.0000
  O   O2        1.0  0.4803358952636856  0.6873876903166901  0.4042112501577294  1.0000
  O   O3        1.0  0.45687860827878524  0.31842317597336484  0.7785146530608318  1.0000
  O   O4        1.0  0.5431217280733663  0.6815765224487081  0.22148529797844674  1.0000
  O   O5        1.0  0.9777104287290542  0.2494258850778265  0.9574650113026452  1.0000
  O   O6        1.0  0.022288667349158704  0.7505748886869056  0.04253269730335775  1.0000
  O   O7        1.0  0.10942979392724081  0.3476705663044938  0.7716673239748034  1.0000
  O   O8        1.0  0.8905691766469062  0.6523312917769529  0.228332474870733  1.0000
  O   O9        1.0  0.2643823881288228  0.9898858380453461  0.9045747118051537  1.0000
  O   O10       1.0  0.7356179464639112  0.010113861906660297  0.09542601092199018  1.0000
  O   O11       1.0  0.45987756940291996  0.9460656393696849  0.7564087370974876  1.0000
  O   O12       1.0  0.5401216398634503  0.05393406078788129  0.24359228308404104  1.0000
