data_image0
_chemical_formula_structural       Al4H10C24N2O24
_chemical_formula_sum              "Al4 H10 C24 N2 O24"
_cell_length_a       6.689388565342417
_cell_length_b       14.785349474716737
_cell_length_c       16.759180913026594
_cell_angle_alpha    86.37817547492362
_cell_angle_beta     89.99916457227715
_cell_angle_gamma    90.0002846571084

_space_group_name_H-M_alt    "P 1"
_space_group_IT_number       1

loop_
  _space_group_symop_operation_xyz
  'x, y, z'

loop_
  _atom_site_type_symbol
  _atom_site_label
  _atom_site_symmetry_multiplicity
  _atom_site_fract_x
  _atom_site_fract_y
  _atom_site_fract_z
  _atom_site_occupancy
  Al  Al1       1.0  0.11377360050732932  0.4990768290553689  0.5003634489828243  1.0000
  Al  Al2       1.0  0.6137565188837684  0.5009318733890282  0.4996468371485178  1.0000
  Al  Al3       1.0  0.6287782115593075  0.999966959615712  0.9994399940365851  1.0000
  Al  Al4       1.0  0.12879202231803794  6.62234022784e-05  0.0005702651807695  1.0000
  H   H1        1.0  0.5749235411484079  0.1816589289777326  0.8027268617734221  1.0000
  H   H2        1.0  0.0750060561843284  0.8185144888429293  0.19745161850579504  1.0000
  H   H3        1.0  0.03613318178549459  0.188372783687484  0.7907889881246176  1.0000
  H   H4        1.0  0.5362407550683557  0.8116294050593637  0.2091898079783618  1.0000
  H   H5        1.0  0.010547494990632301  0.3147525657568693  0.7107419914588248  1.0000
  H   H6        1.0  0.5104585232392793  0.6851075020440336  0.28912260107558296  1.0000
  H   H7        1.0  0.36609037594764965  0.3806255181043738  0.5159888133723383  1.0000
  H   H8        1.0  0.86612263059218  0.6194193380791762  0.48433772223624766  1.0000
  H   H9        1.0  0.37939769835601567  0.11501619518191569  0.017638251140432697  1.0000
  H   H10       1.0  0.8794171502998794  0.8850032622006836  0.9824048309038388  1.0000
  C   C1        1.0  0.3634290026533549  0.6069250725184573  0.6035552874571976  1.0000
  C   C2        1.0  0.8634785961919108  0.39311938443423605  0.39643941844420993  1.0000
  C   C3        1.0  0.3618896751424002  0.6108878868242869  0.3881398261542301  1.0000
  C   C4        1.0  0.8617799587945639  0.3891309693316458  0.6118907453973108  1.0000
  C   C5        1.0  0.7188295867434604  0.2041980879893757  0.7777766480469878  1.0000
  C   C6        1.0  0.21892153522780697  0.7959220836596401  0.2223416404020071  1.0000
  C   C7        1.0  0.8868098461277967  0.1710236907425795  0.8129369268968816  1.0000
  C   C8        1.0  0.3868464187117838  0.8290123664084919  0.1871019587743135  1.0000
  C   C9        1.0  0.7143627220580199  0.2687078427334272  0.7087874676537566  1.0000
  C   C10       1.0  0.2145295921294519  0.731448349575935  0.2913559622545137  1.0000
  C   C11       1.0  0.866351507275624  0.32146228888942835  0.6806045095366356  1.0000
  C   C12       1.0  0.3664206035066258  0.6785499602657978  0.3194057181435852  1.0000
  C   C13       1.0  0.8754858762757677  0.16959000373027777  0.16600887084967297  1.0000
  C   C14       1.0  0.3755539740135845  0.8304855286744582  0.8339409763649003  1.0000
  C   C15       1.0  0.8715670899047083  0.22219195282073664  0.2194589945385204  1.0000
  C   C16       1.0  0.3716917797036245  0.777889991232563  0.7805046177904841  1.0000
  C   C17       1.0  0.867831954619291  0.28017386332234656  0.2785033957721694  1.0000
  C   C18       1.0  0.36791352238250136  0.7198793533107732  0.721482932339839  1.0000
  C   C19       1.0  0.8641433824457254  0.33259541894437206  0.33205387692389365  1.0000
  C   C20       1.0  0.3641888610016366  0.667454383257642  0.6679324591407082  1.0000
  C   C21       1.0  0.3798488124879782  0.8913961875087255  0.11440770889898028  1.0000
  C   C22       1.0  0.8798465358220896  0.1086248718938165  0.8856132503698646  1.0000
  C   C23       1.0  0.3775964907602685  0.8925160768472155  0.8968050039558263  1.0000
  C   C24       1.0  0.8775483674312099  0.10754575870544869  0.10318489060836097  1.0000
  N   N1        1.0  0.5121763948273356  0.27487739110819126  0.671234101922785  1.0000
  N   N2        1.0  0.012551916874691902  0.7254876557709978  0.32912101858729403  1.0000
  O   O1        1.0  0.5328300132316883  0.5860497704249993  0.4148792034167386  1.0000
  O   O2        1.0  0.0326793230100932  0.4138575471506769  0.5850361765199352  1.0000
  O   O3        1.0  0.19298092519899512  0.5828445019614605  0.5788847586643299  1.0000
  O   O4        1.0  0.6930509724005631  0.41706626997819995  0.42124545073042435  1.0000
  O   O5        1.0  0.19313384102888156  0.582969830906926  0.4143794574998125  1.0000
  O   O6        1.0  0.6929817683756953  0.4171695947412958  0.585768802990003  1.0000
  O   O7        1.0  0.03413423616649419  0.4152437792608836  0.4222696082122964  1.0000
  O   O8        1.0  0.5340823711228566  0.5849059618626385  0.5776231688382012  1.0000
  O   O9        1.0  0.3645428616112412  0.4456402793993277  0.5034473486709742  1.0000
  O   O10       1.0  0.8645517822715334  0.5543596922274503  0.49659217494228597  1.0000
  O   O11       1.0  0.2079775845490133  0.9169360180030779  0.9223185910377721  1.0000
  O   O12       1.0  0.7079105561455492  0.08307609313268931  0.07772134661365729  1.0000
  O   O13       1.0  0.5498739498784246  0.9148406661547598  0.0853814071419379  1.0000
  O   O14       1.0  0.0499015947610175  0.08514427554757731  0.9145943551441958  1.0000
  O   O15       1.0  0.5482523592798357  0.9167723780265575  0.9214397459618623  1.0000
  O   O16       1.0  0.0482119700808994  0.0833158681022326  0.07852889734584778  1.0000
  O   O17       1.0  0.7092309412355177  0.084976537748382  0.9136977532250866  1.0000
  O   O18       1.0  0.2091895677484246  0.9150755159690717  0.0863511696112838  1.0000
  O   O19       1.0  0.3788382915912934  0.054715788254611694  0.9980269322829612  1.0000
  O   O20       1.0  0.8788374397498728  0.945309132602091  0.0020059896126695996  1.0000
  O   O21       1.0  0.37769467110831556  0.30238838772234544  0.7143484739644492  1.0000
  O   O22       1.0  0.4911513591110648  0.24855338496261942  0.6034223287523374  1.0000
  O   O23       1.0  0.8776579595695608  0.6980535068558426  0.28615700276230166  1.0000
  O   O24       1.0  0.9921159780992924  0.7519144196380124  0.3969160489592197  1.0000
