data_image0
_chemical_formula_structural       K4P4H36C24N4O32
_chemical_formula_sum              "K4 P4 H36 C24 N4 O32"
_cell_length_a       6.653783619004679
_cell_length_b       12.569555008208951
_cell_length_c       13.364680377509504
_cell_angle_alpha    93.59782197741832
_cell_angle_beta     89.99989055974726
_cell_angle_gamma    89.99992597234662

_space_group_name_H-M_alt    "P 1"
_space_group_IT_number       1

loop_
  _space_group_symop_operation_xyz
  'x, y, z'

loop_
  _atom_site_type_symbol
  _atom_site_label
  _atom_site_symmetry_multiplicity
  _atom_site_fract_x
  _atom_site_fract_y
  _atom_site_fract_z
  _atom_site_occupancy
  K   K1        1.0  0.16178217755005875  0.09998549545681361  0.43563989706664313  1.0000
  K   K2        1.0  0.6617846546169375  0.9000142809914848  0.06435833714585468  1.0000
  K   K3        1.0  0.8382096262251366  0.9000126530154803  0.5643539715253281  1.0000
  K   K4        1.0  0.33820865203995965  0.09998782739156549  0.9356447541022913  1.0000
  P   P1        1.0  0.9718198771462383  0.1799006289723977  0.7300911737584668  1.0000
  P   P2        1.0  0.4718207969483146  0.8200989515801851  0.7699081185595487  1.0000
  P   P3        1.0  0.028180944041473296  0.82009989587322  0.2699080788009311  1.0000
  P   P4        1.0  0.5281800242379547  0.1799015711158347  0.23009188211113235  1.0000
  H   H1        1.0  0.26761620811769393  0.11635926613238469  0.6795305189929407  1.0000
  H   H2        1.0  0.7676177374765629  0.8836404724147543  0.8204674793883766  1.0000
  H   H3        1.0  0.7323816072639245  0.8836404637226705  0.3204679363923545  1.0000
  H   H4        1.0  0.23238308371259112  0.1163600545804613  0.1795310250597453  1.0000
  H   H5        1.0  0.2740945933887886  0.4698247469824964  0.786096106763672  1.0000
  H   H6        1.0  0.7740928843497983  0.5301717895262854  0.7139046813895147  1.0000
  H   H7        1.0  0.7259077307042859  0.530174980721263  0.21390309673066094  1.0000
  H   H8        1.0  0.22590793683716023  0.4698271367375497  0.28609596926379766  1.0000
  H   H9        1.0  0.1437112620966801  0.6392632405080148  0.8721074950212324  1.0000
  H   H10       1.0  0.6437087937726602  0.36073339413514566  0.6278934222913362  1.0000
  H   H11       1.0  0.8562895590935325  0.3607364893459036  0.12789096036257058  1.0000
  H   H12       1.0  0.3562890216053276  0.6392647328389317  0.37210792741042537  1.0000
  H   H13       1.0  0.6013622093607225  0.47291301542948355  0.9476829257740033  1.0000
  H   H14       1.0  0.10136468059452851  0.527086846100154  0.5523159854109563  1.0000
  H   H15       1.0  0.3986371089219319  0.5270859108349198  0.052317724880047885  1.0000
  H   H16       1.0  0.8986376434946024  0.4729136744457064  0.44768476337025465  1.0000
  H   H17       1.0  0.7265379770512723  0.3081172270288021  0.8588520891912166  1.0000
  H   H18       1.0  0.22654120798554803  0.691882538136376  0.6411474461043053  1.0000
  H   H19       1.0  0.2734673528464526  0.6918832935159287  0.1411486595885023  1.0000
  H   H20       1.0  0.7734641219136195  0.30811798455795264  0.3588525545641373  1.0000
  H   H21       1.0  0.0274320971346711  0.012997863880151799  0.20707131210335913  1.0000
  H   H22       1.0  0.5274319784637882  0.9870036036722212  0.292928649550113  1.0000
  H   H23       1.0  0.9725672211473012  0.9870026588164295  0.7929286885680609  1.0000
  H   H24       1.0  0.47256733981818405  0.012996919024367096  0.7070713511213069  1.0000
  H   H25       1.0  0.9296449340143198  0.1324695734243377  0.21008908753224625  1.0000
  H   H26       1.0  0.429645661365079  0.8675315913988939  0.28991047568484146  1.0000
  H   H27       1.0  0.070352881363732  0.8675317485637064  0.7899102140929626  1.0000
  H   H28       1.0  0.570352154013662  0.1324681341569658  0.7100894759229984  1.0000
  H   H29       1.0  0.25653483560632406  0.8524186225461537  0.45353332998286777  1.0000
  H   H30       1.0  0.756534702415877  0.1475818754288625  0.04646635565488568  1.0000
  H   H31       1.0  0.7434644826756482  0.1475819001504348  0.5464666706885523  1.0000
  H   H32       1.0  0.24346461586609539  0.8524186472677258  0.9535336450165343  1.0000
  H   H33       1.0  0.3276024146537821  0.8865990372823873  0.5650243388780252  1.0000
  H   H34       1.0  0.8276023694413581  0.11340144895832079  0.9349751453680137  1.0000
  H   H35       1.0  0.6723954007238929  0.1134014854147622  0.4349756617941407  1.0000
  H   H36       1.0  0.1723954459363171  0.8865990737388287  0.06502485530415207  1.0000
  C   C1        1.0  0.006182418510270799  0.3806730526638233  0.8142911008501554  1.0000
  C   C2        1.0  0.5061821043265341  0.61932528192294  0.6857093027161267  1.0000
  C   C3        1.0  0.9938214084856654  0.6193266728897766  0.18570885075470753  1.0000
  C   C4        1.0  0.49382021976365564  0.38067444148162366  0.31429139700076547  1.0000
  C   C5        1.0  0.1261381032382118  0.47300200429830846  0.8207693058115735  1.0000
  C   C6        1.0  0.6261365356176185  0.5269954407123905  0.6792316779730213  1.0000
  C   C7        1.0  0.8738642208534202  0.5269977212558531  0.17923064579404263  1.0000
  C   C8        1.0  0.37386428556790463  0.47300348340184684  0.3207697207915742  1.0000
  C   C9        1.0  0.055484862297198796  0.5660772435493726  0.8694376067120756  1.0000
  C   C10       1.0  0.555483708638576  0.433920256788518  0.6305626989508182  1.0000
  C   C11       1.0  0.9445174617958756  0.43392248415438667  0.13056159678225746  1.0000
  C   C12       1.0  0.444515609642643  0.5660786673262875  0.36943869981451627  1.0000
  C   C13       1.0  0.864991113831927  0.5651811866711256  0.9139736483544493  1.0000
  C   C14       1.0  0.3649906736187987  0.434817674996637  0.5860264488368114  1.0000
  C   C15       1.0  0.13501121025971233  0.43481853888303595  0.08602630325115969  1.0000
  C   C16       1.0  0.6350101475656587  0.5651820462589042  0.4139749989920957  1.0000
  C   C17       1.0  0.7472702403574871  0.4728738766638044  0.9113397534404083  1.0000
  C   C18       1.0  0.2472710684569392  0.5271258728979616  0.5886597613187161  1.0000
  C   C19       1.0  0.2527305808298479  0.5271258488909254  0.08866019816594667  1.0000
  C   C20       1.0  0.7527312556332574  0.4728738505066019  0.4113409383981688  1.0000
  C   C21       1.0  0.817683018121052  0.3800700642948626  0.8617169388977782  1.0000
  C   C22       1.0  0.31768342923657406  0.6199296279711106  0.6382840023325257  1.0000
  C   C23       1.0  0.18231930596951432  0.6199304584005957  0.13828306177215666  1.0000
  C   C24       1.0  0.6823173919478834  0.3800700932844235  0.3617174454963816  1.0000
  N   N1        1.0  0.7920218870615301  0.6615334019193071  0.9659211752113419  1.0000
  N   N2        1.0  0.29202188142114954  0.3384663139600689  0.534078295216787  1.0000
  N   N3        1.0  0.20797743122295026  0.3384663257855821  0.0340780282844833  1.0000
  N   N4        1.0  0.7079774368608227  0.6615342087365121  0.4659217054546402  1.0000
  O   O1        1.0  0.08466128346429973  0.2956965206147331  0.7598248046947517  1.0000
  O   O2        1.0  0.5846605526579083  0.7043017592036093  0.7401740249072544  1.0000
  O   O3        1.0  0.9153395377244776  0.7043032070895947  0.24017439880032745  1.0000
  O   O4        1.0  0.4153402685294267  0.2956979663511135  0.2598259266991007  1.0000
  O   O5        1.0  0.12253338069373142  0.1329145081067082  0.6488629489782693  1.0000
  O   O6        1.0  0.6225348320546189  0.8670845403473564  0.8511358921705108  1.0000
  O   O7        1.0  0.8774644346889531  0.8670844246070503  0.3511354573426998  1.0000
  O   O8        1.0  0.37746598913165746  0.13291598234866342  0.14886410850017023  1.0000
  O   O9        1.0  0.9764862914625426  0.11693076757440932  0.8234982446841311  1.0000
  O   O10       1.0  0.476487418323579  0.8830688094658825  0.6765010430111855  1.0000
  O   O11       1.0  0.023513026820872106  0.8830697572717696  0.17650100787601264  1.0000
  O   O12       1.0  0.5235118999609014  0.1169309182390066  0.3234981604846395  1.0000
  O   O13       1.0  0.7703511128817482  0.20034151748943427  0.6831670151679317  1.0000
  O   O14       1.0  0.2703519014491889  0.7996582125507457  0.8168332248383547  1.0000
  O   O15       1.0  0.229648205400224  0.7996590052071542  0.31683298550348826  1.0000
  O   O16       1.0  0.7296489197370803  0.20034231014528098  0.18316677583231913  1.0000
  O   O17       1.0  0.9059659693668609  0.7404258173976147  0.9732110130496634  1.0000
  O   O18       1.0  0.4059631778467079  0.259573015580564  0.5267882954413989  1.0000
  O   O19       1.0  0.09403334891655395  0.2595747074485714  0.026788239510480587  1.0000
  O   O20       1.0  0.5940331346302373  0.7404259149841579  0.47321085899159226  1.0000
  O   O21       1.0  0.6191100943175982  0.6626129561794302  0.002821624309405008  1.0000
  O   O22       1.0  0.11911281437345171  0.33738844881845864  0.4971760021917218  1.0000
  O   O23       1.0  0.3808892239679409  0.33738597438416207  0.9971775301221012  1.0000
  O   O24       1.0  0.8808880068150059  0.6626136746089415  0.5028218522737687  1.0000
  O   O25       1.0  0.05190676008124479  0.09015460321805338  0.22768907429168905  1.0000
  O   O26       1.0  0.5519069085107517  0.9098460509214732  0.2723100659412195  1.0000
  O   O27       1.0  0.948092558203605  0.9098459237777307  0.7723094301571788  1.0000
  O   O28       1.0  0.4480924097737287  0.09015367678341589  0.7276891375546054  1.0000
  O   O29       1.0  0.23559319366800932  0.9045930506416158  0.5105995258649968  1.0000
  O   O30       1.0  0.7355914794476633  0.09540750485123078  0.9894000495271055  1.0000
  O   O31       1.0  0.7644076275197024  0.0954074742040021  0.48939972669440107  1.0000
  O   O32       1.0  0.264407838834309  0.9045930178453572  0.01059995114431439  1.0000
