data_image0
_chemical_formula_structural       Al4H28C68I4O36
_chemical_formula_sum              "Al4 H28 C68 I4 O36"
_cell_length_a       6.718054977159888
_cell_length_b       21.382476772575085
_cell_length_c       25.39416160313902
_cell_angle_alpha    83.66421284407818
_cell_angle_beta     90.0971821638989
_cell_angle_gamma    89.78737048879987

_space_group_name_H-M_alt    "P 1"
_space_group_IT_number       1

loop_
  _space_group_symop_operation_xyz
  'x, y, z'

loop_
  _atom_site_type_symbol
  _atom_site_label
  _atom_site_symmetry_multiplicity
  _atom_site_fract_x
  _atom_site_fract_y
  _atom_site_fract_z
  _atom_site_occupancy
  Al  Al1       1.0  0.7395012347268375  0.752436036883438  0.24906888637626415  1.0000
  Al  Al2       1.0  0.26895196461554594  0.25273620023656207  0.7454308849933964  1.0000
  Al  Al3       1.0  0.24026633543205378  0.7545785428701207  0.24764527002211878  1.0000
  Al  Al4       1.0  0.7686724132983115  0.25259858185684436  0.7489554155652839  1.0000
  H   H1        1.0  0.7239610634102505  0.10382645946970107  0.66112318027065  1.0000
  H   H2        1.0  0.26400102313024837  0.9052241174835274  0.3325760856871939  1.0000
  H   H3        1.0  0.2218339642129834  0.4009174918194842  0.8363633460376078  1.0000
  H   H4        1.0  0.7562187981626138  0.5897753897427265  0.16729500450988868  1.0000
  H   H5        1.0  0.2604997369204085  0.10179402555819188  0.5276639250615885  1.0000
  H   H6        1.0  0.7679544973066541  0.8887813814558427  0.4774822625383877  1.0000
  H   H7        1.0  0.7621299066587709  0.39606446813624524  0.9700286561088162  1.0000
  H   H8        1.0  0.21469248215319678  0.5984840945836467  0.0336672188745268  1.0000
  H   H9        1.0  0.924309258830178  0.11046129593914598  0.0292970594648168  1.0000
  H   H10       1.0  0.0830914153389344  0.9039332146841869  0.9727515572471997  1.0000
  H   H11       1.0  0.41964125101721084  0.39571741269502053  0.46509663123912753  1.0000
  H   H12       1.0  0.5893681022797993  0.6004706553644111  0.5228696089399847  1.0000
  H   H13       1.0  0.660761211541555  0.007459777937995701  0.0345191331418917  1.0000
  H   H14       1.0  0.34625154996326296  0.0070429238782949675  0.9671510235890821  1.0000
  H   H15       1.0  0.1614325276416011  0.5006438296151359  0.4601499953770586  1.0000
  H   H16       1.0  0.8471467653858796  0.49548338527122127  0.5283196720296246  1.0000
  H   H17       1.0  0.4642666273598622  0.9842062963710276  0.5509582412466614  1.0000
  H   H18       1.0  0.6136149083476  0.9927221688372466  0.38266506908627207  1.0000
  H   H19       1.0  0.9583603325661442  0.49930012221264514  0.9640650467910985  1.0000
  H   H20       1.0  0.041320263055510495  0.47521830317754155  0.1331629593038599  1.0000
  H   H21       1.0  0.3412938872832071  0.2835800969520078  0.5820778759716702  1.0000
  H   H22       1.0  0.5176368597099382  0.8691673991533546  0.3917870783302532  1.0000
  H   H23       1.0  0.8438017835039844  0.2182033634265039  0.9120504962106892  1.0000
  H   H24       1.0  0.9056126992228714  0.6884426938560962  0.1395435588036023  1.0000
  H   H25       1.0  0.49517198187462713  0.829825445378823  0.21873010942877608  1.0000
  H   H26       1.0  0.519290111042622  0.16939047048199998  0.7523721954901673  1.0000
  H   H27       1.0  0.9941858128792233  0.674954408117344  0.2733631031066536  1.0000
  H   H28       1.0  0.0206765859741864  0.33137240959701597  0.7592657744131515  1.0000
  C   C1        1.0  0.48351732617315696  0.6761792097910514  0.3242351225805534  1.0000
  C   C2        1.0  0.5223405183342038  0.32868837835695075  0.6702876855597849  1.0000
  C   C3        1.0  0.990068362048575  0.8308286489906961  0.1718712560049696  1.0000
  C   C4        1.0  0.025829244966324397  0.17520588512680035  0.8239577622557449  1.0000
  C   C5        1.0  0.4927720993348146  0.6802572970592209  0.18113530872427927  1.0000
  C   C6        1.0  0.5138750440822335  0.3212800842850925  0.816529342820388  1.0000
  C   C7        1.0  0.9877887326228957  0.8220710726350544  0.3171795307390751  1.0000
  C   C8        1.0  0.013530451217874903  0.18420973774917823  0.6782001033739817  1.0000
  C   C9        1.0  0.8280885523669215  0.06139169107715497  0.5937762347052099  1.0000
  C   C10       1.0  0.17189307762397016  0.9419464688240421  0.4047099940815286  1.0000
  C   C11       1.0  0.32441965365120506  0.43797523669564237  0.9063250072577843  1.0000
  C   C12       1.0  0.648481528689807  0.5529584822361356  0.0974886014343852  1.0000
  C   C13       1.0  0.8430239581755146  0.10291704980579647  0.6322403841963008  1.0000
  C   C14       1.0  0.15558579925874486  0.9025893366274286  0.3645486720476469  1.0000
  C   C15       1.0  0.34132299210719447  0.4000871292626797  0.8653806372785482  1.0000
  C   C16       1.0  0.6387372731802613  0.5922287300064043  0.13769635882143658  1.0000
  C   C17       1.0  0.002794855335523  0.1441855556333422  0.6336820600734187  1.0000
  C   C18       1.0  0.0006116079805380965  0.859578189183381  0.36331591273186337  1.0000
  C   C19       1.0  0.5029481116775258  0.3594874401780571  0.8621200708334624  1.0000
  C   C20       1.0  0.4854723603380221  0.636010862269316  0.13969019445500663  1.0000
  C   C21       1.0  0.15063391456031638  0.14551805608686408  0.5942977323594221  1.0000
  C   C22       1.0  0.8621955882720586  0.8534751837754939  0.4050554276382385  1.0000
  C   C23       1.0  0.6516971377353399  0.3563911737279141  0.9015294327583162  1.0000
  C   C24       1.0  0.32943538889169593  0.6376685488634803  0.1023747101278403  1.0000
  C   C25       1.0  0.14368895181409866  0.10212532305290976  0.557379968177095  1.0000
  C   C26       1.0  0.8751452285588428  0.8929433939072735  0.4451122034149008  1.0000
  C   C27       1.0  0.6437525875116066  0.39719872086802605  0.9405364120052865  1.0000
  C   C28       1.0  0.3347026140134587  0.5976286176297164  0.0626626152669516  1.0000
  C   C29       1.0  0.9851456078285851  0.05899861758425826  0.5566749817532397  1.0000
  C   C30       1.0  0.0252036932731485  0.9389760784758039  0.4452612651118669  1.0000
  C   C31       1.0  0.48164833137003876  0.4388272368179927  0.9436834622362013  1.0000
  C   C32       1.0  0.49523242652070815  0.5554086248047196  0.0586266296053424  1.0000
  C   C33       1.0  0.9954275199149549  0.015145640413635397  0.5191206139106085  1.0000
  C   C34       1.0  0.021783564871064698  0.9797692774119043  0.4851805784848223  1.0000
  C   C35       1.0  0.483888165078497  0.4801416773031875  0.9834586366639472  1.0000
  C   C36       1.0  0.49531433261509505  0.515554529812995  0.0178713540351154  1.0000
  C   C37       1.0  0.1293802490525024  0.0196445035215973  0.0393827876943078  1.0000
  C   C38       1.0  0.8775563958814557  0.9948043065214521  0.9623605271876483  1.0000
  C   C39       1.0  0.6293343187521996  0.4850135269854619  0.4557080237506241  1.0000
  C   C40       1.0  0.37920161919074497  0.5111051143136506  0.5326583127603755  1.0000
  C   C41       1.0  0.95844082118073  0.06436859025975389  0.016775838014190504  1.0000
  C   C42       1.0  0.048732139401891986  0.950138524381252  0.9849827456525092  1.0000
  C   C43       1.0  0.4562658207580127  0.441419337490359  0.47791531462417675  1.0000
  C   C44       1.0  0.552467130807983  0.5546209317915823  0.5104486546857173  1.0000
  C   C45       1.0  0.0319954897543866  0.13519815940266258  0.8736915865962301  1.0000
  C   C46       1.0  0.9813433686689238  0.8760453777616842  0.12578761678589956  1.0000
  C   C47       1.0  0.52826064204708  0.3688128806253557  0.6206828686193262  1.0000
  C   C48       1.0  0.4816138961569791  0.6307311948172155  0.37014598446095437  1.0000
  C   C49       1.0  0.19449485318015286  0.007121527206479096  0.9825146227424851  1.0000
  C   C50       1.0  0.8126641944948503  0.007360428063613297  0.0192685297329831  1.0000
  C   C51       1.0  0.6953124406188421  0.49659060585081227  0.5127783831018674  1.0000
  C   C52       1.0  0.3134144483045844  0.49946420002303415  0.47558156126947176  1.0000
  C   C53       1.0  0.024818110103794297  0.053371712615280786  0.958726766157575  1.0000
  C   C54       1.0  0.9822758131985266  0.9611727486017896  0.043077564544077504  1.0000
  C   C55       1.0  0.523559678777147  0.4514492267936772  0.5361372311170882  1.0000
  C   C56       1.0  0.48526732182860133  0.544519510693604  0.45213639728416405  1.0000
  C   C57       1.0  0.036057559617333396  0.0991446360817108  0.9143548122227756  1.0000
  C   C58       1.0  0.9728857204913979  0.9146759262847153  0.08688422694210367  1.0000
  C   C59       1.0  0.5329282076528301  0.4052591322153702  0.580270292718616  1.0000
  C   C60       1.0  0.4758782518097248  0.5915702633277817  0.4087131740602459  1.0000
  C   C61       1.0  0.6401396000287108  0.024369134794412203  0.5942945421389112  1.0000
  C   C62       1.0  0.343710968519936  0.9849778537935593  0.4057925937121141  1.0000
  C   C63       1.0  0.13271061876359616  0.47293198616798526  0.9100222487906465  1.0000
  C   C64       1.0  0.8285494641166194  0.5135911902279204  0.09335006656862528  1.0000
  C   C65       1.0  0.3114299684489623  0.1942822700254823  0.588316262592869  1.0000
  C   C66       1.0  0.7059402510623373  0.802762682367181  0.4101392288804604  1.0000
  C   C67       1.0  0.8131924331287906  0.30749580630213547  0.9056761717662597  1.0000
  C   C68       1.0  0.1617542218194501  0.6843621112205795  0.10462678049007218  1.0000
  I   I1        1.0  0.3212634717817551  0.0378849246323156  0.10210111795931447  1.0000
  I   I2        1.0  0.6860137375952179  0.9768527610007707  0.8997131271860821  1.0000
  I   I3        1.0  0.8203828731944682  0.4657282067428668  0.3932253990983553  1.0000
  I   I4        1.0  0.18854366840608353  0.5298753280886146  0.5951745828136055  1.0000
  O   O1        1.0  0.3278354491615971  0.6952046613902849  0.20064899079245183  1.0000
  O   O2        1.0  0.6864413576672846  0.3055923513625132  0.8015495484325683  1.0000
  O   O3        1.0  0.8163425879466361  0.8033117639571754  0.30467477870115534  1.0000
  O   O4        1.0  0.1857096228031594  0.19926125849225676  0.6935152884844484  1.0000
  O   O5        1.0  0.6517167513566663  0.689356190781602  0.3025616194422511  1.0000
  O   O6        1.0  0.35000566897481633  0.31210234441512336  0.6870967827881954  1.0000
  O   O7        1.0  0.16151557034798708  0.8109157837405405  0.18733957632962014  1.0000
  O   O8        1.0  0.8528630426782157  0.19105982812764916  0.8065982562175477  1.0000
  O   O9        1.0  0.6654546450008779  0.6989436319420647  0.19381858491441048  1.0000
  O   O10       1.0  0.34943454220699977  0.3089296762282031  0.7951023732119892  1.0000
  O   O11       1.0  0.15100205471816958  0.8141574367634234  0.2934647988663812  1.0000
  O   O12       1.0  0.848731726609195  0.19795296363464834  0.6985246941199178  1.0000
  O   O13       1.0  0.8241581614247194  0.8149314722539671  0.19384004546878938  1.0000
  O   O14       1.0  0.1926481060836664  0.1899621070416586  0.8027545227247829  1.0000
  O   O15       1.0  0.31548907834350365  0.6987899510145326  0.30818145289047993  1.0000
  O   O16       1.0  0.6888385835286782  0.3144593055544861  0.6921802325607584  1.0000
  O   O17       1.0  0.49149038593173344  0.7924327147773339  0.24417428026857377  1.0000
  O   O18       1.0  0.5191315076673249  0.21493615442269484  0.7490641612284037  1.0000
  O   O19       1.0  0.9907381678979731  0.7148348707102912  0.2509949256654592  1.0000
  O   O20       1.0  0.0184928193318541  0.290223569962933  0.7466303642205998  1.0000
  O   O21       1.0  0.53095790710492  0.014799473749796697  0.6327504159273261  1.0000
  O   O22       1.0  0.5952465856158469  0.004241254125361073  0.5465767783878023  1.0000
  O   O23       1.0  0.35402677505678065  0.0325723965683338  0.4278731835429851  1.0000
  O   O24       1.0  0.5044366906056865  0.9632581221061826  0.3788503664211191  1.0000
  O   O25       1.0  0.028642010186040102  0.4924416122239703  0.8722002147127057  1.0000
  O   O26       1.0  0.08550509238675369  0.47725379333781587  0.9612058826604651  1.0000
  O   O27       1.0  0.8972061845829556  0.49828969987352395  0.05203932072727469  1.0000
  O   O28       1.0  0.9184436767901473  0.49719191252813016  0.1410497695730086  1.0000
  O   O29       1.0  0.4888019952852929  0.1827296324198286  0.5854651827915588  1.0000
  O   O30       1.0  0.23205864933165543  0.2529708004289617  0.5829237916563628  1.0000
  O   O31       1.0  0.7451555640991643  0.7476332892290927  0.4225960301839108  1.0000
  O   O32       1.0  0.5162775242591238  0.8237141172029679  0.40363574768940674  1.0000
  O   O33       1.0  0.9912107157088315  0.3184103005304379  0.9065052586682467  1.0000
  O   O34       1.0  0.7342088663696272  0.24885004737584634  0.9121479975053929  1.0000
  O   O35       1.0  0.1677948610056674  0.7386793085371224  0.08430898129795851  1.0000
  O   O36       1.0  0.0068031976648015  0.6572104976683661  0.13157015180333076  1.0000
