data_image0
_chemical_formula_structural       Li4H20C8N16O20
_chemical_formula_sum              "Li4 H20 C8 N16 O20"
_cell_length_a       3.465818023006251
_cell_length_b       7.390465457139336
_cell_length_c       24.688494624688932
_cell_angle_alpha    95.46577654248752
_cell_angle_beta     89.9998613823343
_cell_angle_gamma    90.00017468537028

_space_group_name_H-M_alt    "P 1"
_space_group_IT_number       1

loop_
  _space_group_symop_operation_xyz
  'x, y, z'

loop_
  _atom_site_type_symbol
  _atom_site_label
  _atom_site_symmetry_multiplicity
  _atom_site_fract_x
  _atom_site_fract_y
  _atom_site_fract_z
  _atom_site_occupancy
  Li  Li1       1.0  0.37982827665151586  0.6077443860241092  0.370260379719518  1.0000
  Li  Li2       1.0  0.8798315182520752  0.8922566204409963  0.12973913697955197  1.0000
  Li  Li3       1.0  0.6201697899057164  0.3922582790816806  0.6297392826480601  1.0000
  Li  Li4       1.0  0.120169433618905  0.10774332615399372  0.8702604521132213  1.0000
  H   H1        1.0  0.7893275295676005  0.872961641100986  0.472003278830577  1.0000
  H   H2        1.0  0.2893244928889942  0.6270392696180526  0.027997886276594396  1.0000
  H   H3        1.0  0.21067630761132244  0.12703833394962774  0.5279979312387723  1.0000
  H   H4        1.0  0.7106735736528478  0.3729593248319746  0.972002071423695  1.0000
  H   H5        1.0  0.8994921924267913  0.4656059940998818  0.2986306150375099  1.0000
  H   H6        1.0  0.3994942607408801  0.03439452387054591  0.20136885580323843  1.0000
  H   H7        1.0  0.100505874129901  0.5343953046361066  0.7013686054486357  1.0000
  H   H8        1.0  0.6005038058083798  0.9656054227224615  0.7986307332899756  1.0000
  H   H9        1.0  0.8569819773602559  0.3684920250923653  0.3527949101197904  1.0000
  H   H10       1.0  0.3569855861744599  0.13151116016797462  0.14720505212387985  1.0000
  H   H11       1.0  0.14301608919697634  0.6315106400134242  0.6472047522477808  1.0000
  H   H12       1.0  0.6430124803713612  0.8684887935384469  0.8527949422135845  1.0000
  H   H13       1.0  0.2289280166000154  0.6290955781650924  0.47401412005999777  1.0000
  H   H14       1.0  0.728924241652187  0.8709052212127306  0.025985442376942593  1.0000
  H   H15       1.0  0.7710729352675258  0.3709043755433045  0.5259858742770331  1.0000
  H   H16       1.0  0.27107093957934575  0.1290960846346891  0.9740141833538869  1.0000
  H   H17       1.0  0.23011054525466076  0.4260983649597919  0.4519548545302  1.0000
  H   H18       1.0  0.7301045147745738  0.0739019276737665  0.04804507289441059  1.0000
  H   H19       1.0  0.7698932919345935  0.5739015887505874  0.5480451398063905  1.0000
  H   H20       1.0  0.26989355177522617  0.9260993852890494  0.9519549580802359  1.0000
  C   C1        1.0  0.8648458960525005  0.12470622838452532  0.43435567734810815  1.0000
  C   C2        1.0  0.3648466708144653  0.37529425626626534  0.06564461448238029  1.0000
  C   C3        1.0  0.1351550558115875  0.8752937324372855  0.5656447222331734  1.0000
  C   C4        1.0  0.6351485104067434  0.6247070709213889  0.934356226981208  1.0000
  C   C5        1.0  0.6208575877409572  0.008763936134577899  0.36031767920098895  1.0000
  C   C6        1.0  0.12085494415769198  0.491233509399443  0.13968342379531148  1.0000
  C   C7        1.0  0.3791433641122666  0.9912346796576658  0.6396834942316187  1.0000
  C   C8        1.0  0.8791431223955541  0.5087677964499592  0.8603162019350847  1.0000
  N   N1        1.0  0.5833566427037482  0.8746803287010607  0.3920606777490718  1.0000
  N   N2        1.0  0.0833551132535817  0.6253175808495969  0.10794047651183548  1.0000
  N   N3        1.0  0.4166471944711887  0.1253182870931582  0.6079404956830954  1.0000
  N   N4        1.0  0.9166429532996716  0.37468372499980535  0.8920591492185536  1.0000
  N   N5        1.0  0.7348762595788899  0.9494592407238616  0.43931573661264867  1.0000
  N   N6        1.0  0.2348750654093195  0.5505402289024277  0.06068500311661038  1.0000
  N   N7        1.0  0.26512469227832003  0.050540734324769715  0.5606854734571411  1.0000
  N   N8        1.0  0.7651230011365016  0.44945972480399393  0.9393149912208542  1.0000
  N   N9        1.0  0.7871793712177606  0.16326421615609382  0.3825323822765511  1.0000
  N   N10       1.0  0.2871790158270072  0.33673480265470357  0.11746789645711425  1.0000
  N   N11       1.0  0.21282446596804047  0.8367357446676992  0.6174680173042899  1.0000
  N   N12       1.0  0.7128219360479517  0.6632665031966738  0.8825317292728414  1.0000
  N   N13       1.0  0.48746405128508735  0.979786357319199  0.30512434576034747  1.0000
  N   N14       1.0  0.9874580554266429  0.520210733307259  0.19487583889343799  1.0000
  N   N15       1.0  0.5125397858967347  0.0202122442481993  0.6948760171833114  1.0000
  N   N16       1.0  0.012537125804890099  0.47979057254016777  0.8051237868373986  1.0000
  O   O1        1.0  0.8786512538824311  0.49110354977273835  0.3384406832860876  1.0000
  O   O2        1.0  0.3786509564808185  0.0088982988521593  0.16155883050893746  1.0000
  O   O3        1.0  0.1213468126708221  0.5088977560766637  0.6615589424443014  1.0000
  O   O4        1.0  0.6213471100718946  0.9911016406274344  0.8384403533400258  1.0000
  O   O5        1.0  0.32914966284446473  0.5462357704935386  0.4437846979992057  1.0000
  O   O6        1.0  0.8291458949059489  0.9537651735332207  0.056215239305508584  1.0000
  O   O7        1.0  0.6708484037048024  0.4537641760994689  0.556214891094008  1.0000
  O   O8        1.0  0.17084928632214505  0.046236139427605794  0.9437847916695784  1.0000
  O   O9        1.0  0.029429838176199  0.22475543582144303  0.47236662862713513  1.0000
  O   O10       1.0  0.5294312007319988  0.27524458142033137  0.027633359621269393  1.0000
  O   O11       1.0  0.9705711136770246  0.7752431799708007  0.5276345448054726  1.0000
  O   O12       1.0  0.47056975113155636  0.724754013031678  0.9723665980785794  1.0000
  O   O13       1.0  0.303795680405635  0.8384197694991544  0.2916551221185343  1.0000
  O   O14       1.0  0.8037845775348628  0.6615702727912379  0.20834493501871518  1.0000
  O   O15       1.0  0.696219698043123  0.16157203579420812  0.7083450576374801  1.0000
  O   O16       1.0  0.1962134890268956  0.3384351179407475  0.7916552058674708  1.0000
  O   O17       1.0  0.5641418402501371  0.09909024616354861  0.27426739190588717  1.0000
  O   O18       1.0  0.06414869504274628  0.4009044101458272  0.2257340602490103  1.0000
  O   O19       1.0  0.43585334095911316  0.900907003254929  0.7257333396461616  1.0000
  O   O20       1.0  0.9358407155487996  0.5990968885842209  0.7742651602384424  1.0000
