data_image0
_chemical_formula_structural       Cu4H88C96N16O16
_chemical_formula_sum              "Cu4 H88 C96 N16 O16"
_cell_length_a       12.337445814665191
_cell_length_b       17.048815581919417
_cell_length_c       17.04837998821663
_cell_angle_alpha    82.4979121412444
_cell_angle_beta     68.77903723188875
_cell_angle_gamma    68.78579883969799

_space_group_name_H-M_alt    "P 1"
_space_group_IT_number       1

loop_
  _space_group_symop_operation_xyz
  'x, y, z'

loop_
  _atom_site_type_symbol
  _atom_site_label
  _atom_site_symmetry_multiplicity
  _atom_site_fract_x
  _atom_site_fract_y
  _atom_site_fract_z
  _atom_site_occupancy
  Cu  Cu1       1.0  0.4999985832306708  0.5000022715471032  0.5000010074304129  1.0000
  Cu  Cu2       1.0  1.3309631655760186e-06  0.4999986456933172  1.1788133206969907e-06  1.0000
  Cu  Cu3       1.0  5.809281235391681e-07  7.655067699978932e-09  0.4999981930964309  1.0000
  Cu  Cu4       1.0  3.7634661470856657e-06  0.9999999998969004  0.9999996742418625  1.0000
  H   H1        1.0  0.6232961650891936  0.5420804513744388  0.3331898931758558  1.0000
  H   H2        1.0  0.9565864507875407  0.6666827911407579  0.04215811931944556  1.0000
  H   H3        1.0  0.16539887270021608  0.8332627155696952  0.4578367288856882  1.0000
  H   H4        1.0  0.9984219204263671  0.9580647793500956  0.16676518930399453  1.0000
  H   H5        1.0  0.3767078128081212  0.4579171695954684  0.6668077644924251  1.0000
  H   H6        1.0  0.04341163143153921  0.3333142024079123  0.9578468517023351  1.0000
  H   H7        1.0  0.8346008043295614  0.16673679254675017  0.5421590514917795  1.0000
  H   H8        1.0  0.001586310856773314  0.04193661773293662  0.8332368163582797  1.0000
  H   H9        1.0  0.8060790241268736  0.5781575242778131  0.2111576981431682  1.0000
  H   H10       1.0  0.017586607266409485  0.7885555404219742  0.07831294219311499  1.0000
  H   H11       1.0  0.38445184297293644  0.7112641525737189  0.42178226184866924  1.0000
  H   H12       1.0  0.09506865153765905  0.9222481797241712  0.2887374939975586  1.0000
  H   H13       1.0  0.19392079929034656  0.4218369507145141  0.7888396414515169  1.0000
  H   H14       1.0  0.9824145291878423  0.21144711476808453  0.9216877261433253  1.0000
  H   H15       1.0  0.6155534219795272  0.2887366136217651  0.5782124385988466  1.0000
  H   H16       1.0  0.9049326723934932  0.0777475541619381  0.7112621008822514  1.0000
  H   H17       1.0  0.8668674711386262  0.6471707558595056  0.23825653352741225  1.0000
  H   H18       1.0  0.10542883367230624  0.7613859378233839  0.14731621420146718  1.0000
  H   H19       1.0  0.5141955355698331  0.7383900797503741  0.35278440721248217  1.0000
  H   H20       1.0  0.2519817015933229  0.8534077392072702  0.26175945958407704  1.0000
  H   H21       1.0  0.13313179229786726  0.35282875130995  0.7617352170810675  1.0000
  H   H22       1.0  0.8945664256138317  0.23861734689928943  0.8526857488773769  1.0000
  H   H23       1.0  0.4858063661855  0.26161446110579323  0.6472082535193449  1.0000
  H   H24       1.0  0.7480190409841903  0.14658736634536498  0.7382437361968355  1.0000
  H   H25       1.0  0.7240440797321741  0.6880531834191075  0.21977268988448634  1.0000
  H   H26       1.0  0.9440359397465203  0.7802036488670722  0.18823158267013426  1.0000
  H   H27       1.0  0.4123939089355348  0.7197704453637995  0.31187210654034897  1.0000
  H   H28       1.0  0.1317236077653166  0.8123069982073686  0.28050838921811305  1.0000
  H   H29       1.0  0.2759504131733906  0.3119406625393141  0.7802251381960017  1.0000
  H   H30       1.0  0.05596299049229736  0.21979523053710887  0.8117661867008434  1.0000
  H   H31       1.0  0.5876063338005655  0.28023283768903434  0.688122920270899  1.0000
  H   H32       1.0  0.8682782882644208  0.18768873553528917  0.7194906140661386  1.0000
  H   H33       1.0  0.4951235615484608  0.6466671390208916  0.6024586625577156  1.0000
  H   H34       1.0  0.0976941325085223  0.39735739549384863  0.14620278738200193  1.0000
  H   H35       1.0  0.14173660200562935  0.1025938685234777  0.3538932750976186  1.0000
  H   H36       1.0  0.2445546374617113  0.8539150094429004  0.8974399054290668  1.0000
  H   H37       1.0  0.5048864843964156  0.35333111121827443  0.3975395269368035  1.0000
  H   H38       1.0  0.9023052049313168  0.602645259937155  0.8537988497873028  1.0000
  H   H39       1.0  0.8582610781982823  0.8974043795628077  0.6460954142719328  1.0000
  H   H40       1.0  0.7554484826210627  0.14607632064550558  0.10256189189409068  1.0000
  H   H41       1.0  0.5798911568549344  0.7180436641367083  0.574510131943171  1.0000
  H   H42       1.0  0.15447482025903278  0.4250102517256237  0.21778415316781255  1.0000
  H   H43       1.0  0.2978602026637633  0.07477342563121428  0.2823416664750127  1.0000
  H   H44       1.0  0.3727131510659734  0.7824105185387893  0.9253430439550454  1.0000
  H   H45       1.0  0.4201193530277437  0.28195332734653517  0.42548644534094376  1.0000
  H   H46       1.0  0.845528477918656  0.5749898873243211  0.7822191467826581  1.0000
  H   H47       1.0  0.702138386905617  0.9252210479893745  0.7176498170848403  1.0000
  H   H48       1.0  0.6272865711224753  0.2175826993102987  0.07465950829693205  1.0000
  H   H49       1.0  0.6491413393002791  0.6121901913450002  0.6014607902551319  1.0000
  H   H50       1.0  0.2506438380057574  0.3984109188536138  0.11182665704153996  1.0000
  H   H51       1.0  0.2614401142296361  0.101286151414584  0.38833803467920797  1.0000
  H   H52       1.0  0.36296829374242673  0.8883265770943679  0.8987451497821366  1.0000
  H   H53       1.0  0.3508679529216255  0.38780742871266927  0.3985331549607523  1.0000
  H   H54       1.0  0.7493607536193498  0.6015885903420752  0.8881738476588267  1.0000
  H   H55       1.0  0.7385529920483835  0.8987165013760431  0.6116522161785695  1.0000
  H   H56       1.0  0.6370361197877584  0.11166412313977499  0.10125385229090969  1.0000
  H   H57       1.0  0.8322928988783718  0.6587366742458302  0.5130770213860315  1.0000
  H   H58       1.0  0.3447322892309401  0.4864301502917384  0.15931248407946438  1.0000
  H   H59       1.0  0.4904999587493606  0.0136697971143676  0.3405992716707614  1.0000
  H   H60       1.0  0.5043430991320154  0.8411731939420051  0.9871996848068461  1.0000
  H   H61       1.0  0.1677073022285287  0.3412647204377707  0.48691456679758  1.0000
  H   H62       1.0  0.6552791015853574  0.5135737634884023  0.8406894107885134  1.0000
  H   H63       1.0  0.5094955510158037  0.9863341151841849  0.6593958666917813  1.0000
  H   H64       1.0  0.4956644965106635  0.15881687785557116  0.012802592409165866  1.0000
  H   H65       1.0  0.9197823517487934  0.7655764613502216  0.5244155124491241  1.0000
  H   H66       1.0  0.4435732779256229  0.4753375328629446  0.2660797984025364  1.0000
  H   H67       1.0  0.6849188677960711  0.0247968364656543  0.2337445307627916  1.0000
  H   H68       1.0  0.709739646307661  0.7341275551304351  0.9760831796714411  1.0000
  H   H69       1.0  0.08021318985075974  0.23442493429156738  0.47558000254512917  1.0000
  H   H70       1.0  0.5564221982218388  0.524672045633757  0.7339302772074772  1.0000
  H   H71       1.0  0.31507939197818097  0.9752051894954902  0.7662558715848318  1.0000
  H   H72       1.0  0.29026593453878047  0.2658637762322086  0.0239240964492282  1.0000
  H   H73       1.0  0.8041176771978304  0.9076777553902247  0.32427076193817317  1.0000
  H   H74       1.0  0.12784697126325295  0.6758571111005979  0.40794184261992666  1.0000
  H   H75       1.0  0.7119042700022221  0.8239494630701925  0.09218878868581018  1.0000
  H   H76       1.0  0.5351715331834229  0.5924274328808183  0.1762717932492706  1.0000
  H   H77       1.0  0.19587079555471126  0.09232993333075257  0.6757297016927737  1.0000
  H   H78       1.0  0.8721381099872333  0.32414869030122867  0.592059537910515  1.0000
  H   H79       1.0  0.2881086752019898  0.1760462712642124  0.9078130527347809  1.0000
  H   H80       1.0  0.46482459151594246  0.4075695619992458  0.823738767969928  1.0000
  H   H81       1.0  0.7148150030449119  0.8020786119469819  0.3124042851361466  1.0000
  H   H82       1.0  0.026747696899782715  0.6874949104109404  0.30240792787856197  1.0000
  H   H83       1.0  0.5168972788166569  0.8123118559653904  0.19776337933772228  1.0000
  H   H84       1.0  0.32869075204281023  0.6981474779031275  0.18778803332732244  1.0000
  H   H85       1.0  0.2851741656143292  0.19792718864010078  0.6875937601792045  1.0000
  H   H86       1.0  0.9732483340796991  0.31250648489800165  0.697586189566337  1.0000
  H   H87       1.0  0.48311539278945065  0.18768261937774608  0.8022358295604233  1.0000
  H   H88       1.0  0.671309494762504  0.30185140306218716  0.8122163980322836  1.0000
  C   C1        1.0  0.7174737862329154  0.6247804513195305  0.3375874154429112  1.0000
  C   C2        1.0  0.05497820216377393  0.6622130922913813  0.12502890590163673  1.0000
  C   C3        1.0  0.3423577349100243  0.8376381114753358  0.37514511221969127  1.0000
  C   C4        1.0  0.17966143363565856  0.8753484758937943  0.16246535309470292  1.0000
  C   C5        1.0  0.28252954610221803  0.37521779808134437  0.6624070185615734  1.0000
  C   C6        1.0  0.9450262841633406  0.337789561848588  0.8749674069076716  1.0000
  C   C7        1.0  0.6576414781819583  0.16236265539703956  0.6248522803681805  1.0000
  C   C8        1.0  0.8203442102129017  0.124650404348678  0.8375361717663025  1.0000
  C   C9        1.0  0.7095098699649472  0.6617388096958763  0.4092234434043148  1.0000
  C   C10       1.0  0.11845894577407998  0.5905545298923515  0.16202651036415713  1.0000
  C   C11       1.0  0.37126473157132983  0.9092796670003838  0.3381385296291625  1.0000
  C   C12       1.0  0.28036889955946986  0.83837752080845  0.09085576353250956  1.0000
  C   C13       1.0  0.2904926837448374  0.3382613276494837  0.5907726029619694  1.0000
  C   C14       1.0  0.8815476131655516  0.4094493829979413  0.837971466134725  1.0000
  C   C15       1.0  0.6287322851000213  0.0907217291121043  0.6618590259891801  1.0000
  C   C16       1.0  0.7196373800564687  0.16161632597706438  0.9091459229963588  1.0000
  C   C17       1.0  0.6309578569443275  0.6299617288001826  0.4788556083610585  1.0000
  C   C18       1.0  0.1097149490716661  0.5209596692614866  0.1300260504852346  1.0000
  C   C19       1.0  0.26091395206823664  0.97889611251923  0.37009278276667595  1.0000
  C   C20       1.0  0.2398295314381686  0.8702391067934271  0.02118414659681627  1.0000
  C   C21       1.0  0.3690466930515727  0.37003589202627296  0.5211414577116641  1.0000
  C   C22       1.0  0.8902902400941534  0.4790410982138339  0.8699740772806235  1.0000
  C   C23       1.0  0.7390786463197261  0.0211052836504066  0.6299048842515517  1.0000
  C   C24       1.0  0.7601746437308569  0.1297559978985134  0.9788154996107679  1.0000
  C   C25       1.0  0.7822082819128298  0.6346632583953706  0.2468364135367764  1.0000
  C   C26       1.0  0.029236572504423623  0.752948031921285  0.13485428641786254  1.0000
  C   C27       1.0  0.4170641999208798  0.7469078513733579  0.36527037843248406  1.0000
  C   C28       1.0  0.16345654694703177  0.8656830299255774  0.25322451959799946  1.0000
  C   C29       1.0  0.21779108682165577  0.3653331038298048  0.7531595289627546  1.0000
  C   C30       1.0  0.9707637755296618  0.24705210618726883  0.8651449322844368  1.0000
  C   C31       1.0  0.5829398381157634  0.25309291491961966  0.634724699252338  1.0000
  C   C32       1.0  0.8365459946448942  0.13431207538611284  0.7467777073500482  1.0000
  C   C33       1.0  0.5859556504734089  0.6529549520436075  0.5692852455944217  1.0000
  C   C34       1.0  0.155276982191424  0.43047008549866916  0.15270582146346354  1.0000
  C   C35       1.0  0.23891627003596505  0.06935803857953722  0.34740807748168107  1.0000
  C   C36       1.0  0.30842269551315143  0.8474826813408712  0.9307022565767438  1.0000
  C   C37       1.0  0.4140534097795979  0.3470432973920197  0.4307095057266535  1.0000
  C   C38       1.0  0.844725546615969  0.5695325699726866  0.8472960815432555  1.0000
  C   C39       1.0  0.761078915246834  0.9306420978815807  0.6525839990363307  1.0000
  C   C40       1.0  0.6915810221103416  0.15250990702716646  0.06929916381189832  1.0000
  C   C41       1.0  0.7663626490757314  0.7227677359063944  0.4124756077204807  1.0000
  C   C42       1.0  0.17836276637023485  0.5873017889735266  0.22317324695669769  1.0000
  C   C43       1.0  0.4890408527000432  0.9125525525517375  0.27696852964021446  1.0000
  C   C44       1.0  0.4013979628931993  0.7772693590458174  0.08771892072859795  1.0000
  C   C45       1.0  0.23363465970384592  0.2772361761512059  0.5875185618091974  1.0000
  C   C46       1.0  0.8216417107018189  0.41270023668952405  0.7768260751581618  1.0000
  C   C47       1.0  0.5109605568125632  0.0874475850805254  0.7230286999171864  1.0000
  C   C48       1.0  0.5986034345015484  0.22272574655276864  0.9122844894105596  1.0000
  C   C49       1.0  0.8247971472671979  0.7137059821100706  0.4720315898015314  1.0000
  C   C50       1.0  0.29628553922934503  0.5276620475396641  0.21417915523902295  1.0000
  C   C51       1.0  0.5382320987341701  0.9723074897377372  0.28581257089973616  1.0000
  C   C52       1.0  0.5104981045865316  0.7862223758387543  0.028269628826770112  1.0000
  C   C53       1.0  0.17520108013291516  0.2862947839587592  0.5279623646129037  1.0000
  C   C54       1.0  0.7037158644307483  0.47234564172150323  0.7858239836491946  1.0000
  C   C55       1.0  0.4617664277061737  0.0276957937454512  0.7141842306981799  1.0000
  C   C56       1.0  0.4895057946613407  0.21377084285423822  0.9717366274360656  1.0000
  C   C57       1.0  0.8747094384358437  0.773008515148568  0.4781464107036226  1.0000
  C   C58       1.0  0.3522947078184018  0.5216782236872745  0.2734528904971824  1.0000
  C   C59       1.0  0.6474939352672993  0.978341738388366  0.22648361433888195  1.0000
  C   C60       1.0  0.6257116154317258  0.7268098722180129  0.022295237030519353  1.0000
  C   C61       1.0  0.12528524181969686  0.22699476824831072  0.521849910698627  1.0000
  C   C62       1.0  0.64770370174584  0.47832694925558167  0.7265519710929168  1.0000
  C   C63       1.0  0.3525087266032688  0.021659657569472298  0.7735134526422484  1.0000
  C   C64       1.0  0.3742902782749624  0.2731852345169657  0.9777130088314294  1.0000
  C   C65       1.0  0.8674717098853224  0.8433428129557399  0.42486458791716314  1.0000
  C   C66       1.0  0.29184934105637717  0.5751735212593374  0.34368050911265857  1.0000
  C   C67       1.0  0.7108502179279983  0.9247363301628366  0.15632941078023063  1.0000
  C   C68       1.0  0.6353001098198234  0.6565057714716076  0.07563031011439848  1.0000
  C   C69       1.0  0.1325228622094272  0.15665921182866782  0.5751307128702478  1.0000
  C   C70       1.0  0.7081395707315823  0.4248354268317058  0.6563241989483258  1.0000
  C   C71       1.0  0.28915260937988324  0.0752650661737988  0.8436692681084919  1.0000
  C   C72       1.0  0.36469860870637666  0.3434899651691765  0.9243808938767301  1.0000
  C   C73       1.0  0.8110549335804083  0.8521961144707078  0.3645555825788377  1.0000
  C   C74       1.0  0.17512158626019703  0.6354763768638917  0.3525054802079453  1.0000
  C   C75       1.0  0.6633149927406168  0.8643761281271197  0.14758708430138504  1.0000
  C   C76       1.0  0.5272471333502723  0.6478077526556518  0.13586374303485366  1.0000
  C   C77       1.0  0.18893323087684893  0.1478084283589922  0.6354450431741724  1.0000
  C   C78       1.0  0.8248636031510732  0.36453068315041287  0.6474969209373354  1.0000
  C   C79       1.0  0.336693502345817  0.1356221229211911  0.8524144918873942  1.0000
  C   C80       1.0  0.4727495380055446  0.3521879836578777  0.8641460119277367  1.0000
  C   C81       1.0  0.7614392368675388  0.7927657872960409  0.3581555126925977  1.0000
  C   C82       1.0  0.1191249443903788  0.6417615518190516  0.293108457550339  1.0000
  C   C83       1.0  0.5542312557964096  0.8580675844057593  0.20704930914074987  1.0000
  C   C84       1.0  0.41191500207487747  0.7073285426837899  0.14211613646889978  1.0000
  C   C85       1.0  0.23855564352251019  0.20723938337963688  0.6418396259727499  1.0000
  C   C86       1.0  0.8808751236533469  0.3582411023780664  0.7068879666588684  1.0000
  C   C87       1.0  0.44577468655263913  0.14193003670199295  0.7929489916022587  1.0000
  C   C88       1.0  0.5880836018982768  0.2926697104243488  0.8578938849367148  1.0000
  C   C89       1.0  0.9143625977217199  0.9105610711532393  0.43327040351227436  1.0000
  C   C90       1.0  0.3472941179448913  0.5669522718484712  0.4107799023348021  1.0000
  C   C91       1.0  0.825175071754991  0.9329293358625109  0.08922245076828253  1.0000
  C   C92       1.0  0.7577986666676182  0.5892737604442714  0.06728878440328855  1.0000
  C   C93       1.0  0.0856287419160253  0.08944284177064789  0.5667272641115629  1.0000
  C   C94       1.0  0.6526870829633467  0.4330554191161299  0.5892298639459526  1.0000
  C   C95       1.0  0.17482767283423375  0.06707206028472967  0.9107754221666438  1.0000
  C   C96       1.0  0.24220034110400268  0.41072008858486697  0.9327222047753876  1.0000
  N   N1        1.0  0.6487955328698406  0.5741091679348854  0.36591999217252874  1.0000
  N   N2        1.0  0.014746652018907189  0.6339503026979755  0.0742241005322413  1.0000
  N   N3        1.0  0.22299198960178793  0.8659523275336553  0.4258470879419106  1.0000
  N   N4        1.0  0.08868647357287791  0.9259717907717757  0.134098152930612  1.0000
  N   N5        1.0  0.3512088997102156  0.4258865658021734  0.6340790625908993  1.0000
  N   N6        1.0  0.9852569701013967  0.36604983564032517  0.9257761899612756  1.0000
  N   N7        1.0  0.7770085076825455  0.1340471810075385  0.5741505187014011  1.0000
  N   N8        1.0  0.9113209947322294  0.07402834765282762  0.8659026177585716  1.0000
  N   N9        1.0  0.5943696633464275  0.5771471088841976  0.4506946919382741  1.0000
  N   N10       1.0  0.045101849170045304  0.5491773637304647  0.07716490356852289  1.0000
  N   N11       1.0  0.17155681158599417  0.9507228893674122  0.4228733405267064  1.0000
  N   N12       1.0  0.1222429826008167  0.9230126405870037  0.049308897253077084  1.0000
  N   N13       1.0  0.40563342776474814  0.4228511414177163  0.5493035574769606  1.0000
  N   N14       1.0  0.9549018556689152  0.45082277479723826  0.9228361928787974  1.0000
  N   N15       1.0  0.8284401796432237  0.049277248321999395  0.5771240004305794  1.0000
  N   N16       1.0  0.8777650578028758  0.0769874976941551  0.9506912818405552  1.0000
  O   O1        1.0  0.973281944963823  0.8943214498684497  0.4870362206385434  1.0000
  O   O2        1.0  0.45989394267017786  0.5129949323235221  0.3945542675253931  1.0000
  O   O3        1.0  0.8675063668439125  0.9869359207035443  0.10542086803015141  1.0000
  O   O4        1.0  0.8541974667156326  0.6054273008442904  0.013290272301375762  1.0000
  O   O5        1.0  0.026718221445882904  0.10567805791515639  0.5129581621895695  1.0000
  O   O6        1.0  0.5400911900043113  0.4870171624735348  0.6054536136286187  1.0000
  O   O7        1.0  0.1325006531707162  0.013062329874074399  0.8945786675345386  1.0000
  O   O8        1.0  0.1458028917799371  0.39456466009691826  0.9867185129199425  1.0000
  O   O9        1.0  0.8956603686561095  0.9771218625813063  0.3918240234873878  1.0000
  O   O10       1.0  0.28737309856688864  0.60866327482492  0.4772344584457073  1.0000
  O   O11       1.0  0.8734863327977538  0.8911555057489052  0.022811710114218908  1.0000
  O   O12       1.0  0.7642255243856725  0.5228603416721995  0.10897797290064658  1.0000
  O   O13       1.0  0.10433204864722279  0.022882679812447296  0.6081748789581382  1.0000
  O   O14       1.0  0.7126048855316542  0.3913431576762462  0.5227748273365902  1.0000
  O   O15       1.0  0.12651011463781003  0.1088502940637852  0.9771832658234628  1.0000
  O   O16       1.0  0.23577359100699638  0.4771309894203455  0.8910279655913907  1.0000
