data_image0
_chemical_formula_structural       Ni4H20C20N8Cl4O12
_chemical_formula_sum              "Ni4 H20 C20 N8 Cl4 O12"
_cell_length_a       7.557224285320699
_cell_length_b       10.3979891004759
_cell_length_c       11.110611924114837
_cell_angle_alpha    89.9995538662065
_cell_angle_beta     89.99973963787207
_cell_angle_gamma    90.00101340567686

_space_group_name_H-M_alt    "P 1"
_space_group_IT_number       1

loop_
  _space_group_symop_operation_xyz
  'x, y, z'

loop_
  _atom_site_type_symbol
  _atom_site_label
  _atom_site_symmetry_multiplicity
  _atom_site_fract_x
  _atom_site_fract_y
  _atom_site_fract_z
  _atom_site_occupancy
  Ni  Ni1       1.0  0.26850782939316536  0.7758777550494146  0.6751657303987246  1.0000
  Ni  Ni2       1.0  0.7685245416640215  0.22412098322686794  0.3248342877239098  1.0000
  Ni  Ni3       1.0  0.2685198300545792  0.2758775603480003  0.8248325476427997  1.0000
  Ni  Ni4       1.0  0.7685032783832355  0.7241240630490893  0.17516567040311065  1.0000
  H   H1        1.0  0.5023529108211308  0.823786786977152  0.8612071510078609  1.0000
  H   H2        1.0  0.0023504134877541005  0.1762142702219123  0.13878919970660775  1.0000
  H   H3        1.0  0.5023754018690029  0.3237968199259456  0.6388008521294923  1.0000
  H   H4        1.0  0.0023583570685659005  0.676218663336698  0.3611954984856284  1.0000
  H   H5        1.0  0.4468818894465371  0.9464354590969322  0.7861947278460594  1.0000
  H   H6        1.0  0.9468766945591865  0.05355789828837489  0.21380203209414367  1.0000
  H   H7        1.0  0.4468853602123631  0.44644581979606107  0.7138071688641932  1.0000
  H   H8        1.0  0.9468838099547484  0.553568695606458  0.2861868908622541  1.0000
  H   H9        1.0  0.011003772877323598  0.9689685955641208  0.8159452655096476  1.0000
  H   H10       1.0  0.5110061702221174  0.0310296886834109  0.18404835801811717  1.0000
  H   H11       1.0  0.011031258210394398  0.4689734375364267  0.6840416326408774  1.0000
  H   H12       1.0  0.5110144122807726  0.5310238852183247  0.3159519908344422  1.0000
  H   H13       1.0  0.036668338697261  0.5704459208038273  0.04564704756143101  1.0000
  H   H14       1.0  0.5366871759955246  0.4295623135382627  0.9543599962095899  1.0000
  H   H15       1.0  0.036696686760628  0.07044367001523001  0.4543509025028528  1.0000
  H   H16       1.0  0.5366839693670186  0.9295539855935429  0.5456390404984932  1.0000
  H   H17       1.0  0.8357573374607198  0.9410402355922545  0.005278554750610502  1.0000
  H   H18       1.0  0.3357728283181629  0.058962259930034094  0.9947131525795145  1.0000
  H   H19       1.0  0.8357973284192469  0.4410462993257269  0.49470703634638385  1.0000
  H   H20       1.0  0.33576988794777674  0.5589523495315091  0.5052864710204475  1.0000
  C   C1        1.0  0.23112463655694174  0.5658083281681173  0.8365635933713025  1.0000
  C   C2        1.0  0.7311236633127224  0.4342033893599933  0.16344014186248762  1.0000
  C   C3        1.0  0.2311377020980743  0.06579603319850238  0.6634327083763908  1.0000
  C   C4        1.0  0.731135739075043  0.9341974117515123  0.3365656266409901  1.0000
  C   C5        1.0  0.0171767499078612  0.8792010674982791  0.8658969219660054  1.0000
  C   C6        1.0  0.5171922282377039  0.12079441171543688  0.13409488215584994  1.0000
  C   C7        1.0  0.017191332346023106  0.3791986376301821  0.6341059015188152  1.0000
  C   C8        1.0  0.5171895548195594  0.6207920329664062  0.36590300336993675  1.0000
  C   C9        1.0  0.12434978936089182  0.6734897778090955  0.8880492873074461  1.0000
  C   C10       1.0  0.6243558207733884  0.32651574652743426  0.11196198234897284  1.0000
  C   C11       1.0  0.12435790172477108  0.1734836881676074  0.6119600767058061  1.0000
  C   C12       1.0  0.6243516779847625  0.8265102955054573  0.38805029294535853  1.0000
  C   C13       1.0  0.030523814841636507  0.6594783181041423  0.9945710700248542  1.0000
  C   C14       1.0  0.5305322104661842  0.3405298365150032  0.0054305927457818015  1.0000
  C   C15       1.0  0.030541892858607898  0.1594769756010166  0.5054296876297643  1.0000
  C   C16       1.0  0.5305353040322843  0.8405129064028928  0.49456927505197984  1.0000
  C   C17       1.0  0.921023953727719  0.8647334891932272  0.9718807214093845  1.0000
  C   C18       1.0  0.4210436939129423  0.1352624182452757  0.028109819106525408  1.0000
  C   C19       1.0  0.9210458517956968  0.36473676361116963  0.5281166776521928  1.0000
  C   C20       1.0  0.42103767450416296  0.6352476031764455  0.4718882635272409  1.0000
  N   N1        1.0  0.11795082770636611  0.7833256678325924  0.8238913209866326  1.0000
  N   N2        1.0  0.617967018519579  0.21667785018156138  0.17611096827844366  1.0000
  N   N3        1.0  0.1179624864845081  0.2833228829883581  0.6761109748794143  1.0000
  N   N4        1.0  0.6179580060185544  0.7166642857278802  0.32389131444015373  1.0000
  N   N5        1.0  0.9275506014872549  0.7549133687314793  0.035353029829451516  1.0000
  N   N6        1.0  0.42757475051496396  0.2450903171299004  0.9646455905943514  1.0000
  N   N7        1.0  0.9275749119151373  0.254911992644459  0.46464710982780144  1.0000
  N   N8        1.0  0.42756631880781987  0.7450830377735044  0.535357810885259  1.0000
  Cl  Cl1       1.0  0.016646352436026704  0.7034135698363285  0.5574464955388337  1.0000
  Cl  Cl2       1.0  0.5166627127898878  0.29658863453054357  0.4425561107023201  1.0000
  Cl  Cl3       1.0  0.0166416974690122  0.20341141858880718  0.9425404898150948  1.0000
  Cl  Cl4       1.0  0.5166289939113683  0.7965927089895074  0.05745941635787941  1.0000
  O   O1        1.0  0.3213078336174178  0.5908776217371212  0.7418422068491711  1.0000
  O   O2        1.0  0.8213294487356039  0.40912564811697644  0.2581639463266328  1.0000
  O   O3        1.0  0.3213295369123373  0.09087799051771128  0.7581599331227766  1.0000
  O   O4        1.0  0.8213196545789285  0.9091223942897955  0.24183451951908108  1.0000
  O   O5        1.0  0.48670761779191457  0.8559086341171991  0.7776437060394132  1.0000
  O   O6        1.0  0.9867111664977344  0.14408812490091094  0.2223601295876563  1.0000
  O   O7        1.0  0.4867229412572911  0.3559208460431691  0.7223677158010704  1.0000
  O   O8        1.0  0.986717015036277  0.6440913007333009  0.2776289194141981  1.0000
  O   O9        1.0  0.21914125533082537  0.45834782833234294  0.8888725475912909  1.0000
  O   O10       1.0  0.7191273405463862  0.5416521929769829  0.11114292572516864  1.0000
  O   O11       1.0  0.21914952588547723  0.9583552963784003  0.6111290762100695  1.0000
  O   O12       1.0  0.7191495045465502  0.04164761038516221  0.3888665961588418  1.0000
