data_image0
_chemical_formula_structural       K4V4H48C28N8O36
_chemical_formula_sum              "K4 V4 H48 C28 N8 O36"
_cell_length_a       6.851730192280525
_cell_length_b       8.261474712041332
_cell_length_c       23.104800511537125
_cell_angle_alpha    89.99982316193305
_cell_angle_beta     98.13382963123166
_cell_angle_gamma    90.00034778846609

_space_group_name_H-M_alt    "P 1"
_space_group_IT_number       1

loop_
  _space_group_symop_operation_xyz
  'x, y, z'

loop_
  _atom_site_type_symbol
  _atom_site_label
  _atom_site_symmetry_multiplicity
  _atom_site_fract_x
  _atom_site_fract_y
  _atom_site_fract_z
  _atom_site_occupancy
  K   K1        1.0  0.6229211182318437  0.17110100331883168  0.18478175002521627  1.0000
  K   K2        1.0  0.8770785438957915  0.6710977782503775  0.3152205112281338  1.0000
  K   K3        1.0  0.3770674303296316  0.8288990609186232  0.8152199082349161  1.0000
  K   K4        1.0  0.12292905180004962  0.3288950234259502  0.684777573080176  1.0000
  V   V1        1.0  0.07779494324144312  0.8385132443287591  0.15786482853422976  1.0000
  V   V2        1.0  0.422206734813578  0.3385202709392417  0.34213441507408515  1.0000
  V   V3        1.0  0.9222095501162926  0.16149166174112392  0.8421275061937836  1.0000
  V   V4        1.0  0.5777906357353828  0.6614918976996834  0.6578667268916052  1.0000
  H   H1        1.0  0.35694678992126677  0.5966499984268907  0.2421380074216942  1.0000
  H   H2        1.0  0.1430518047855855  0.09666237268542233  0.2578622396805558  1.0000
  H   H3        1.0  0.6430402488816682  0.4033536971255317  0.7578622925749986  1.0000
  H   H4        1.0  0.8569366964770284  0.9033485854982929  0.7421376854029024  1.0000
  H   H5        1.0  0.5419038106888863  0.5528558242963584  0.19790622834346297  1.0000
  H   H6        1.0  0.9581008674590308  0.052860964904375904  0.3020933288632791  1.0000
  H   H7        1.0  0.45809503408828794  0.44714423996966  0.8020949720098829  1.0000
  H   H8        1.0  0.04189647940577149  0.9471463619876915  0.6979069465182309  1.0000
  H   H9        1.0  0.09445007409167519  0.9392254810718016  0.955102645049941  1.0000
  H   H10       1.0  0.4055457732097594  0.4392156503694551  0.5448981551460934  1.0000
  H   H11       1.0  0.9055457984672799  0.06077095187790601  0.04489757195320012  1.0000
  H   H12       1.0  0.5944545221605041  0.5607819930285417  0.4551022370048516  1.0000
  H   H13       1.0  0.16472714072440203  0.7439821520421362  0.9363462954201796  1.0000
  H   H14       1.0  0.33527328559093666  0.24396695317157938  0.5636548959585073  1.0000
  H   H15       1.0  0.8352687200088198  0.2560167017847236  0.06365348828892083  1.0000
  H   H16       1.0  0.6647270334348859  0.7560270589097585  0.4363463627800429  1.0000
  H   H17       1.0  0.11044338164782631  0.45940406668695044  0.2016682326758002  1.0000
  H   H18       1.0  0.3895575909124176  0.9594119474310078  0.2983291217637075  1.0000
  H   H19       1.0  0.8895510166624874  0.5405984184474376  0.7983319259421298  1.0000
  H   H20       1.0  0.6104411237081069  0.04059295860606232  0.701667312363924  1.0000
  H   H21       1.0  0.17471385506964046  0.36699486124084063  0.13745982109917784  1.0000
  H   H22       1.0  0.32528945400114406  0.8669945870153628  0.3625381580181328  1.0000
  H   H23       1.0  0.8252805550786632  0.6330088343293312  0.8625407708113433  1.0000
  H   H24       1.0  0.674707774508228  0.13300789814474004  0.6374577844346451  1.0000
  H   H25       1.0  0.47398677954939916  0.6958922791146167  0.10082187796105305  1.0000
  H   H26       1.0  0.026016978883625107  0.19589071100609357  0.3991810639202529  1.0000
  H   H27       1.0  0.5260164880104838  0.30410052253617453  0.8991794975435144  1.0000
  H   H28       1.0  0.9739848499129948  0.8041033010732052  0.6008215530802661  1.0000
  H   H29       1.0  0.43759806299316045  0.48450014501180777  0.10067163866184363  1.0000
  H   H30       1.0  0.0624046242162848  0.9844957721371732  0.39932835365993935  1.0000
  H   H31       1.0  0.5624037303139956  0.5154974983860188  0.8993296784580027  1.0000
  H   H32       1.0  0.9376001176126749  0.015497029517163707  0.6006730802273952  1.0000
  H   H33       1.0  0.09441609466252741  0.5378483551902349  0.03956487445809392  1.0000
  H   H34       1.0  0.4055879527573224  0.037839737726336906  0.4604339204908572  1.0000
  H   H35       1.0  0.9055885761793192  0.4621492882258595  0.9604339596688692  1.0000
  H   H36       1.0  0.5944196784524961  0.9621566952573418  0.5395654636951904  1.0000
  H   H37       1.0  0.3044765722817644  0.5612552799512545  0.005201384584182704  1.0000
  H   H38       1.0  0.19552770414772166  0.061244068024898006  0.4947999912242908  1.0000
  H   H39       1.0  0.6955340193164545  0.4387459947882421  0.9947985496585121  1.0000
  H   H40       1.0  0.8044755634203398  0.9387511545011766  0.5052013842793033  1.0000
  H   H41       1.0  0.43913186139494803  0.16453330368914015  0.04525354794729001  1.0000
  H   H42       1.0  0.06088475259104341  0.6645332807603741  0.454742578716939  1.0000
  H   H43       1.0  0.5608845207662226  0.835465550206017  0.9547427201898205  1.0000
  H   H44       1.0  0.9391138909892546  0.33546073134905907  0.5452512556566875  1.0000
  H   H45       1.0  0.27690087133695573  0.09241849780570992  0.07816586711209082  1.0000
  H   H46       1.0  0.22310945336368349  0.592403863693889  0.42183355060069533  1.0000
  H   H47       1.0  0.7231112064051074  0.9075948813119301  0.9218345588015427  1.0000
  H   H48       1.0  0.7768980949965183  0.4075889379898855  0.5781628005353385  1.0000
  C   C1        1.0  0.4148301457014227  0.6313572018198886  0.20195804090114688  1.0000
  C   C2        1.0  0.0851760901264313  0.1313616639069508  0.2980437699729564  1.0000
  C   C3        1.0  0.5851672129727704  0.368642862444439  0.7980426677763649  1.0000
  C   C4        1.0  0.9148257505408707  0.8686432421093074  0.7019592803162313  1.0000
  C   C5        1.0  0.47935917930124117  0.8070293662007587  0.20838411992082945  1.0000
  C   C6        1.0  0.0206483489668017  0.30703718272794606  0.2916214487428733  1.0000
  C   C7        1.0  0.520639606318646  0.1929743293875036  0.7916149139657097  1.0000
  C   C8        1.0  0.9793505550126013  0.6929725650299261  0.7083819180719007  1.0000
  C   C9        1.0  0.12258216645927429  0.47968518284896794  0.15538398315615615  1.0000
  C   C10       1.0  0.3774175160629128  0.979687755013615  0.34461502969899993  1.0000
  C   C11       1.0  0.8774122200048708  0.5203136709743391  0.8446157421701773  1.0000
  C   C12       1.0  0.6225812458809871  0.0203135197030804  0.6553831376023782  1.0000
  C   C13       1.0  0.9166012425213667  0.5221737220824212  0.12577901566319843  1.0000
  C   C14       1.0  0.5834032521576661  0.022176299354725898  0.37422143290501014  1.0000
  C   C15       1.0  0.0833872350407461  0.4778275526038486  0.8742200428380332  1.0000
  C   C16       1.0  0.4166014305221779  0.9778225544971523  0.6257778345145371  1.0000
  C   C17       1.0  0.3603028962678181  0.6014306546906456  0.09800143808574553  1.0000
  C   C18       1.0  0.13970010613452638  0.10142843815111043  0.4019972471382688  1.0000
  C   C19       1.0  0.6396958893316479  0.3985669887093908  0.9019975958032378  1.0000
  C   C20       1.0  0.8603016989942843  0.8985655739319117  0.5980045032761085  1.0000
  C   C21       1.0  0.22729352976180187  0.6124237612565082  0.03959062486138271  1.0000
  C   C22       1.0  0.272709570492367  0.11241324791384243  0.46040891807572865  1.0000
  C   C23       1.0  0.7727126153532069  0.3875750926007769  0.9604082676478644  1.0000
  C   C24       1.0  0.7272980962110083  0.8875807641889609  0.5395917659905083  1.0000
  C   C25       1.0  0.1653631335834973  0.7842828155638986  0.024309100867142813  1.0000
  C   C26       1.0  0.33464268395997726  0.2842724883349703  0.4756933947363679  1.0000
  C   C27       1.0  0.8346400629933654  0.21571603828628846  0.9756896748765702  1.0000
  C   C28       1.0  0.665363579477777  0.7157215237531178  0.5243098307055122  1.0000
  N   N1        1.0  0.2588581928450182  0.6168281396880249  0.15080615903433175  1.0000
  N   N2        1.0  0.24114498451726968  0.11682932859883272  0.34919511351400717  1.0000
  N   N3        1.0  0.7411376797261936  0.3831719245746187  0.8491940579673457  1.0000
  N   N4        1.0  0.7588568087939721  0.8831695252366318  0.6508062036053561  1.0000
  N   N5        1.0  0.14789509138024212  0.8276135258186912  0.9685496676444321  1.0000
  N   N6        1.0  0.3521087888858219  0.3275999054774842  0.5314494065055586  1.0000
  N   N7        1.0  0.85210220811215  0.17238290714200846  0.031448874569200314  1.0000
  N   N8        1.0  0.647894455006245  0.6723928961770227  0.46855110241286735  1.0000
  O   O1        1.0  0.3607177032442549  0.9111558774193825  0.17877321533489982  1.0000
  O   O2        1.0  0.13928021988986222  0.4111579953555591  0.32123229386776603  1.0000
  O   O3        1.0  0.6392855051665193  0.08884297642894272  0.8212259937018873  1.0000
  O   O4        1.0  0.8607173163174764  0.5888493315067224  0.6787749142028405  1.0000
  O   O5        1.0  0.630742757640121  0.8484253718760472  0.24089345473010587  1.0000
  O   O6        1.0  0.8692566510120017  0.34843648161597685  0.2591094715400858  1.0000
  O   O7        1.0  0.3692589765015767  0.15157348196872533  0.7591056959239072  1.0000
  O   O8        1.0  0.13074522514477144  0.6515647930817536  0.7408948786297744  1.0000
  O   O9        1.0  0.8807716897154236  0.6749248436325602  0.11769454550061205  1.0000
  O   O10       1.0  0.6192279509226991  0.17493116649056623  0.38230597948904704  1.0000
  O   O11       1.0  0.1192241946774359  0.3250715893152859  0.8823061047956035  1.0000
  O   O12       1.0  0.3807693485656074  0.8250640560324884  0.6176925627250756  1.0000
  O   O13       1.0  0.7910159869238385  0.4142145281936323  0.11118016944283232  1.0000
  O   O14       1.0  0.7089867196982454  0.914218266091112  0.38881935412979385  1.0000
  O   O15       1.0  0.2089769252794085  0.5857867465014195  0.8888194974997605  1.0000
  O   O16       1.0  0.29100912919697924  0.08577937729996422  0.6111799962867226  1.0000
  O   O17       1.0  0.13682486063493118  0.8835614533845446  0.06411586642037292  1.0000
  O   O18       1.0  0.36317865490815393  0.38355041059271144  0.4358855656691248  1.0000
  O   O19       1.0  0.8631783596056621  0.11643619002427393  0.9358837759099646  1.0000
  O   O20       1.0  0.6368260869167202  0.6164411806239798  0.5641158682187  1.0000
  O   O21       1.0  0.05456472493886369  0.7840129407641003  0.22396994165326597  1.0000
  O   O22       1.0  0.4454351700913861  0.2840182436237201  0.2760314540446417  1.0000
  O   O23       1.0  0.9454370920442798  0.21598712350529337  0.7760322420517414  1.0000
  O   O24       1.0  0.5545533429806184  0.7159854519322553  0.7239689043348111  1.0000
  O   O25       1.0  0.8657062669524224  0.9758383249146833  0.13329579712630146  1.0000
  O   O26       1.0  0.6342940254926718  0.4758460721764238  0.3667078928516717  1.0000
  O   O27       1.0  0.13429551454533592  0.024166581110876002  0.8667050866975504  1.0000
  O   O28       1.0  0.36570329770431437  0.524161254719367  0.6332915159437039  1.0000
  O   O29       1.0  0.04314785782818831  0.06338400015109612  0.15539207498579097  1.0000
  O   O30       1.0  0.4568535673271157  0.5633894031317797  0.3446122153830801  1.0000
  O   O31       1.0  0.9568641488613918  0.9366148537259705  0.8446057511753013  1.0000
  O   O32       1.0  0.5431379534648428  0.4366179237349216  0.655390426225779  1.0000
  O   O33       1.0  0.3657786248244221  0.18581367779408714  0.07752084230036622  1.0000
  O   O34       1.0  0.1342147338438835  0.6858094733151107  0.4224812657475569  1.0000
  O   O35       1.0  0.6342202318030061  0.8141912282206508  0.9224807913440929  1.0000
  O   O36       1.0  0.8657810913835249  0.31418817007968175  0.5775172180828181  1.0000
