data_image0
_chemical_formula_structural       Al4H56C80O20
_chemical_formula_sum              "Al4 H56 C80 O20"
_cell_length_a       6.6378761567537214
_cell_length_b       21.538117975306715
_cell_length_c       25.491291602292595
_cell_angle_alpha    95.82126787156795
_cell_angle_beta     89.99855522023765
_cell_angle_gamma    89.99961770162717

_space_group_name_H-M_alt    "P 1"
_space_group_IT_number       1

loop_
  _space_group_symop_operation_xyz
  'x, y, z'

loop_
  _atom_site_type_symbol
  _atom_site_label
  _atom_site_symmetry_multiplicity
  _atom_site_fract_x
  _atom_site_fract_y
  _atom_site_fract_z
  _atom_site_occupancy
  Al  Al1       1.0  0.19234040715188166  0.749605110846062  0.7519477593089335  1.0000
  Al  Al2       1.0  0.8076706904854873  0.2503940001915197  0.2480565842040505  1.0000
  Al  Al3       1.0  0.6923333339949096  0.7503986346361488  0.7480545210813005  1.0000
  Al  Al4       1.0  0.3076672181854079  0.24960116082910846  0.2519478484106799  1.0000
  H   H1        1.0  0.9741347535440924  0.6241424610753724  0.4152133605317587  1.0000
  H   H2        1.0  0.025865798769856996  0.37585880075523903  0.5847858494847812  1.0000
  H   H3        1.0  0.4741765632076067  0.8758584177228956  0.08478677200006499  1.0000
  H   H4        1.0  0.5258089239200104  0.12413998534093199  0.9152156012199413  1.0000
  H   H5        1.0  0.939331313619043  0.6336292080001158  0.5859281840290224  1.0000
  H   H6        1.0  0.0606888233974061  0.36637171235682336  0.41406826565795274  1.0000
  H   H7        1.0  0.4393347712914704  0.8663687760280471  0.914075036761787  1.0000
  H   H8        1.0  0.5606642743540888  0.1336297245610112  0.0859281250527246  1.0000
  H   H9        1.0  0.9760722277693361  0.5395490077269613  0.7260579622777357  1.0000
  H   H10       1.0  0.023926817986790604  0.46045560066693264  0.27394202782095783  1.0000
  H   H11       1.0  0.47604807481967976  0.9604488280069177  0.773944985907349  1.0000
  H   H12       1.0  0.5239600098731714  0.039547351844149106  0.22605818199379973  1.0000
  H   H13       1.0  0.9566399450033813  0.6294665412081031  0.5103232266258074  1.0000
  H   H14       1.0  0.0433636202959988  0.3705329615932413  0.48967677692052547  1.0000
  H   H15       1.0  0.4567254918896211  0.8705295413481052  0.9896763201580185  1.0000
  H   H16       1.0  0.5432750603131637  0.12946927705294806  0.0103256574596244  1.0000
  H   H17       1.0  0.6866429566192452  0.9040638546658359  0.5349581386787533  1.0000
  H   H18       1.0  0.3133530758997337  0.09593999539425369  0.4650469812945984  1.0000
  H   H19       1.0  0.18662804102301322  0.5959336360841476  0.965042228330134  1.0000
  H   H20       1.0  0.8133664852768945  0.4040621048075579  0.0349573907196188  1.0000
  H   H21       1.0  0.6737548620715543  0.8362105982477457  0.6087239432639892  1.0000
  H   H22       1.0  0.3262532223983357  0.1637985524766634  0.3912827404898849  1.0000
  H   H23       1.0  0.17375187058794953  0.6637851854936727  0.8912773129030568  1.0000
  H   H24       1.0  0.8262471752096872  0.3362110683091615  0.10872269922830212  1.0000
  H   H25       1.0  0.255529132729265  0.9776148567918097  0.5946343690720325  1.0000
  H   H26       1.0  0.744468406529542  0.022391559404617595  0.40536522181369605  1.0000
  H   H27       1.0  0.7555193676698195  0.5223827223950862  0.9053646967435682  1.0000
  H   H28       1.0  0.2444796780477461  0.47761191871347813  0.0946372918959995  1.0000
  H   H29       1.0  0.11863908922299521  0.6116327123787856  0.32984220152619054  1.0000
  H   H30       1.0  0.0027567826506996003  0.5671926363743225  0.2755271628339386  1.0000
  H   H31       1.0  0.8530654046453137  0.6037874884324098  0.3276066625286447  1.0000
  H   H32       1.0  0.1469321346987584  0.3962159477951134  0.6723913584116586  1.0000
  H   H33       1.0  0.9972347306251663  0.4328090896184876  0.7244720459921155  1.0000
  H   H34       1.0  0.8813554372053501  0.3883690875414558  0.6701538514853453  1.0000
  H   H35       1.0  0.3530780919022121  0.8962144661241993  0.1723916060394329  1.0000
  H   H36       1.0  0.6186541415134598  0.8883691141072562  0.17015662653533065  1.0000
  H   H37       1.0  0.502766531901635  0.9328110504561525  0.22447252170764642  1.0000
  H   H38       1.0  0.6469209539311365  0.1037816901260271  0.8276076174471001  1.0000
  H   H39       1.0  0.49723552685895805  0.06718442138161149  0.7755286758278429  1.0000
  H   H40       1.0  0.3813479173715494  0.11162968067166193  0.8298414066285674  1.0000
  H   H41       1.0  0.2350263740478269  0.9178289215362554  0.7187511142008914  1.0000
  H   H42       1.0  0.3917006631248867  0.8719098386549431  0.6749700169532317  1.0000
  H   H43       1.0  0.3867484536985515  0.9544489607111545  0.6728337540002584  1.0000
  H   H44       1.0  0.764977191228489  0.0821752227045707  0.281248877105071  1.0000
  H   H45       1.0  0.613264150508705  0.045555012025296514  0.3271686044306676  1.0000
  H   H46       1.0  0.6082983826001467  0.12809393900366933  0.3250307642383632  1.0000
  H   H47       1.0  0.7350270863714882  0.5821611929392887  0.7812433902484556  1.0000
  H   H48       1.0  0.8916939852537027  0.6280796920027855  0.8250237189363574  1.0000
  H   H49       1.0  0.8867394114692573  0.545541982378893  0.8271600149835975  1.0000
  H   H50       1.0  0.26495388136382303  0.4178332043242464  0.21875662684613673  1.0000
  H   H51       1.0  0.11324758252435171  0.4544513166365718  0.1728348771213106  1.0000
  H   H52       1.0  0.10829451514333499  0.37191297137956525  0.17497354154550487  1.0000
  H   H53       1.0  0.4349904059316145  0.7126095006843942  0.686526497918166  1.0000
  H   H54       1.0  0.5650086397381245  0.2873912230718005  0.31347586913133085  1.0000
  H   H55       1.0  0.9349831396642189  0.7873928496745108  0.813474376957842  1.0000
  H   H56       1.0  0.0650189190243609  0.2126064816437534  0.1865279937525912  1.0000
  C   C1        1.0  0.44637540270876036  0.6783428686027689  0.8179536375839617  1.0000
  C   C2        1.0  0.5536341885684024  0.3216517237081932  0.18204795669405632  1.0000
  C   C3        1.0  0.9463644611098445  0.8216545016966564  0.6820447991068262  1.0000
  C   C4        1.0  0.05364513006993829  0.1783490556782397  0.3179579548817344  1.0000
  C   C5        1.0  0.4452601755623391  0.8468299774959078  0.8080097444358784  1.0000
  C   C6        1.0  0.554755441622298  0.15316676403651291  0.19199421085810536  1.0000
  C   C7        1.0  0.9452545788639101  0.6531671770332892  0.6919906733489113  1.0000
  C   C8        1.0  0.05474597337860839  0.34683427990253796  0.30801011395728045  1.0000
  C   C9        1.0  0.0458196160903626  0.4078967929661347  0.34172220260362707  1.0000
  C   C10       1.0  0.9541884688196233  0.5921088664072229  0.658275023532532  1.0000
  C   C11       1.0  0.5458236774772162  0.09210638902150241  0.15827666062941861  1.0000
  C   C12       1.0  0.4541768747860502  0.9078908906187878  0.8417241376930986  1.0000
  C   C13       1.0  0.0110125315605529  0.5206124212996742  0.34614744716930085  1.0000
  C   C14       1.0  0.9889850078952663  0.479389793982122  0.6538482102846004  1.0000
  C   C15       1.0  0.5110416731216247  0.979387446610147  0.15384784704401258  1.0000
  C   C16       1.0  0.48895586606693087  0.020611835940933087  0.8461541293607766  1.0000
  C   C17       1.0  0.0267525986335215  0.4631493454458067  0.3168776152848237  1.0000
  C   C18       1.0  0.9732479537558801  0.5368544573669709  0.683119615775432  1.0000
  C   C19       1.0  0.5267700681856979  0.03685042061314191  0.1831194263789442  1.0000
  C   C20       1.0  0.47322596448364623  0.9631479824293907  0.8168829468019254  1.0000
  C   C21       1.0  0.046240506127666905  0.4099029977978859  0.3960915923584309  1.0000
  C   C22       1.0  0.9537751113616719  0.5900997791439693  0.6039048524491619  1.0000
  C   C23       1.0  0.5462283528457306  0.09009705622523262  0.10390451489807621  1.0000
  C   C24       1.0  0.4537646668520168  0.9099003209828779  0.8960970720972197  1.0000
  C   C25       1.0  0.023365515783694904  0.4672902869917975  0.42785655348214396  1.0000
  C   C26       1.0  0.976648595061441  0.5327119518756405  0.5721430483584201  1.0000
  C   C27       1.0  0.5233643155138595  0.03270941884747461  0.07214366919475879  1.0000
  C   C28       1.0  0.47662870412570146  0.9672890329774475  0.9278590983197077  1.0000
  C   C29       1.0  0.0073326277219294  0.523290756453079  0.40233586565101825  1.0000
  C   C30       1.0  0.9926679246029552  0.4767118490330731  0.5976629463710026  1.0000
  C   C31       1.0  0.5073487365649997  0.9767106399450752  0.09766418534550071  1.0000
  C   C32       1.0  0.4926397635854798  0.023289106768203314  0.9023377898688026  1.0000
  C   C33       1.0  0.012710447029299098  0.47068902947578545  0.48491049588269425  1.0000
  C   C34       1.0  0.9873006508822542  0.5293116218606714  0.515087532351508  1.0000
  C   C35       1.0  0.5126857533204401  0.029312160641396207  0.015090196618587  1.0000
  C   C36       1.0  0.4872967207278407  0.9706891736211176  0.9849133522356155  1.0000
  C   C37       1.0  0.9747990887568392  0.5839737138833315  0.4880181960926747  1.0000
  C   C38       1.0  0.0252059830392781  0.41602764549076443  0.5119818025519152  1.0000
  C   C39       1.0  0.4748409661908326  0.9160255007618119  0.011983513693678602  1.0000
  C   C40       1.0  0.5251535600347523  0.08397456375433877  0.98801727730698  1.0000
  C   C41       1.0  0.9847580041537186  0.5811548784848526  0.4342035367368808  1.0000
  C   C42       1.0  0.0152425480928216  0.41884931453836316  0.5657968489026787  1.0000
  C   C43       1.0  0.4848025790777157  0.9188467142157534  0.06579888164439751  1.0000
  C   C44       1.0  0.5151889341785818  0.08115186032202357  0.9342011243947325  1.0000
  C   C45       1.0  0.8081157588856698  0.9049823363649236  0.5638062033198779  1.0000
  C   C46       1.0  0.19188931265814094  0.0950201700213782  0.43619931461445566  1.0000
  C   C47       1.0  0.3080943901243031  0.5950165204990653  0.9361932571890536  1.0000
  C   C48       1.0  0.6919016426590971  0.4049801974537956  0.06380675372944472  1.0000
  C   C49       1.0  0.8012625306159861  0.8672915995420213  0.6048042830568008  1.0000
  C   C50       1.0  0.19874555386832785  0.13271110194342134  0.3952028121560005  1.0000
  C   C51       1.0  0.3012489596448944  0.6327046464429601  0.8951964186025022  1.0000
  C   C52       1.0  0.698748579700343  0.3672914610340002  0.1048024105672098  1.0000
  C   C53       1.0  0.9584045197513404  0.8671192522535023  0.6417212212701173  1.0000
  C   C54       1.0  0.041602058349695895  0.1328835719447952  0.35828311246734756  1.0000
  C   C55       1.0  0.4583867117186315  0.632876310466237  0.8582779197014075  1.0000
  C   C56       1.0  0.5416002821338424  0.36712057899099904  0.1417197240921269  1.0000
  C   C57       1.0  0.1254693541374508  0.9076871751568659  0.6387050994738956  1.0000
  C   C58       1.0  0.874540237104533  0.09231804368859998  0.36129607232886934  1.0000
  C   C59       1.0  0.6254598011036023  0.5923085360611964  0.8612905990548327  1.0000
  C   C60       1.0  0.3745362317621641  0.40768933044198263  0.13870743657950158  1.0000
  C   C61       1.0  0.1290188182499961  0.9458035396408349  0.5975820519258761  1.0000
  C   C62       1.0  0.8709877598884788  0.05420238723618809  0.4024210902760998  1.0000
  C   C63       1.0  0.6290029668868939  0.5541912525893551  0.9024175671766768  1.0000
  C   C64       1.0  0.370990052915694  0.445806296104877  0.09758165266010368  1.0000
  C   C65       1.0  0.9748693904134099  0.9447811683105201  0.5594271438078736  1.0000
  C   C66       1.0  0.0251326682636446  0.0552204837274886  0.44057522078237094  1.0000
  C   C67       1.0  0.47485556777894544  0.5552178208095668  0.9405738379827256  1.0000
  C   C68       1.0  0.5251389584069059  0.444779605171803  0.059428143329391496  1.0000
  C   C69       1.0  0.9903127384706636  0.9833015100091629  0.5178241231219474  1.0000
  C   C70       1.0  0.0096817878056044  0.016702536697302182  0.482175079572741  1.0000
  C   C71       1.0  0.49030312465209397  0.5167024011580211  0.9821719974679227  1.0000
  C   C72       1.0  0.509689895114775  0.4832952450888186  0.017828011013691  1.0000
  C   C73       1.0  0.9954352756638087  0.5788101224675871  0.3184000372442242  1.0000
  C   C74       1.0  0.0045592507040482  0.42119321621341044  0.6815971950624301  1.0000
  C   C75       1.0  0.4954393540490969  0.9211924294242024  0.18159914378424694  1.0000
  C   C76       1.0  0.5045596917346984  0.07880660924231359  0.8184008610028926  1.0000
  C   C77       1.0  0.2942399123326709  0.9133182921943758  0.6783303740856822  1.0000
  C   C78       1.0  0.7057636529436522  0.08668585204645042  0.3216696172202802  1.0000
  C   C79       1.0  0.7942384753539073  0.5866707776189414  0.8216609318283118  1.0000
  C   C80       1.0  0.2057560511741201  0.41332159309342126  0.17833396269671198  1.0000
  O   O1        1.0  0.6137169901352806  0.8240840152101045  0.7921372261195926  1.0000
  O   O2        1.0  0.3862639775723622  0.1759159517808087  0.2078627762865679  1.0000
  O   O3        1.0  0.1137513471755938  0.6759133529902712  0.7078715721173053  1.0000
  O   O4        1.0  0.886268789599491  0.3240900580344217  0.2921299988648797  1.0000
  O   O5        1.0  0.2717688367031599  0.6965132299051291  0.8049581178012346  1.0000
  O   O6        1.0  0.7282256893392471  0.3034882506619568  0.19504661397547812  1.0000
  O   O7        1.0  0.7717870486153303  0.8035018204948727  0.6950549813614869  1.0000
  O   O8        1.0  0.22824965968559502  0.196498951961587  0.30494777987065186  1.0000
  O   O9        1.0  0.2734844494880946  0.8226264598271342  0.7972591534183379  1.0000
  O   O10       1.0  0.7265085699222238  0.1773684975705123  0.2027491456262283  1.0000
  O   O11       1.0  0.7735303744924522  0.6773804287182302  0.7027330485080441  1.0000
  O   O12       1.0  0.2264882559823178  0.32262058919435793  0.2972641898293417  1.0000
  O   O13       1.0  0.11283211793674042  0.8025832547039542  0.6992828457240492  1.0000
  O   O14       1.0  0.8871925380837669  0.1974218162440735  0.3007246376294717  1.0000
  O   O15       1.0  0.6128043088315849  0.6974030295925858  0.8007113938629615  1.0000
  O   O16       1.0  0.3871736458468718  0.302593321805432  0.19928940699148967  1.0000
  O   O17       1.0  0.4397569581517686  0.7425894880948293  0.7175790714876414  1.0000
  O   O18       1.0  0.5602451005057106  0.2574090124881465  0.28242409031568627  1.0000
  O   O19       1.0  0.9397497571343011  0.7574092761951977  0.7824229607680878  1.0000
  O   O20       1.0  0.0602477820254492  0.2425887114766496  0.21757980795364057  1.0000
