data_image0
_chemical_formula_structural       Zn6Mo4H20C8N16O20
_chemical_formula_sum              "Zn6 Mo4 H20 C8 N16 O20"
_cell_length_a       8.899535184000628
_cell_length_b       9.505552109555028
_cell_length_c       9.568291778688629
_cell_angle_alpha    102.1268706722597
_cell_angle_beta     89.9999949228903
_cell_angle_gamma    90.00004286116652

_space_group_name_H-M_alt    "P 1"
_space_group_IT_number       1

loop_
  _space_group_symop_operation_xyz
  'x, y, z'

loop_
  _atom_site_type_symbol
  _atom_site_label
  _atom_site_symmetry_multiplicity
  _atom_site_fract_x
  _atom_site_fract_y
  _atom_site_fract_z
  _atom_site_occupancy
  Zn  Zn1       1.0  0.49999912383074013  2.1542474120098294e-07  0.4999998239530044  1.0000
  Zn  Zn2       1.0  1.533782736000001e-07  0.4999986740817165  0.9999998349655215  1.0000
  Zn  Zn3       1.0  0.2955964882636408  0.4022138474218622  0.19731020114678444  1.0000
  Zn  Zn4       1.0  0.7955966324695751  0.0977873317658933  0.3026902922406833  1.0000
  Zn  Zn5       1.0  0.7044032821745817  0.5977880792961515  0.8026897006728645  1.0000
  Zn  Zn6       1.0  0.2044042616215336  0.902211376161006  0.6973100096381373  1.0000
  Mo  Mo1       1.0  0.17656321784702567  0.21335213334145212  0.458386626616317  1.0000
  Mo  Mo2       1.0  0.6765624132701973  0.2866478847925507  0.041613643482648406  1.0000
  Mo  Mo3       1.0  0.8234376762445024  0.7866476505748281  0.5416138909080529  1.0000
  Mo  Mo4       1.0  0.32343735716756333  0.7133529751127128  0.9583870896872355  1.0000
  H   H1        1.0  0.15252615245255197  0.5814005414857136  0.49854765189692063  1.0000
  H   H2        1.0  0.6525254569144678  0.9185988033600835  0.0014524392811523846  1.0000
  H   H3        1.0  0.8474747416389763  0.4185992424305738  0.5014528656274492  1.0000
  H   H4        1.0  0.3474754371771028  0.08140097137956562  0.9985470312474334  1.0000
  H   H5        1.0  0.6269049383750059  0.7499583757157849  0.26219082848943026  1.0000
  H   H6        1.0  0.12690466895844574  0.7500420268100145  0.2378094766891223  1.0000
  H   H7        1.0  0.37309595571652215  0.2500414082004952  0.7378096890349397  1.0000
  H   H8        1.0  0.8730962251335442  0.2499588239190232  0.7621902094850198  1.0000
  H   H9        1.0  0.5648117424170567  0.5771329948917979  0.18491354924251618  1.0000
  H   H10       1.0  0.0648127274738144  0.9228673632611547  0.31508675194917407  1.0000
  H   H11       1.0  0.43518802802070417  0.4228678650134655  0.8150871839273675  1.0000
  H   H12       1.0  0.9351892902719501  0.0771324114788925  0.6849127185794472  1.0000
  H   H13       1.0  0.4498864577492441  0.1346937362209815  0.2892642861949213  1.0000
  H   H14       1.0  0.9498857003402038  0.36530647723638043  0.21073600145366098  1.0000
  H   H15       1.0  0.5501144363423267  0.8653060385186678  0.7107351843336644  1.0000
  H   H16       1.0  0.050114070097556904  0.6346943826688827  0.7892647317162229  1.0000
  H   H17       1.0  0.4667090244125092  0.9756406154485547  0.19957669137340162  1.0000
  H   H18       1.0  0.9667091102146941  0.5243589539201424  0.30042341997784655  1.0000
  H   H19       1.0  0.5332907460252514  0.024360244456708802  0.8004240417964823  1.0000
  H   H20       1.0  0.03329178387684101  0.47564082999613794  0.6995770975465234  1.0000
  C   C1        1.0  0.2432477693478035  0.6393223354783047  0.4601767153366793  1.0000
  C   C2        1.0  0.7432492713391383  0.8606792261788884  0.03982381295764271  1.0000
  C   C3        1.0  0.7567508774362253  0.360679591239304  0.5398231864829269  1.0000
  C   C4        1.0  0.2567516227528088  0.13932163372678016  0.9601769202122766  1.0000
  C   C5        1.0  0.4315250438805763  0.6896569056430835  0.3378808434194767  1.0000
  C   C6        1.0  0.9315276180506801  0.8103437145725679  0.16211948131829257  1.0000
  C   C7        1.0  0.5684736029030404  0.31034394508514407  0.6621188427545801  1.0000
  C   C8        1.0  0.06847327604130982  0.18965713615646962  0.8378802048558427  1.0000
  N   N1        1.0  0.5398554214334653  0.679821153981507  0.23699388197750437  1.0000
  N   N2        1.0  0.039855205676190116  0.8201791863366381  0.2630064176117414  1.0000
  N   N3        1.0  0.460144349004338  0.3201796967471253  0.7630058041965952  1.0000
  N   N4        1.0  0.9601434411069577  0.17982059757883925  0.7369940999125503  1.0000
  N   N5        1.0  0.4064260214849896  0.805153109511572  0.44283463847129667  1.0000
  N   N6        1.0  0.9064262658461432  0.6948464167774944  0.05716546900928421  1.0000
  N   N7        1.0  0.5935748726065385  0.1948466744047082  0.5571658790530734  1.0000
  N   N8        1.0  0.09357462824593911  0.3051544155982739  0.9428321231732824  1.0000
  N   N9        1.0  0.32854209496319  0.5841180400176783  0.34364299292163747  1.0000
  N   N10       1.0  0.8285413829477549  0.9158803729772133  0.15635898790414163  1.0000
  N   N11       1.0  0.6714576754741017  0.41588175307483505  0.6563585715984814  1.0000
  N   N12       1.0  0.17145838748958647  0.08411941093866913  0.8436415296201929  1.0000
  N   N13       1.0  0.28660963421296515  0.77085805046341  0.5214990723729471  1.0000
  N   N14       1.0  0.7866087433797446  0.7291425489057205  0.9785019058576551  1.0000
  N   N15       1.0  0.7133901362247885  0.22914280944184642  0.4785016607969297  1.0000
  N   N16       1.0  0.2133899034038222  0.27085831099913804  0.0214988273121932  1.0000
  O   O1        1.0  0.5161630573654038  0.377895078847132  0.12792925300883703  1.0000
  O   O2        1.0  0.0161626734229614  0.12210482466122133  0.3720710067911241  1.0000
  O   O3        1.0  0.4838378367265008  0.6221057902351674  0.8720725271568667  1.0000
  O   O4        1.0  0.9838382206681474  0.8778938832656775  0.6279292950876963  1.0000
  O   O5        1.0  0.516712385910111  0.04854832813632021  0.2774404461110933  1.0000
  O   O6        1.0  0.016712278676692404  0.4514526425774506  0.2225589823739114  1.0000
  O   O7        1.0  0.48328850818187885  0.9514525225927172  0.7225592400630417  1.0000
  O   O8        1.0  0.9832874917611109  0.5485482081511821  0.7774407038001881  1.0000
  O   O9        1.0  0.2751143814157615  0.09667099652958201  0.5507090506762182  1.0000
  O   O10       1.0  0.7751147559782794  0.4033291747466166  0.9492918885483019  1.0000
  O   O11       1.0  0.7248865126762355  0.9033298541994482  0.4492906354979168  1.0000
  O   O12       1.0  0.2248850144590619  0.5966706091692585  0.05070862897603231  1.0000
  O   O13       1.0  0.3020012520820644  0.25395959927924144  0.3249345044879206  1.0000
  O   O14       1.0  0.8020015264189979  0.24604158448555322  0.175065989310788  1.0000
  O   O15       1.0  0.6979985183556893  0.7460412606260148  0.6750662286819633  1.0000
  O   O16       1.0  0.19799824401876268  0.753959275419703  0.8249347438590958  1.0000
  O   O17       1.0  0.12679550963166264  0.3757118690378504  0.5727211301249964  1.0000
  O   O18       1.0  0.6267922925224311  0.12428927223422902  0.9272800152216546  1.0000
  O   O19       1.0  0.8732053844603344  0.62428898169118  0.42727855604913867  1.0000
  O   O20       1.0  0.3732052306073684  0.8757126636596128  0.07272093359370055  1.0000
