data_image0
_chemical_formula_structural       Ag4H24C32N12
_chemical_formula_sum              "Ag4 H24 C32 N12"
_cell_length_a       6.4201861695220686
_cell_length_b       8.542077584928924
_cell_length_c       13.672705604923882
_cell_angle_alpha    89.99857886504157
_cell_angle_beta     90.00167012670869
_cell_angle_gamma    95.49892598172305

_space_group_name_H-M_alt    "P 1"
_space_group_IT_number       1

loop_
  _space_group_symop_operation_xyz
  'x, y, z'

loop_
  _atom_site_type_symbol
  _atom_site_label
  _atom_site_symmetry_multiplicity
  _atom_site_fract_x
  _atom_site_fract_y
  _atom_site_fract_z
  _atom_site_occupancy
  Ag  Ag1       1.0  0.15763707736057606  0.7313939485806387  0.45890896667842174  1.0000
  Ag  Ag2       1.0  0.3424043967088012  0.7685887428612544  0.9589017113994416  1.0000
  Ag  Ag3       1.0  0.8423888741300304  0.2685929136081242  0.5411006632462971  1.0000
  Ag  Ag4       1.0  0.6575622270645242  0.23140970655038726  0.0410889020106353  1.0000
  H   H1        1.0  0.8933603696596677  0.8958009389669356  0.6110882248564735  1.0000
  H   H2        1.0  0.6067067014469459  0.6042024123030884  0.11111454845531199  1.0000
  H   H3        1.0  0.10665721481094442  0.10418119668148759  0.3889170167452107  1.0000
  H   H4        1.0  0.39325767032250525  0.3958030846575652  0.8888767962605968  1.0000
  H   H5        1.0  0.4661366703598447  0.9134729488540357  0.600709594430249  1.0000
  H   H6        1.0  0.0339295868077372  0.5865159868577406  0.10071763455340488  1.0000
  H   H7        1.0  0.5338926852446805  0.08651627455269309  0.39929052750422034  1.0000
  H   H8        1.0  0.9660274002740153  0.4134800835044246  0.8992824868024555  1.0000
  H   H9        1.0  0.3113691617923777  0.371010144735429  0.20137387627362804  1.0000
  H   H10       1.0  0.1886209234428406  0.1289918024387475  0.7013661512075655  1.0000
  H   H11       1.0  0.6886674610395148  0.6290002614723847  0.7986262455259805  1.0000
  H   H12       1.0  0.8113374508720385  0.8709901641747351  0.2986149542950897  1.0000
  H   H13       1.0  0.311102308058878  0.5721758177993195  0.3315453110670746  1.0000
  H   H14       1.0  0.18891275100983052  0.9278306515327941  0.8315454815266462  1.0000
  H   H15       1.0  0.6889259479756832  0.4278298617466518  0.6684584676350127  1.0000
  H   H16       1.0  0.8110721382224213  0.07216432321283148  0.16844001235591577  1.0000
  H   H17       1.0  0.9625303084200993  0.5064391115601978  0.3820226435771161  1.0000
  H   H18       1.0  0.5374829124461158  0.9935535081570706  0.8820209483065967  1.0000
  H   H19       1.0  0.03750233381777691  0.49356422927812815  0.6179760154880467  1.0000
  H   H20       1.0  0.4625112349380204  0.006466181731958901  0.1179879497165999  1.0000
  H   H21       1.0  0.9349542504917281  0.31072298376776064  0.24911265912066938  1.0000
  H   H22       1.0  0.5650306111179405  0.1892769438450301  0.7491086827863781  1.0000
  H   H23       1.0  0.06506748477573149  0.6892803258433132  0.7508874626349495  1.0000
  H   H24       1.0  0.43493119417802734  0.8107203161136667  0.2508819305996965  1.0000
  C   C1        1.0  0.651738896563664  0.6782039075966323  0.4465928081833823  1.0000
  C   C2        1.0  0.8482786189300597  0.8217926420062085  0.946600788916484  1.0000
  C   C3        1.0  0.34828281242363357  0.32178646956685947  0.5534095078385661  1.0000
  C   C4        1.0  0.15169769508701592  0.17823405080883958  0.053411765837921586  1.0000
  C   C5        1.0  0.7787743513840936  0.835661775668278  0.5624955042495898  1.0000
  C   C6        1.0  0.7212825268759814  0.6643453734877268  0.0625048542625635  1.0000
  C   C7        1.0  0.22125713878421746  0.16433215638099335  0.4375133942682723  1.0000
  C   C8        1.0  0.2786767647294823  0.33566951424268865  0.9374886844865313  1.0000
  C   C9        1.0  0.5647995558250045  0.8444785209076356  0.5572052555965215  1.0000
  C   C10       1.0  0.9352327932429746  0.6555216646606044  0.057217094015207685  1.0000
  C   C11       1.0  0.4352096881284311  0.1555118205265344  0.4428014486413118  1.0000
  C   C12       1.0  0.06471954592860381  0.3444873246429481  0.9427896096506245  1.0000
  C   C13       1.0  0.45368891269296807  0.4044247207527789  0.24323244612177317  1.0000
  C   C14       1.0  0.0463155226354388  0.09557246944913089  0.7432276609995085  1.0000
  C   C15       1.0  0.5463393433011062  0.5955809588152832  0.7567698698120324  1.0000
  C   C16       1.0  0.9536819759986699  0.9044237169283773  0.2567651468040282  1.0000
  C   C17       1.0  0.4544833059244056  0.5175662158604979  0.31632232735959315  1.0000
  C   C18       1.0  0.04550652999153466  0.9824324138874015  0.81632094346255  1.0000
  C   C19       1.0  0.5455470579889409  0.4824312401013415  0.6836777945094569  1.0000
  C   C20       1.0  0.9544559956464767  0.0175707264015301  0.18367405818162294  1.0000
  C   C21       1.0  0.6394150749396703  0.561120399828141  0.3691123801908702  1.0000
  C   C22       1.0  0.860591775020474  0.9388772962715564  0.86911481430338  1.0000
  C   C23       1.0  0.36061569492709106  0.4388676518687973  0.630893592837161  1.0000
  C   C24       1.0  0.13938154018834584  0.0611376314140912  0.1308896953078431  1.0000
  C   C25       1.0  0.8144666258856785  0.48226055312797905  0.3434376265096688  1.0000
  C   C26       1.0  0.6855434247143536  0.0177342311318469  0.8434354773808009  1.0000
  C   C27       1.0  0.18557196086185715  0.5177404533722197  0.6565617640027952  1.0000
  C   C28       1.0  0.3144433638574001  0.982288964827191  0.15656537533325826  1.0000
  C   C29       1.0  0.7990620410782727  0.3716508147514332  0.2689455549254873  1.0000
  C   C30       1.0  0.7009339610662269  0.12834148854062732  0.7689409430784977  1.0000
  C   C31       1.0  0.20096151402022142  0.6283419190948151  0.7310523727840561  1.0000
  C   C32       1.0  0.2990509548712694  0.8716664184206167  0.231057715604635  1.0000
  N   N1        1.0  0.48559166702573003  0.7462599751772742  0.4843918758013146  1.0000
  N   N2        1.0  0.014449974221456314  0.7537372264723602  0.9843970079444162  1.0000
  N   N3        1.0  0.5144316000857359  0.25373040645514067  0.5156097088476059  1.0000
  N   N4        1.0  0.9855500912302517  0.24626719671932312  0.015608964719312696  1.0000
  N   N5        1.0  0.8330742780366265  0.7313366388228886  0.4931257594498035  1.0000
  N   N6        1.0  0.6669754444677807  0.7686715222422791  0.9931408576288732  1.0000
  N   N7        1.0  0.1669593200712072  0.26864906960911134  0.5068816763874366  1.0000
  N   N8        1.0  0.33299461040809325  0.23134222044830466  0.0068636519694607  1.0000
  N   N9        1.0  0.6225589595009283  0.33141963688234444  0.21817561611686637  1.0000
  N   N10       1.0  0.8774442751415421  0.168567174657781  0.7181713593565604  1.0000
  N   N11       1.0  0.37746672993869623  0.6685778057279492  0.781823042950549  1.0000
  N   N12       1.0  0.12254301034113273  0.8314219285076729  0.2818207170522058  1.0000
