data_image0
_chemical_formula_structural       Gd2H22C30O18
_chemical_formula_sum              "Gd2 H22 C30 O18"
_cell_length_a       9.034253492700243
_cell_length_b       9.791789308563771
_cell_length_c       12.853563295920075
_cell_angle_alpha    68.935269965573
_cell_angle_beta     85.7167440275406
_cell_angle_gamma    61.06148306668181

_space_group_name_H-M_alt    "P 1"
_space_group_IT_number       1

loop_
  _space_group_symop_operation_xyz
  'x, y, z'

loop_
  _atom_site_type_symbol
  _atom_site_label
  _atom_site_symmetry_multiplicity
  _atom_site_fract_x
  _atom_site_fract_y
  _atom_site_fract_z
  _atom_site_occupancy
  Gd  Gd1       1.0  0.2530589564828743  0.4499424453855029  0.019248013482680907  1.0000
  Gd  Gd2       1.0  0.7469466296706246  0.5500578304337862  0.9807521341708707  1.0000
  H   H1        1.0  0.1249680886108422  0.3549842734243072  0.8606532083748704  1.0000
  H   H2        1.0  0.8750221907969544  0.6450225469514806  0.13934348094493032  1.0000
  H   H3        1.0  0.3288040488839312  0.23225112264572803  0.8937573424505276  1.0000
  H   H4        1.0  0.6711891973029365  0.7677519372138166  0.10623941594983677  1.0000
  H   H5        1.0  0.6291910028285342  0.240677753690136  0.9957686033195898  1.0000
  H   H6        1.0  0.37080999114181157  0.7593250612546285  0.004231840287850719  1.0000
  H   H7        1.0  0.5617259743447888  0.13463526788438435  0.09104569729790771  1.0000
  H   H8        1.0  0.4382786131894745  0.8653625553135386  0.908954326414481  1.0000
  H   H9        1.0  0.03152906541219361  0.8333165600815635  0.5013505464173421  1.0000
  H   H10       1.0  0.9684701116755144  0.16669004760223777  0.49864822329703185  1.0000
  H   H11       1.0  0.25086866291261584  0.775959633129425  0.36841623808929574  1.0000
  H   H12       1.0  0.7491345065640828  0.22403197930973565  0.6315854043800827  1.0000
  H   H13       1.0  0.5545514531032719  0.6627730918200643  0.4346079909619577  1.0000
  H   H14       1.0  0.4454499264814726  0.33720862600837626  0.5653946573476392  1.0000
  H   H15       1.0  0.637719844266577  0.6007284774467649  0.6346230932005386  1.0000
  H   H16       1.0  0.3622833093421461  0.3992631102305921  0.3653793344738221  1.0000
  H   H17       1.0  0.76804291757805  0.060936161246374417  0.9237360572442274  1.0000
  H   H18       1.0  0.23195806052431311  0.9390666289365799  0.07626517156818839  1.0000
  H   H19       1.0  0.10850505608215134  0.22260446829999844  0.7380851184179421  1.0000
  H   H20       1.0  0.8914813531351908  0.7774038085415003  0.26190666665026197  1.0000
  H   H21       1.0  0.20951279122105138  0.9968476710895191  0.661658822527457  1.0000
  H   H22       1.0  0.7904798599169209  0.0031566695242375028  0.3383368544385661  1.0000
  C   C1        1.0  0.4446817831135302  0.6269009943199465  0.8002631725663109  1.0000
  C   C2        1.0  0.5553241431384134  0.37310291582770116  0.1997391584139764  1.0000
  C   C3        1.0  0.38484244561560377  0.6762360170906804  0.6800711842250069  1.0000
  C   C4        1.0  0.6151648220113228  0.3237629111499559  0.31993158087030343  1.0000
  C   C5        1.0  0.21394981327632906  0.7451925978382479  0.6396951677474904  1.0000
  C   C6        1.0  0.7860576616971213  0.2548013410344013  0.36030885107035737  1.0000
  C   C7        1.0  0.16570287198273093  0.7802891145529999  0.5286955319867985  1.0000
  C   C8        1.0  0.8343028421774148  0.21970604808927166  0.4713097954141859  1.0000
  C   C9        1.0  0.2885038836150143  0.749526317716473  0.45500930964193037  1.0000
  C   C10       1.0  0.7114986114729118  0.2504664516678758  0.5449951774180023  1.0000
  C   C11       1.0  0.45860405912710417  0.6864571344720931  0.4922116920599394  1.0000
  C   C12       1.0  0.541404178040409  0.31353312800956706  0.5077908942336082  1.0000
  C   C13       1.0  0.5055998634572275  0.6509022608797184  0.6035347915662187  1.0000
  C   C14       1.0  0.49440420096544796  0.34909429886481297  0.3964663479830577  1.0000
  C   C15       1.0  0.04602047805977342  0.901207058114288  0.750871590430265  1.0000
  C   C16       1.0  0.9539777406100497  0.09879450321691514  0.24913082302413164  1.0000
  C   C17       1.0  0.9218475929795954  0.9194566386451017  0.8256818851940224  1.0000
  C   C18       1.0  0.07814717600092537  0.0805448260177286  0.17432534269787683  1.0000
  C   C19       1.0  0.865370017857664  0.047543413221646305  0.8668588253369836  1.0000
  C   C20       1.0  0.13462675576391786  0.9524656247005582  0.13314252714112482  1.0000
  C   C21       1.0  0.9333646982341075  0.1564354092616966  0.8375103053166342  1.0000
  C   C22       1.0  0.06663064886450323  0.8435700611565836  0.16248732782732847  1.0000
  C   C23       1.0  0.057620424552425206  0.1362271464917981  0.763280094743678  1.0000
  C   C24       1.0  0.9423720509749736  0.8637822330135664  0.23671275808985118  1.0000
  C   C25       1.0  0.11422273680769726  0.010068854725972196  0.7199909853988872  1.0000
  C   C26       1.0  0.885772865241371  0.9899317006097376  0.28000554585268134  1.0000
  C   C27       1.0  0.8595722311974254  0.7956170220985684  0.8684765956046194  1.0000
  C   C28       1.0  0.14043255521795564  0.20437845498619114  0.1315193437391784  1.0000
  C   C29       1.0  0.8768819152067376  0.2880327537429326  0.8857140517233193  1.0000
  C   C30       1.0  0.12311151133597781  0.7119790040983744  0.11428128066630452  1.0000
  O   O1        1.0  0.3705743897838827  0.5696272387207773  0.8773722362219021  1.0000
  O   O2        1.0  0.6294257653098182  0.4303680599492098  0.12263169278185161  1.0000
  O   O3        1.0  0.5711321051107702  0.6428306131665735  0.8174368320585401  1.0000
  O   O4        1.0  0.42886858896248714  0.35716597371860825  0.18256519590335074  1.0000
  O   O5        1.0  0.08443324639391371  0.7805058054059658  0.708193224147678  1.0000
  O   O6        1.0  0.9155743237873962  0.21948828203752416  0.2918060834402993  1.0000
  O   O7        1.0  0.971630632712333  0.6393138605291784  0.9162245085308669  1.0000
  O   O8        1.0  0.028373787676763042  0.3606863583055145  0.08377802914016294  1.0000
  O   O9        1.0  0.7028031151128712  0.841756648404726  0.864104331023235  1.0000
  O   O10       1.0  0.2971980618706239  0.1582437956650722  0.13589281342058973  1.0000
  O   O11       1.0  0.7742485129222769  0.29638521280701013  0.9606281493928821  1.0000
  O   O12       1.0  0.2257491826359581  0.7036150850708013  0.03937537989840225  1.0000
  O   O13       1.0  0.9302950403709642  0.3944824396999422  0.854239372657489  1.0000
  O   O14       1.0  0.06970321743738586  0.6055218391715159  0.14575534709083374  1.0000
  O   O15       1.0  0.2366169081331505  0.34650398746843086  0.8772862688866996  1.0000
  O   O16       1.0  0.7633817141070194  0.6535013072383579  0.12271518707451895  1.0000
  O   O17       1.0  0.5344047834271136  0.2126450971265754  0.013341382891248107  1.0000
  O   O18       1.0  0.46559571916759485  0.787356503888411  0.9866586061431166  1.0000
