data_image0
_chemical_formula_structural       Ag4H18C18S4N2O14F12
_chemical_formula_sum              "Ag4 H18 C18 S4 N2 O14 F12"
_cell_length_a       8.33531328838917
_cell_length_b       9.777484324321199
_cell_length_c       11.62160748170615
_cell_angle_alpha    79.0748955389497
_cell_angle_beta     78.54290617556518
_cell_angle_gamma    68.66761256422879

_space_group_name_H-M_alt    "P 1"
_space_group_IT_number       1

loop_
  _space_group_symop_operation_xyz
  'x, y, z'

loop_
  _atom_site_type_symbol
  _atom_site_label
  _atom_site_symmetry_multiplicity
  _atom_site_fract_x
  _atom_site_fract_y
  _atom_site_fract_z
  _atom_site_occupancy
  Ag  Ag1       1.0  0.3712743973621002  0.7659541026450825  0.019881101435700505  1.0000
  Ag  Ag2       1.0  0.6287258799091759  0.234045293275983  0.9801194051571187  1.0000
  Ag  Ag3       1.0  0.859211607126049  0.7591677934962603  0.020641556149286186  1.0000
  Ag  Ag4       1.0  0.14078911376238074  0.24083049362355513  0.9793607843360591  1.0000
  H   H1        1.0  0.30404727905394696  0.49577008581513105  0.16846488229282394  1.0000
  H   H2        1.0  0.6959537775568377  0.5042304217843778  0.8315336161324324  1.0000
  H   H3        1.0  0.09559659500983744  0.4833477740785525  0.1826126805567228  1.0000
  H   H4        1.0  0.9044036825181648  0.5166516226663447  0.8173869654023278  1.0000
  H   H5        1.0  0.225847176591742  0.3960301076120487  0.2983806958351778  1.0000
  H   H6        1.0  0.7741538797623232  0.6039703991636216  0.7016186632238401  1.0000
  H   H7        1.0  0.13392030749417927  0.525380342940295  0.4689041578786259  1.0000
  H   H8        1.0  0.866081637121091  0.4746179495282021  0.5310954264303973  1.0000
  H   H9        1.0  0.9981790431023185  0.7635073739985997  0.5575116949091167  1.0000
  H   H10       1.0  0.0018212346824171325  0.23649202357012902  0.44248709041616513  1.0000
  H   H11       1.0  0.9121079641721364  0.0022251360593230993  0.42076461752353117  1.0000
  H   H12       1.0  0.08789231335586585  0.9977742606855741  0.5792350284355194  1.0000
  H   H13       1.0  0.8505872831061935  0.03455462869749939  0.12828228889758012  1.0000
  H   H14       1.0  0.14941421737847102  0.9654447709245912  0.8717171827864404  1.0000
  H   H15       1.0  0.06622436790470941  0.032381428107718976  0.1136852483972675  1.0000
  H   H16       1.0  0.9337759096232929  0.9676179686371782  0.8863143975617831  1.0000
  H   H17       1.0  0.9045426675466501  0.12985352619150345  0.22376651171640566  1.0000
  H   H18       1.0  0.095456386767964  0.8701458668523682  0.7762341691514437  1.0000
  C   C1        1.0  0.18843522711442529  0.493891279513761  0.23260671896791515  1.0000
  C   C2        1.0  0.8115650504135772  0.5061081172311359  0.7673929269911355  1.0000
  C   C3        1.0  0.11286158836098538  0.6296801570706164  0.29172215064451024  1.0000
  C   C4        1.0  0.8871399121236792  0.3703192425514672  0.7082773210395031  1.0000
  C   C5        1.0  0.091001201650954  0.6310411621068112  0.4133041407394344  1.0000
  C   C6        1.0  0.9090002988337106  0.36895823751527246  0.5866953309445863  1.0000
  C   C7        1.0  0.017543478502418004  0.7635294258966425  0.4620461313322651  1.0000
  C   C8        1.0  0.9824580219822536  0.23646997372544115  0.5379533403517556  1.0000
  C   C9        1.0  0.9698083183418548  0.8959631664432944  0.3867397666484182  1.0000
  C   C10       1.0  0.030190735972766416  0.1040362266005772  0.6132609142194312  1.0000
  C   C11       1.0  0.9937298110081515  0.8960517448199282  0.2650073081761589  1.0000
  C   C12       1.0  0.006270466519851009  0.10394765192496888  0.7349923377828915  1.0000
  C   C13       1.0  0.9505823238708899  0.03147387399298651  0.17855799095809738  1.0000
  C   C14       1.0  0.049417953400386246  0.968525521928079  0.8214425156347148  1.0000
  C   C15       1.0  0.4749615699804011  0.005692731147384197  0.328197332390893  1.0000
  C   C16       1.0  0.5250365960730007  0.9943088762036679  0.6718031232269511  1.0000
  C   C17       1.0  0.3380618024923622  0.5106719128165123  0.7002550949298082  1.0000
  C   C18       1.0  0.661938030648308  0.4893285902581398  0.2997452990380012  1.0000
  S   S1        1.0  0.4385922834454234  0.008330011983801499  0.17425544806233262  1.0000
  S   S2        1.0  0.5614075496952468  0.9916704910908505  0.825744945905477  1.0000
  S   S3        1.0  0.2798090816107931  0.5378425378592907  0.8600158191938617  1.0000
  S   S4        1.0  0.7201919747432655  0.46215796891638655  0.1399835398651561  1.0000
  N   N1        1.0  0.062090862839390644  0.7628158711178442  0.22121912746502662  1.0000
  N   N2        1.0  0.9379094146886118  0.23718352562705286  0.7787805184940241  1.0000
  O   O1        1.0  0.08598197739650715  0.7628328848741645  0.10357149283488815  1.0000
  O   O2        1.0  0.9140183001314953  0.23716651187073268  0.8964281531241625  1.0000
  O   O3        1.0  0.3787380102559012  0.88288455310024  0.185414852642019  1.0000
  O   O4        1.0  0.6212618228847688  0.11711594997441917  0.8145855413257905  1.0000
  O   O5        1.0  0.309917706027271  0.1547367834891631  0.14893956134196173  1.0000
  O   O6        1.0  0.6900825715007313  0.8452626132557339  0.851060084617089  1.0000
  O   O7        1.0  0.6116411199908284  0.9887924689312582  0.10399295317118634  1.0000
  O   O8        1.0  0.3883590468183726  0.011210248032433898  0.8960104838066415  1.0000
  O   O9        1.0  0.33233745931828207  0.38673683413326626  0.9241202365699265  1.0000
  O   O10       1.0  0.667661151122452  0.6132636668880309  0.07587947103915138  1.0000
  O   O11       1.0  0.38643274911794384  0.6232878418703363  0.8712226763053154  1.0000
  O   O12       1.0  0.6135687511099944  0.3767115569279156  0.1287776560124669  1.0000
  O   O13       1.0  0.09241171571733281  0.6141892000262104  0.8717227271676649  1.0000
  O   O14       1.0  0.9075876735494575  0.3858124110258671  0.12827669354138044  1.0000
  F   F1        1.0  0.5356099984459562  0.11505794752753928  0.333911231716101  1.0000
  F   F2        1.0  0.46438816760744583  0.8849436598235058  0.6660892239017429  1.0000
  F   F3        1.0  0.3231292853786414  0.0259771180951702  0.4030116017519987  1.0000
  F   F4        1.0  0.6768673230226483  0.9740222691943284  0.5969894276659105  1.0000
  F   F5        1.0  0.59124574187625  0.8741956937385565  0.36586540311839855  1.0000
  F   F6        1.0  0.4087519797898196  0.1258070199422505  0.6341358005082043  1.0000
  F   F7        1.0  0.3036639110315917  0.6442264846024627  0.6317555023413775  1.0000
  F   F8        1.0  0.6963371450657334  0.35577402134937586  0.3682447173514092  1.0000
  F   F9        1.0  0.5080897880303539  0.4319677968379309  0.6733333608421433  1.0000
  F   F10       1.0  0.4919100451103162  0.568032706236721  0.3266670331256734  1.0000
  F   F11       1.0  0.24229144067417263  0.4378779996865274  0.672597271880349  1.0000
  F   F12       1.0  0.75770883685383  0.5621213970583696  0.3274023740787015  1.0000
