data_image0
_chemical_formula_structural       Zn2H32C66N4O12
_chemical_formula_sum              "Zn2 H32 C66 N4 O12"
_cell_length_a       16.490834937447474
_cell_length_b       17.891085898889486
_cell_length_c       28.1190274284517
_cell_angle_alpha    90.23039525912282
_cell_angle_beta     89.88676797939621
_cell_angle_gamma    90.28025306386762

_space_group_name_H-M_alt    "P 1"
_space_group_IT_number       1

loop_
  _space_group_symop_operation_xyz
  'x, y, z'

loop_
  _atom_site_type_symbol
  _atom_site_label
  _atom_site_symmetry_multiplicity
  _atom_site_fract_x
  _atom_site_fract_y
  _atom_site_fract_z
  _atom_site_occupancy
  Zn  Zn1       1.0  0.4162321068225837  0.499618590191126  0.4998078879678474  1.0000
  Zn  Zn2       1.0  0.5838757616597974  0.5003189470053896  0.49966003432719225  1.0000
  H   H1        1.0  0.6299524684691064  0.5039328268988469  0.347614094175448  1.0000
  H   H2        1.0  0.8648521374638494  0.4143822488761728  0.4454691724436159  1.0000
  H   H3        1.0  0.287171598745644  0.41804715469419296  0.44766185601208264  1.0000
  H   H4        1.0  0.7125277139795119  0.5820316302073464  0.5519424455388133  1.0000
  H   H5        1.0  0.288286870450314  0.5812019846329547  0.5521136699556736  1.0000
  H   H6        1.0  0.7122112071666251  0.4185676133857683  0.4476737534668302  1.0000
  H   H7        1.0  0.6303817005789654  0.5042126751601966  0.25828543411950733  1.0000
  H   H8        1.0  0.36945868416420075  0.5054064401775021  0.7413116626954165  1.0000
  H   H9        1.0  0.44860749250071313  0.3179960880543077  0.12162674367419872  1.0000
  H   H10       1.0  0.5792407028373107  0.6733669366200841  0.8780597537932879  1.0000
  H   H11       1.0  0.6297330465074752  0.4954601802404639  0.6518806276509963  1.0000
  H   H12       1.0  0.37006654538922135  0.5051384406471795  0.652020611598715  1.0000
  H   H13       1.0  0.3701368849750751  0.49561968764144376  0.3478519131695137  1.0000
  H   H14       1.0  0.6299455945083992  0.49547520214125024  0.7411735216957569  1.0000
  H   H15       1.0  0.36979261257400253  0.4952968871301308  0.2585243771577694  1.0000
  H   H16       1.0  0.42002017342507264  0.32731923118350176  0.8770898835665122  1.0000
  H   H17       1.0  0.5515572008686718  0.6814998455033603  0.12270039766088561  1.0000
  H   H18       1.0  0.4219290479953487  0.32406175317800745  0.9650617769401393  1.0000
  H   H19       1.0  0.5546979298352  0.6831413164182506  0.0347015977136138  1.0000
  H   H20       1.0  0.44516188149087554  0.31673093166966737  0.0336312263808694  1.0000
  H   H21       1.0  0.57764318328141  0.6761558461567815  0.9660553258315261  1.0000
  H   H22       1.0  0.36940669933264303  0.877247393836434  0.5152170686774511  1.0000
  H   H23       1.0  0.37017737764532654  0.7377961546800406  0.5073641073200507  1.0000
  H   H24       1.0  0.6306740920974861  0.12311024705827825  0.5151823553541348  1.0000
  H   H25       1.0  0.36919687623812086  0.1219076687551564  0.5151946949324469  1.0000
  H   H26       1.0  0.6308756897309779  0.878385303082588  0.515320191606186  1.0000
  H   H27       1.0  0.6299195113314937  0.26240917454870777  0.5069807483630058  1.0000
  H   H28       1.0  0.369995836462124  0.26121754319981955  0.5070479558685648  1.0000
  H   H29       1.0  0.6301024172596572  0.738932787618097  0.5075027049883617  1.0000
  H   H30       1.0  0.1345012073792731  0.41446018090790193  0.4452693710390747  1.0000
  H   H31       1.0  0.8652086444851008  0.5856773217586735  0.5546824873140608  1.0000
  H   H32       1.0  0.13562727115159126  0.5854220063563884  0.5546913860637801  1.0000
  C   C1        1.0  0.49997432830473104  0.35317482261862654  0.5014354899998068  1.0000
  C   C2        1.0  0.4709195183432018  0.4370277253668958  0.8727595236764998  1.0000
  C   C3        1.0  0.5000569801774263  0.499313067265298  0.3528210230182296  1.0000
  C   C4        1.0  0.49992521258783296  0.5006882357546445  0.6468547890732026  1.0000
  C   C5        1.0  0.47338333726585813  0.43461923017467535  0.9737000662529101  1.0000
  C   C6        1.0  0.522276072700315  0.5666907354016784  0.026045704719813004  1.0000
  C   C7        1.0  0.5262810832215479  0.5655327967774468  0.9740703608254152  1.0000
  C   C8        1.0  0.4775617911145603  0.4332193313606254  0.0256529017816902  1.0000
  C   C9        1.0  0.4998051539428517  0.500129885531784  0.9490601271441862  1.0000
  C   C10       1.0  0.49996782688627656  0.4998984006449374  0.050664235028214905  1.0000
  C   C11       1.0  0.444400947774689  0.373824771412913  0.9470795726507575  1.0000
  C   C12       1.0  0.5001437978544702  0.6467773110403453  0.5028839771762605  1.0000
  C   C13       1.0  0.5396739736151517  0.6310859739678063  0.0526857373094742  1.0000
  C   C14       1.0  0.44284190878380514  0.37493513691103425  0.8974329730806049  1.0000
  C   C15       1.0  0.5380247420274032  0.630994423529728  0.1023420019075161  1.0000
  C   C16       1.0  0.5000435647693993  0.49920507837214256  0.40620892433159383  1.0000
  C   C17       1.0  0.5000171819716074  0.5006930143445982  0.5934744655559073  1.0000
  C   C18       1.0  0.4602591375788165  0.3687110970413556  0.0519156107123564  1.0000
  C   C19       1.0  0.5551404226826621  0.6264787622056075  0.9477931826142125  1.0000
  C   C20       1.0  0.4263716625235574  0.8466806934223426  0.513708783957739  1.0000
  C   C21       1.0  0.5737091539996657  0.1535910158024407  0.5133326049712608  1.0000
  C   C22       1.0  0.4261824231099994  0.15289614603153004  0.5133446396778042  1.0000
  C   C23       1.0  0.5000594476488304  0.49978718154262214  0.10156513304057309  1.0000
  C   C24       1.0  0.5738976039973949  0.8473460515295342  0.5137671086740951  1.0000
  C   C25       1.0  0.4267340616977436  0.7693594673366985  0.5093786411826784  1.0000
  C   C26       1.0  0.5733649628253445  0.2308083035258619  0.5086881800550387  1.0000
  C   C27       1.0  0.4265386114492032  0.23012123585093033  0.5087214781354703  1.0000
  C   C28       1.0  0.5735510873848213  0.7700215374363849  0.5094541247210458  1.0000
  C   C29       1.0  0.5001525611062192  0.7302108303104901  0.5071938514876209  1.0000
  C   C30       1.0  0.49995094976092974  0.26985034334867203  0.5061389546179598  1.0000
  C   C31       1.0  0.5001255771733214  0.8870877147166992  0.5157597867434021  1.0000
  C   C32       1.0  0.49994780617024054  0.11320745275840237  0.5154187116547035  1.0000
  C   C33       1.0  0.5000872789480156  0.9660366258756949  0.5182776748890704  1.0000
  C   C34       1.0  0.499731764774424  0.5002579191034613  0.8981617389303409  1.0000
  C   C35       1.0  0.4999745831863082  0.034310673902247395  0.5181817006848846  1.0000
  C   C36       1.0  0.16635354824436635  0.45213271362445784  0.469405525441708  1.0000
  C   C37       1.0  0.8335296100531195  0.5479363835859913  0.5305115965296778  1.0000
  C   C38       1.0  0.166982081834206  0.5476082580327315  0.5305222740536735  1.0000
  C   C39       1.0  0.8333346222946292  0.45228092793357183  0.4695080325389824  1.0000
  C   C40       1.0  0.2504637974269031  0.45382253791975546  0.4705594676699151  1.0000
  C   C41       1.0  0.7494244659151762  0.5462317266415654  0.5291652262723545  1.0000
  C   C42       1.0  0.2510711800758544  0.545569363259112  0.529281077093195  1.0000
  C   C43       1.0  0.7492409534175125  0.45430886242814245  0.4705457904047777  1.0000
  C   C44       1.0  0.12274369807002475  0.4999464558824797  0.49999959656610576  1.0000
  C   C45       1.0  0.4808450063834187  0.4334604588960644  0.1266068510866631  1.0000
  C   C46       1.0  0.8773531632719058  0.5000697112840767  0.5000620310038002  1.0000
  C   C47       1.0  0.03701102013596369  0.5000334245293772  0.500074145832869  1.0000
  C   C48       1.0  0.9630875577799075  0.5000204091369438  0.5001191358652974  1.0000
  C   C49       1.0  0.4808444729257035  0.43177389431573227  0.1792100657504818  1.0000
  C   C50       1.0  0.5292304193038292  0.565122996152091  0.8205217143528145  1.0000
  C   C51       1.0  0.5195114589142238  0.5674860869993167  0.1796024349661565  1.0000
  C   C52       1.0  0.46998056455723974  0.43582853808002386  0.8201563993607267  1.0000
  C   C53       1.0  0.42653387556325845  0.4972342180130767  0.27830281341982044  1.0000
  C   C54       1.0  0.5732548211793757  0.49759311282870294  0.7213970716527882  1.0000
  C   C55       1.0  0.42669742267383276  0.49714660257022547  0.3278011003334882  1.0000
  C   C56       1.0  0.5284529870167419  0.5636268965639317  0.8731158269699009  1.0000
  C   C57       1.0  0.5731855611292574  0.49779721215073647  0.6719025025679173  1.0000
  C   C58       1.0  0.5734268568567417  0.5018090363101066  0.32766801971063597  1.0000
  C   C59       1.0  0.42655540423274374  0.5033725015110235  0.6719852767200936  1.0000
  C   C60       1.0  0.5736356415480586  0.5018963914271807  0.2781677175913018  1.0000
  C   C61       1.0  0.4262520840648493  0.5035425950521099  0.7214825719574947  1.0000
  C   C62       1.0  0.5001005111971467  0.49951705857719025  0.2537975960350209  1.0000
  C   C63       1.0  0.4997067417965297  0.5006163426055392  0.7458988492897662  1.0000
  C   C64       1.0  0.4620899489376029  0.36858510856966825  0.1015692432397444  1.0000
  C   C65       1.0  0.556550099012867  0.6256201165696352  0.8981366865599514  1.0000
  C   C66       1.0  0.5193522262950694  0.5660036249331029  0.1269886747592821  1.0000
  N   N1        1.0  0.5001113444168724  0.4995953871386049  0.20245949941155322  1.0000
  N   N2        1.0  0.4996388908415599  0.5005227660154785  0.7972216610036684  1.0000
  N   N3        1.0  0.2918629787209142  0.49960229394176286  0.4999042984429424  1.0000
  N   N4        1.0  0.7082435238572985  0.5003880898109329  0.49975434360726473  1.0000
  O   O1        1.0  0.43118205364091733  0.3853394904042203  0.5001299018327643  1.0000
  O   O2        1.0  0.5537457623012899  0.6192767429333513  0.7977060588317217  1.0000
  O   O3        1.0  0.4452983033259629  0.38183857815823063  0.7970220494464827  1.0000
  O   O4        1.0  0.5353403444269206  0.6241218375001478  0.20280327307842336  1.0000
  O   O5        1.0  0.5689394677851923  0.6145926724479124  0.5015198002534192  1.0000
  O   O6        1.0  0.43133934974491694  0.6140693284672096  0.5011236352024114  1.0000
  O   O7        1.0  0.5687843967268692  0.38585381994298723  0.49944457322678204  1.0000
  O   O8        1.0  0.43124773276822037  0.4985463642069873  0.4269160544715547  1.0000
  O   O9        1.0  0.5688321077001889  0.5003037901478108  0.5727877360918541  1.0000
  O   O10       1.0  0.4312634568827677  0.5009802365274609  0.5728774903816074  1.0000
  O   O11       1.0  0.5688174058960982  0.49988707760824963  0.4267874580783016  1.0000
  O   O12       1.0  0.465186632813925  0.37499971439856944  0.20207983769901014  1.0000
