data_image0
_chemical_formula_structural       Zn4H64C52I8N4O16
_chemical_formula_sum              "Zn4 H64 C52 I8 N4 O16"
_cell_length_a       9.563123327860005
_cell_length_b       14.615556347879659
_cell_length_c       16.03938136607693
_cell_angle_alpha    89.98155877060644
_cell_angle_beta     90.00002241257866
_cell_angle_gamma    90.00104364271913

_space_group_name_H-M_alt    "P 1"
_space_group_IT_number       1

loop_
  _space_group_symop_operation_xyz
  'x, y, z'

loop_
  _atom_site_type_symbol
  _atom_site_label
  _atom_site_symmetry_multiplicity
  _atom_site_fract_x
  _atom_site_fract_y
  _atom_site_fract_z
  _atom_site_occupancy
  Zn  Zn1       1.0  0.35243462838162304  0.5043252415447553  0.00035746641630400003  1.0000
  Zn  Zn2       1.0  0.648734204840018  0.4957178696389163  0.00015110144396860003  1.0000
  Zn  Zn3       1.0  0.3512674579198318  0.9957191468067348  0.500156320840901  1.0000
  Zn  Zn4       1.0  0.6475722827334495  0.004332807620691897  0.5003596587590167  1.0000
  H   H1        1.0  0.2861552789521795  0.7179518630932761  0.20676680846636236  1.0000
  H   H2        1.0  0.5671869928761666  0.40289470957720386  0.7055266787250575  1.0000
  H   H3        1.0  0.6837937126036736  0.6146040190811204  0.7499719052699518  1.0000
  H   H4        1.0  0.4328599290965089  0.5963884204808778  0.707045817422177  1.0000
  H   H5        1.0  0.43285872542140424  0.9028741797948855  0.2055277226283891  1.0000
  H   H6        1.0  0.683694998993289  0.885977786215477  0.24887449832335312  1.0000
  H   H7        1.0  0.5671341764023339  0.09638777146083297  0.2070329972618694  1.0000
  H   H8        1.0  0.3162068171294976  0.11458393129336737  0.2499630854275878  1.0000
  H   H9        1.0  0.27008221505411  0.2856077557470939  0.8026022601426918  1.0000
  H   H10       1.0  0.7023380579371405  0.36345203649114655  0.772358901572723  1.0000
  H   H11       1.0  0.7294604319892173  0.7156542061605717  0.8027978875912611  1.0000
  H   H12       1.0  0.7273374936028674  0.7108317213538982  0.1743708494089447  1.0000
  H   H13       1.0  0.29762084492322327  0.6365025405995864  0.7734462110095637  1.0000
  H   H14       1.0  0.29767969955338464  0.863451723302596  0.2723591222902186  1.0000
  H   H15       1.0  0.729922798537352  0.7855705199830253  0.3026205732592332  1.0000
  H   H16       1.0  0.7023788988148141  0.13650630813983608  0.27343171732979954  1.0000
  H   H17       1.0  0.27053726801894135  0.2156374240349094  0.3027958588124164  1.0000
  H   H18       1.0  0.4231942642740096  0.5976587567382693  0.2618938178464988  1.0000
  H   H19       1.0  0.6053796386691204  0.6164082401523883  0.2714463091879012  1.0000
  H   H20       1.0  0.5786545762819416  0.40217967677081373  0.2603655808104223  1.0000
  H   H21       1.0  0.3963531083979248  0.38403304325384363  0.2701541623553467  1.0000
  H   H22       1.0  0.39462817773910797  0.11642097071027277  0.7714182053567955  1.0000
  H   H23       1.0  0.7148310189384404  0.2808968144540316  0.20590930284546263  1.0000
  H   H24       1.0  0.5768091177854445  0.09768972238386908  0.761872212406928  1.0000
  H   H25       1.0  0.6036137226460668  0.884052416220534  0.770153513290964  1.0000
  H   H26       1.0  0.42130314044441514  0.9021787579430905  0.7603677854037373  1.0000
  H   H27       1.0  0.45646932016770597  0.20189864692954979  0.8907835481394601  1.0000
  H   H28       1.0  0.6314802753981682  0.21488066484823068  0.8589648056895103  1.0000
  H   H29       1.0  0.5420796840862466  0.799726211025046  0.8903116140475902  1.0000
  H   H30       1.0  0.3672748104945001  0.785772231712123  0.8584615576712835  1.0000
  H   H31       1.0  0.36851098163855067  0.7148685887591523  0.35897074241622573  1.0000
  H   H32       1.0  0.54350701526284  0.7018855210905243  0.39080408014270074  1.0000
  H   H33       1.0  0.6327175011194869  0.2857727287481281  0.35844945656940314  1.0000
  H   H34       1.0  0.2736405374192188  0.28914496046236576  0.17391735528270402  1.0000
  H   H35       1.0  0.45791901952730996  0.2997120198657298  0.39030798807392136  1.0000
  H   H36       1.0  0.8757277306414651  0.6414802206857642  0.9905535402237791  1.0000
  H   H37       1.0  0.12332085113565232  0.643465892562453  0.9847202335205554  1.0000
  H   H38       1.0  0.1255599633409119  0.35786084215188646  0.00025516934624650003  1.0000
  H   H39       1.0  0.8779006224802332  0.35539254436271506  0.9940923680301665  1.0000
  H   H40       1.0  0.876722322553306  0.14347337041841968  0.48480387792179164  1.0000
  H   H41       1.0  0.1243300368255404  0.1414773051282907  0.4905444382048359  1.0000
  H   H42       1.0  0.12206829241191738  0.8553905257188176  0.494117271273609  1.0000
  H   H43       1.0  0.8744093265653066  0.8578562218357886  0.5002037942605428  1.0000
  H   H44       1.0  0.8726478711494179  0.5802331254020173  0.8954755470404125  1.0000
  H   H45       1.0  0.2726803630606938  0.21086558100948588  0.6743544108768802  1.0000
  H   H46       1.0  0.1203967547976532  0.5768786834204818  0.8925120692150801  1.0000
  H   H47       1.0  0.1291876207007832  0.4115010599573594  0.9013882456255901  1.0000
  H   H48       1.0  0.8813028041787235  0.4144135168417618  0.8977430425748667  1.0000
  H   H49       1.0  0.8795808562733994  0.0769416393668081  0.39256142058002313  1.0000
  H   H50       1.0  0.1273203697251972  0.08021041893278637  0.3954764272735929  1.0000
  H   H51       1.0  0.118733135386897  0.9143936525322403  0.397756097198844  1.0000
  H   H52       1.0  0.8708357177838053  0.9115531910943202  0.40135562952323073  1.0000
  H   H53       1.0  0.8727889399912461  0.5615792884001537  0.12057569026178072  1.0000
  H   H54       1.0  0.1208275588718664  0.5692308062564705  0.11820630158013762  1.0000
  H   H55       1.0  0.12766437412300746  0.4480723009130968  0.12470363784692753  1.0000
  H   H56       1.0  0.7138542270590876  0.21796401231264886  0.7067510165080364  1.0000
  H   H57       1.0  0.8795640650911309  0.44021036733029456  0.1222655096171081  1.0000
  H   H58       1.0  0.8791486149609044  0.06916030582682707  0.6182549777779514  1.0000
  H   H59       1.0  0.12718711425914364  0.06159486683060318  0.6205696404961715  1.0000
  H   H60       1.0  0.12048244108714098  0.9402267651966765  0.6222859769363254  1.0000
  H   H61       1.0  0.8723707388796667  0.9479999009287635  0.6246878054011091  1.0000
  H   H62       1.0  0.7263408390486815  0.78916168808081  0.6739200029919206  1.0000
  H   H63       1.0  0.28515328220723296  0.7808887245942485  0.7059206615294826  1.0000
  H   H64       1.0  0.31635557533211767  0.38600556633176797  0.7488606181095394  1.0000
  C   C1        1.0  0.5055860994794373  0.619864684413926  0.8809992672156639  1.0000
  C   C2        1.0  0.4993603714077608  0.37038237424862785  0.11125074138829663  1.0000
  C   C3        1.0  0.4978102610894838  0.12846489764152838  0.6122560806545608  1.0000
  C   C4        1.0  0.5006140218192242  0.8703828412259325  0.6112536850353367  1.0000
  C   C5        1.0  0.3703613902494496  0.7618319207967231  0.18359113474789276  1.0000
  C   C6        1.0  0.640197899267953  0.7586745413267194  0.18074559073168933  1.0000
  C   C7        1.0  0.6301251348526407  0.23701737660045546  0.1834772312539954  1.0000
  C   C8        1.0  0.36043085341360387  0.24108250014048582  0.18069526727087046  1.0000
  C   C9        1.0  0.35981228474231847  0.25870923948242813  0.6807299027528233  1.0000
  C   C10       1.0  0.6296446497782355  0.2618446491389719  0.6835839483218324  1.0000
  C   C11       1.0  0.6395550184919045  0.741092921324764  0.6806990359868408  1.0000
  C   C12       1.0  0.49483888519824154  0.3812553176522825  0.8800951851613875  1.0000
  C   C13       1.0  0.36986066875573437  0.7370135040609043  0.6834880896091919  1.0000
  C   C14       1.0  0.3498963784835141  0.315683643899753  0.761414452190273  1.0000
  C   C15       1.0  0.6048478376559744  0.34350155008450395  0.7412172544178974  1.0000
  C   C16       1.0  0.6498335564186988  0.6849673592351518  0.7618747452667949  1.0000
  C   C17       1.0  0.3950557294609709  0.6561718628386968  0.7420929617097656  1.0000
  C   C18       1.0  0.39517180200839874  0.8434865191946129  0.24122073653228432  1.0000
  C   C19       1.0  0.6501238369521686  0.8156573305986824  0.2614251659205849  1.0000
  C   C20       1.0  0.6049391658713503  0.15617255819469728  0.24208269043171535  1.0000
  C   C21       1.0  0.3501679851854859  0.18495196887655396  0.2618722090862562  1.0000
  C   C22       1.0  0.5038628626628423  0.6510417381065706  0.2646269786413882  1.0000
  C   C23       1.0  0.49441727836589433  0.11986071004281476  0.3809950698221912  1.0000
  C   C24       1.0  0.4976471700580801  0.34906501955846636  0.2636151620666922  1.0000
  C   C25       1.0  0.4961360762171836  0.15106308334400603  0.7646058800698443  1.0000
  C   C26       1.0  0.5023296166281881  0.8490730425950229  0.7636187307749793  1.0000
  C   C27       1.0  0.504154071504594  0.7033436890810376  0.17871526880860966  1.0000
  C   C28       1.0  0.49687413495822597  0.2959100568619135  0.17813445027336175  1.0000
  C   C29       1.0  0.4958479764265036  0.20336708121321578  0.6786972868959327  1.0000
  C   C30       1.0  0.5031104671258789  0.7959119363047903  0.67813490352561  1.0000
  C   C31       1.0  0.49198901764032144  0.31608474985554114  0.8059199657145442  1.0000
  C   C32       1.0  0.507796213762127  0.6845784517626399  0.8064449866236671  1.0000
  C   C33       1.0  0.5080227136459072  0.8160682703973593  0.3059229892667191  1.0000
  C   C34       1.0  0.5051621038174049  0.8812463140014797  0.3801006975107058  1.0000
  C   C35       1.0  0.49219892314795294  0.18457375553281707  0.3064357983611572  1.0000
  C   C36       1.0  0.5228986511533051  0.21826018555220367  0.8368556124892521  1.0000
  C   C37       1.0  0.47596420322010147  0.7825681752869824  0.8364804999402439  1.0000
  C   C38       1.0  0.4770937636974111  0.7182452165171469  0.33686731924498053  1.0000
  C   C39       1.0  0.5240281223503233  0.2825633502330547  0.33647572241314094  1.0000
  C   C40       1.0  0.9180084943659211  0.5812850464771626  0.9582147825369065  1.0000
  C   C41       1.0  0.0794059075992948  0.581484756023492  0.9562577119442963  1.0000
  C   C42       1.0  0.0834368182249534  0.4153287167873429  0.9639444061952036  1.0000
  C   C43       1.0  0.9219975825637833  0.41499851586002723  0.9617049464455862  1.0000
  C   C44       1.0  0.9205987807004734  0.0815039563328952  0.4563027641535413  1.0000
  C   C45       1.0  0.9193726881227348  0.5013925784980201  0.09047891647133352  1.0000
  C   C46       1.0  0.0820045508762277  0.0812875455257185  0.4582243220838294  1.0000
  C   C47       1.0  0.07800681608372878  0.9149964154900375  0.4617085875328614  1.0000
  C   C48       1.0  0.9165633964869357  0.9153446980108341  0.463923083572162  1.0000
  C   C49       1.0  0.08131597559708578  0.5056663031441033  0.0905127061059972  1.0000
  C   C50       1.0  0.9187032505494628  0.0056177106612409  0.59052901717633  1.0000
  C   C51       1.0  0.0806454293183734  0.0013916037823094001  0.5904858935008123  1.0000
  C   C52       1.0  0.5021877233867329  0.6284435248283842  0.11226907173408313  1.0000
  I   I1        1.0  0.2739028280803453  0.8084632797514998  0.06702797913683871  1.0000
  I   I2        1.0  0.6781894208736291  0.8449259175310642  0.0702740245513809  1.0000
  I   I3        1.0  0.7254410766691067  0.18842783308997468  0.0672242808625612  1.0000
  I   I4        1.0  0.32136676160600086  0.15383501607155378  0.07104499216605122  1.0000
  I   I5        1.0  0.321832810730875  0.3449551628039841  0.5702564113846194  1.0000
  I   I6        1.0  0.7261314192785947  0.30850711351015997  0.5670271644500959  1.0000
  I   I7        1.0  0.6786212586576427  0.6538495402121139  0.5710525582041939  1.0000
  I   I8        1.0  0.2745202801810294  0.6884161359392847  0.567238741802882  1.0000
  N   N1        1.0  0.8664517951221882  0.49863520638470493  0.0032021502274944  1.0000
  N   N2        1.0  0.1347295776818171  0.5013936369999641  0.0033820902004251  1.0000
  N   N3        1.0  0.8652825097036755  0.0013872157271635  0.5033983182399737  1.0000
  N   N4        1.0  0.13355199373459212  0.9986285739233762  0.5032045589201459  1.0000
  O   O1        1.0  0.3901948149327056  0.6118648261435453  0.9195645985217737  1.0000
  O   O2        1.0  0.6175495063299651  0.6073679113076903  0.07835516405307173  1.0000
  O   O3        1.0  0.6168181154991644  0.40872805450172933  0.09864785969196532  1.0000
  O   O4        1.0  0.3839871832726515  0.39179368822780697  0.0774855633830782  1.0000
  O   O5        1.0  0.3824283919853784  0.10737152816832209  0.5783563464061461  1.0000
  O   O6        1.0  0.6149673206785239  0.0896687372350726  0.5999386499806292  1.0000
  O   O7        1.0  0.6160043537087105  0.8918153272689364  0.5774986483548191  1.0000
  O   O8        1.0  0.3831621109958476  0.9087189429361969  0.5986487626481465  1.0000
  O   O9        1.0  0.6192745726337278  0.5795048818055051  0.8991881862782735  1.0000
  O   O10       1.0  0.6105385389391956  0.38928088483303463  0.9183351837053026  1.0000
  O   O11       1.0  0.3813113968742741  0.4217292727215493  0.8984974399984795  1.0000
  O   O12       1.0  0.38072083495189457  0.07950439267074928  0.3991906806345753  1.0000
  O   O13       1.0  0.6098177470621027  0.11184644984654568  0.4195499723820717  1.0000
  O   O14       1.0  0.6187068726446726  0.9217113047495997  0.3985093538017851  1.0000
  O   O15       1.0  0.38947501038774857  0.8892787551946383  0.41833429170260683  1.0000
  O   O16       1.0  0.3850238478391006  0.5896371051293626  0.0999577059315371  1.0000
