data_image0
_chemical_formula_structural       Ag8H8C24N8O16
_chemical_formula_sum              "Ag8 H8 C24 N8 O16"
_cell_length_a       7.289597713391479
_cell_length_b       7.289695184443435
_cell_length_c       14.487083042948342
_cell_angle_alpha    90.31758759232692
_cell_angle_beta     90.31874624295087
_cell_angle_gamma    79.6128235340498

_space_group_name_H-M_alt    "P 1"
_space_group_IT_number       1

loop_
  _space_group_symop_operation_xyz
  'x, y, z'

loop_
  _atom_site_type_symbol
  _atom_site_label
  _atom_site_symmetry_multiplicity
  _atom_site_fract_x
  _atom_site_fract_y
  _atom_site_fract_z
  _atom_site_occupancy
  Ag  Ag1       1.0  0.2558763155032224  0.8373755916877813  0.4213219618906834  1.0000
  Ag  Ag2       1.0  0.16261928635203302  0.7441347559741304  0.07868248947409742  1.0000
  Ag  Ag3       1.0  0.7441345875729795  0.1626222412761322  0.5786843219391076  1.0000
  Ag  Ag4       1.0  0.8373806418800882  0.2558699823591368  0.9213162157137165  1.0000
  Ag  Ag5       1.0  0.3866800039024625  0.8380605136748045  0.7103904664189715  1.0000
  Ag  Ag6       1.0  0.1619161661508031  0.6133126685678646  0.7896049317241208  1.0000
  Ag  Ag7       1.0  0.6133291399518441  0.1619301773907296  0.2896068764673104  1.0000
  Ag  Ag8       1.0  0.8380858640474785  0.3866878871217309  0.21039447176560347  1.0000
  H   H1        1.0  0.1981774477642304  0.1662044852304874  0.2747884139997155  1.0000
  H   H2        1.0  0.8337917961609803  0.8018340684061088  0.22521019412248225  1.0000
  H   H3        1.0  0.8018312820933673  0.8337890557850542  0.7252116810940948  1.0000
  H   H4        1.0  0.1662047523463244  0.1981665598527087  0.7747899203007267  1.0000
  H   H5        1.0  0.2297247645460133  0.5021362968342302  0.2695477810053718  1.0000
  H   H6        1.0  0.49784510519582187  0.7703030306877849  0.23045547777769576  1.0000
  H   H7        1.0  0.7702910396978097  0.4978489720715801  0.7304592223904436  1.0000
  H   H8        1.0  0.5021432576932624  0.22971291840154612  0.7695411575888189  1.0000
  C   C1        1.0  0.24199116350344244  0.43912979651678086  0.49409281532655314  1.0000
  C   C2        1.0  0.5608546291549813  0.7580113346343466  0.005906771142328201  1.0000
  C   C3        1.0  0.758008654206428  0.5608680597387803  0.5059093683326239  1.0000
  C   C4        1.0  0.43913583570025577  0.2420004318113129  0.994090562526097  1.0000
  C   C5        1.0  0.2318912771034291  0.24848172853803163  0.4972325157115522  1.0000
  C   C6        1.0  0.7515111541838948  0.7681026018975387  0.002766614384249503  1.0000
  C   C7        1.0  0.7681055698905297  0.7515175661308717  0.5027703641360831  1.0000
  C   C8        1.0  0.24848437309315594  0.23189512982246896  0.9972279919823422  1.0000
  C   C9        1.0  0.2156793963020718  0.2427461771395656  0.3382849598775409  1.0000
  C   C10       1.0  0.7572380162860881  0.784327934681599  0.1617140984454366  1.0000
  C   C11       1.0  0.7843256363101075  0.7572377966988244  0.6617213990267886  1.0000
  C   C12       1.0  0.2427505280930475  0.2156781605332299  0.8382777411473372  1.0000
  C   C13       1.0  0.25069331860694877  0.13925393579751236  0.5864158009671243  1.0000
  C   C14       1.0  0.8607372639623635  0.7493031467797877  0.9135851684809426  1.0000
  C   C15       1.0  0.7493034178647517  0.8607384767936849  0.4135905573518812  1.0000
  C   C16       1.0  0.13926193653835378  0.2507057598625551  0.08641283323526493  1.0000
  C   C17       1.0  0.254290127902479  0.5473078134864265  0.5819464716738594  1.0000
  C   C18       1.0  0.45266054180959264  0.7457066091236157  0.9180538950716868  1.0000
  C   C19       1.0  0.7456995861168423  0.45266934456968494  0.4180592810403141  1.0000
  C   C20       1.0  0.5473299230456519  0.25430515732204373  0.08194343859673843  1.0000
  C   C21       1.0  0.23090516936401437  0.4313090177566324  0.3355983302916458  1.0000
  C   C22       1.0  0.5686865659361117  0.7691024015658173  0.1643949644074709  1.0000
  C   C23       1.0  0.7690985728254702  0.5686885974941234  0.6643948645473687  1.0000
  C   C24       1.0  0.431316979515273  0.23090505232859468  0.8356023359505828  1.0000
  N   N1        1.0  0.24293970549329916  0.5294928899437962  0.4132190117517923  1.0000
  N   N2        1.0  0.4704922991144472  0.7570755034436658  0.08678351782563001  1.0000
  N   N3        1.0  0.7570695058275447  0.4704995002520106  0.5867921318228256  1.0000
  N   N4        1.0  0.5295003172370016  0.24293890151264466  0.9132082746545367  1.0000
  N   N5        1.0  0.21632058681028346  0.1515179857901643  0.41880944705779655  1.0000
  N   N6        1.0  0.8484743039152534  0.7836811148125802  0.0811907623021071  1.0000
  N   N7        1.0  0.7836834996100066  0.8484783415632221  0.5811885839697342  1.0000
  N   N8        1.0  0.1515227958212009  0.21631680057386393  0.9188128122058644  1.0000
  O   O1        1.0  0.41727260839943614  0.1002356012294925  0.6181865645199167  1.0000
  O   O2        1.0  0.8997531419095992  0.5827266095094358  0.8818120038000646  1.0000
  O   O3        1.0  0.5827248088576269  0.8997677712596541  0.3818121554129236  1.0000
  O   O4        1.0  0.1002419866188049  0.4172739873914324  0.11818604502874312  1.0000
  O   O5        1.0  0.11129911444479029  0.0851125162983593  0.6197345522445235  1.0000
  O   O6        1.0  0.9148816432395109  0.8886953317198305  0.8802645967326799  1.0000
  O   O7        1.0  0.8887101513939086  0.9148782966139636  0.3802683126793483  1.0000
  O   O8        1.0  0.08512496940388561  0.11130237670852948  0.11973410980452574  1.0000
  O   O9        1.0  0.18686124601649817  0.4824234815838366  0.6526149330906321  1.0000
  O   O10       1.0  0.5175502494095099  0.8131439262517972  0.8473832969781797  1.0000
  O   O11       1.0  0.8131333019885433  0.5175646238281431  0.3473845462376915  1.0000
  O   O12       1.0  0.4824594699803484  0.18686765474042494  0.1526146545691844  1.0000
  O   O13       1.0  0.3297384662103866  0.6904685318663014  0.5775578896400831  1.0000
  O   O14       1.0  0.3095208287483685  0.6702646213796586  0.9224434073933383  1.0000
  O   O15       1.0  0.6702741095872184  0.30952795317311654  0.4224511544444384  1.0000
  O   O16       1.0  0.6904781585643179  0.3297692825750573  0.07755173849354693  1.0000
