data_image0
_chemical_formula_structural       Cd2H16C8N16Cl4
_chemical_formula_sum              "Cd2 H16 C8 N16 Cl4"
_cell_length_a       3.7858856641919454
_cell_length_b       8.344561825658934
_cell_length_c       16.910039288642903
_cell_angle_alpha    89.99938100003173
_cell_angle_beta     93.26362103313257
_cell_angle_gamma    90.00384039207177

_space_group_name_H-M_alt    "P 1"
_space_group_IT_number       1

loop_
  _space_group_symop_operation_xyz
  'x, y, z'

loop_
  _atom_site_type_symbol
  _atom_site_label
  _atom_site_symmetry_multiplicity
  _atom_site_fract_x
  _atom_site_fract_y
  _atom_site_fract_z
  _atom_site_occupancy
  Cd  Cd1       1.0  0.49999278131511465  0.49999836676092707  0.5000025835313765  1.0000
  Cd  Cd2       1.0  8.216807501151632e-07  1.9967991775999987e-06  0.9999966882533542  1.0000
  H   H1        1.0  0.26519489847738253  0.4644927063922422  0.9194068291038988  1.0000
  H   H2        1.0  0.2347427805605875  0.9645150946421737  0.5805782354044808  1.0000
  H   H3        1.0  0.734814717639857  0.5355076226894508  0.08059517888481342  1.0000
  H   H4        1.0  0.7652355400371462  0.03548283726772179  0.4194167599734371  1.0000
  H   H5        1.0  0.04848098374634453  0.3007005840943079  0.874106215653569  1.0000
  H   H6        1.0  0.45154799905717624  0.8006567004896467  0.6258990072291012  1.0000
  H   H7        1.0  0.9515208186529167  0.6992985465035982  0.12589389148995883  1.0000
  H   H8        1.0  0.5484590113816524  0.19932804955063688  0.3741023671700319  1.0000
  H   H9        1.0  0.2430010609265025  0.7147638445588311  0.8570193375024076  1.0000
  H   H10       1.0  0.25694268319535507  0.2147821406721064  0.6429654787371248  1.0000
  H   H11       1.0  0.7570111193485689  0.28524247647484197  0.14298389486594942  1.0000
  H   H12       1.0  0.7430278242954744  0.7852229814509284  0.3570276157815329  1.0000
  H   H13       1.0  0.9780282979971631  0.7410387017830898  0.7696216852928544  1.0000
  H   H14       1.0  0.522002260699999  0.24103825177778038  0.7303883914937686  1.0000
  H   H15       1.0  0.021960400214489105  0.2589628254067335  0.2303764353159394  1.0000
  H   H16       1.0  0.47800979675926675  0.758963275693084  0.2696166132045548  1.0000
  C   C1        1.0  0.6768305294198813  0.5177961470396751  0.6922120021951699  1.0000
  C   C2        1.0  0.8231443111957263  0.0178235705093783  0.8077895769974646  1.0000
  C   C3        1.0  0.32317115103654004  0.4822101738481876  0.3077898772582017  1.0000
  C   C4        1.0  0.17685496900276124  0.9821851471523715  0.1922087149662843  1.0000
  C   C5        1.0  0.9988012209855057  0.5125100571461089  0.8131193236413239  1.0000
  C   C6        1.0  0.5012299443024872  0.012523125571121299  0.6868991667418314  1.0000
  C   C7        1.0  0.0012005001185358024  0.4874938669784398  0.18688196504209742  1.0000
  C   C8        1.0  0.4987796309052472  0.9874760051180613  0.3131034320228636  1.0000
  N   N1        1.0  0.5463789571621833  0.5708521264765024  0.6323686137976807  1.0000
  N   N2        1.0  0.9536482557305492  0.0708510529960265  0.8676382417849524  1.0000
  N   N3        1.0  0.45360184559978484  0.42914700382979726  0.36762878751588346  1.0000
  N   N4        1.0  0.046364169215870304  0.9291516729252149  0.1323614459455982  1.0000
  N   N5        1.0  0.7880609703756891  0.4435332102058993  0.7553613815612295  1.0000
  N   N6        1.0  0.7120124744381117  0.9434589537913212  0.7446458664949559  1.0000
  N   N7        1.0  0.21192223194584878  0.5564539362443169  0.24463960725805117  1.0000
  N   N8        1.0  0.28802102978220034  0.056516209574681384  0.2553553455638919  1.0000
  N   N9        1.0  0.10026825421724081  0.42127330604514407  0.8750871028635032  1.0000
  N   N10       1.0  0.39974159015519467  0.9212829823045753  0.6249123890751633  1.0000
  N   N11       1.0  0.8997413210777908  0.5787270230293089  0.1249154958991809  1.0000
  N   N12       1.0  0.6002576892576245  0.0787149498896937  0.3750859029066973  1.0000
  N   N13       1.0  0.10510929047765669  0.6647620371641807  0.8091937718767284  1.0000
  N   N14       1.0  0.3948550850009127  0.16479307773487756  0.6908088159497439  1.0000
  N   N15       1.0  0.8949004078077683  0.33524548224362866  0.19080705455196784  1.0000
  N   N16       1.0  0.6051281187173676  0.8352132428797387  0.3091921728373421  1.0000
  Cl  Cl1       1.0  0.00663044149413851  0.27957510140983277  0.5263743950574451  1.0000
  Cl  Cl2       1.0  0.49334015925026653  0.7795786481517339  0.9736264543632062  1.0000
  Cl  Cl3       1.0  0.993355488885129  0.7204264257182158  0.4736254550315024  1.0000
  Cl  Cl4       1.0  0.5066617659648004  0.22042527600898149  0.026371880450355396  1.0000
