data_image0
_chemical_formula_structural       Al4H20C32O20
_chemical_formula_sum              "Al4 H20 C32 O20"
_cell_length_a       6.696416890007862
_cell_length_b       12.22204671701643
_cell_length_c       17.249546639002475
_cell_angle_alpha    90.00006011346696
_cell_angle_beta     90.00001438829268
_cell_angle_gamma    90.00017643550098

_space_group_name_H-M_alt    "P 1"
_space_group_IT_number       1

loop_
  _space_group_symop_operation_xyz
  'x, y, z'

loop_
  _atom_site_type_symbol
  _atom_site_label
  _atom_site_symmetry_multiplicity
  _atom_site_fract_x
  _atom_site_fract_y
  _atom_site_fract_z
  _atom_site_occupancy
  Al  Al1       1.0  0.0  0.0  0.0  1.0000
  Al  Al2       1.0  1.5617285030000002e-06  0.49999927671775873  0.49999941392643893  1.0000
  Al  Al3       1.0  0.50000023221493  4.1805621719999995e-07  2.7015367700000007e-08  1.0000
  Al  Al4       1.0  0.4999988072715596  0.49999969477148193  0.4999994409416502  1.0000
  H   H1        1.0  0.0702425562674804  0.6772420067357957  0.30178499889325394  1.0000
  H   H2        1.0  0.070114402242929  0.7861393874628602  0.1773980021853419  1.0000
  H   H3        1.0  0.9297545015441457  0.17724210540068697  0.19821460099682756  1.0000
  H   H4        1.0  0.9298817797007075  0.28613885209210815  0.3226022584894963  1.0000
  H   H5        1.0  0.5702448844732827  0.3227587186026497  0.6982127041152995  1.0000
  H   H6        1.0  0.5701191713911343  0.2138621558581804  0.8226014399859454  1.0000
  H   H7        1.0  0.42975627348546647  0.8227600393188296  0.8017877786644336  1.0000
  H   H8        1.0  0.42988435576972966  0.7138616564537797  0.6774001211849524  1.0000
  H   H9        1.0  0.929758044947512  0.3227573828096624  0.6982138829902099  1.0000
  H   H10       1.0  0.9298861989745503  0.21386082027659367  0.8226014594238082  1.0000
  H   H11       1.0  0.07024460634237072  0.8227597387255086  0.8017860200636165  1.0000
  H   H12       1.0  0.0701173281838265  0.7138621738413774  0.6773995220214033  1.0000
  H   H13       1.0  0.4297542234036201  0.677239852748414  0.30178675749315437  1.0000
  H   H14       1.0  0.4298799364905719  0.7861380518804495  0.17739860134850724  1.0000
  H   H15       1.0  0.57024283440105  0.17724180480736604  0.1982128423960106  1.0000
  H   H16       1.0  0.5701162454505777  0.286139369480523  0.3226010796006449  1.0000
  H   H17       1.0  0.7500015051148027  0.1427271451679033  0.019006390264685504  1.0000
  H   H18       1.0  0.2500013303289421  0.6427251575289076  0.480994343383955  1.0000
  H   H19       1.0  0.2499990961074872  0.8572746989591092  0.9809936510704564  1.0000
  H   H20       1.0  0.7499992708865549  0.35727423201783637  0.5190062776756507  1.0000
  C   C1        1.0  0.9313090795631496  0.7016756023590035  0.2738921475220479  1.0000
  C   C2        1.0  0.9313435754891017  0.7612842257595176  0.20523935089705966  1.0000
  C   C3        1.0  0.06868214345332999  0.20167757514521156  0.22610747055598784  1.0000
  C   C4        1.0  0.0686494788517606  0.2612846636268671  0.2947608912765959  1.0000
  C   C5        1.0  0.431312314215603  0.29832327218407073  0.7261061742283916  1.0000
  C   C6        1.0  0.4313465117456373  0.23871546703584554  0.7947607100335363  1.0000
  C   C7        1.0  0.5686916918546531  0.7983223293989212  0.7738937106363225  1.0000
  C   C8        1.0  0.5686556629984238  0.7387136044726929  0.7052402899113943  1.0000
  C   C9        1.0  0.0686930149854632  0.29832296899413535  0.7261067343611886  1.0000
  C   C10       1.0  0.0686555323878011  0.23871434559155347  0.7947601107114012  1.0000
  C   C11       1.0  0.9313184577641493  0.7983226325942424  0.7738919910531621  1.0000
  C   C12       1.0  0.9313481356916925  0.7387147259169494  0.705239150057466  1.0000
  C   C13       1.0  0.5686897803353332  0.7016761173626305  0.27389270765515056  1.0000
  C   C14       1.0  0.5686511027999687  0.7612847407011145  0.20523875157545046  1.0000
  C   C15       1.0  0.4313074160244028  0.2016770601452862  0.22610517124706325  1.0000
  C   C16       1.0  0.4313449382165757  0.261285785072765  0.29475859197206944  1.0000
  C   C17       1.0  0.7499969645716931  0.6110041391117064  0.38378716613200947  1.0000
  C   C18       1.0  0.7500015972195797  0.6724528752651369  0.3089747880155258  1.0000
  C   C19       1.0  0.7500080455050906  0.8612721590784389  0.0995879059505711  1.0000
  C   C20       1.0  0.7499944296515864  0.792000671628763  0.17089178314833486  1.0000
  C   C21       1.0  0.24998329096825236  0.1110062525692186  0.11621122500184104  1.0000
  C   C22       1.0  0.24999543344292624  0.17245509936302741  0.19102538803585392  1.0000
  C   C23       1.0  0.2500049891558618  0.36127305643471164  0.40041357010285594  1.0000
  C   C24       1.0  0.24999730551998312  0.292000645350285  0.3291073224386309  1.0000
  C   C25       1.0  0.25000662331286355  0.3889944322426828  0.6162117157513123  1.0000
  C   C26       1.0  0.24999900399343028  0.32754569608761125  0.6910252533183938  1.0000
  C   C27       1.0  0.24999554238658567  0.138728866857079  0.9004115556590409  1.0000
  C   C28       1.0  0.25000467822979283  0.20799953610901406  0.8291070987353494  1.0000
  C   C29       1.0  0.7500143235826614  0.8889955915565865  0.8837905555092791  1.0000
  C   C30       1.0  0.7500036744412741  0.8275459265696056  0.8089752330242845  1.0000
  C   C31       1.0  0.7499971054051855  0.6387296058884075  0.5995882104088113  1.0000
  C   C32       1.0  0.750003295688721  0.707996289616183  0.6708938783454388  1.0000
  O   O1        1.0  0.9193016371006237  0.8886253094072317  0.0720527088493768  1.0000
  O   O2        1.0  0.9192695219721899  0.5876006935635303  0.4131525760243875  1.0000
  O   O3        1.0  0.08068765927954763  0.3886251461711439  0.4279470483870257  1.0000
  O   O4        1.0  0.0807240408863095  0.08760166235258275  0.086847536865136  1.0000
  O   O5        1.0  0.4193128881379877  0.11137518145097398  0.9279461913299442  1.0000
  O   O6        1.0  0.4192673497999522  0.41240061542331574  0.5868463241510399  1.0000
  O   O7        1.0  0.5806990179149807  0.6113739602572751  0.5720547138277895  1.0000
  O   O8        1.0  0.5807328231070982  0.9124007169100707  0.9131559645308301  1.0000
  O   O9        1.0  0.08069597745144111  0.11137735290913751  0.9279450135843774  1.0000
  O   O10       1.0  0.0807325725858732  0.41240115056429966  0.5868468855854517  1.0000
  O   O11       1.0  0.9193084619263132  0.6113734251795718  0.5720553118481819  1.0000
  O   O12       1.0  0.9192750669957307  0.9123985453868996  0.9131536639200706  1.0000
  O   O13       1.0  0.5806892064197342  0.8886266626760033  0.07205211082913372  1.0000
  O   O14       1.0  0.5807332514170298  0.5875995923148523  0.4131513982819613  1.0000
  O   O15       1.0  0.41930606330849685  0.3886254292936401  0.4279464869574384  1.0000
  O   O16       1.0  0.41926329810753765  0.08760112721362386  0.08684465652944343  1.0000
  O   O17       1.0  0.7499982968920096  0.06598876028082398  0.005169476306385001  1.0000
  O   O18       1.0  0.24999663675550474  0.5659884294910354  0.49483293939703543  1.0000
  O   O19       1.0  0.2500008109923613  0.9340122656522281  0.9948317244791268  1.0000
  O   O20       1.0  0.7500009777904354  0.43401177824677717  0.5051676816627195  1.0000
