data_image0
_chemical_formula_structural       Zn2H18C32S4N2O20
_chemical_formula_sum              "Zn2 H18 C32 S4 N2 O20"
_cell_length_a       9.725689350153273
_cell_length_b       10.796861927855309
_cell_length_c       14.994445955531493
_cell_angle_alpha    89.21641918553375
_cell_angle_beta     76.51660892953606
_cell_angle_gamma    90.49566136464709

_space_group_name_H-M_alt    "P 1"
_space_group_IT_number       1

loop_
  _space_group_symop_operation_xyz
  'x, y, z'

loop_
  _atom_site_type_symbol
  _atom_site_label
  _atom_site_symmetry_multiplicity
  _atom_site_fract_x
  _atom_site_fract_y
  _atom_site_fract_z
  _atom_site_occupancy
  Zn  Zn1       1.0  0.8590333966843104  0.4960956887577126  0.48458437154067013  1.0000
  Zn  Zn2       1.0  0.1484089876159231  0.49987728974251405  0.5030455278274033  1.0000
  H   H1        1.0  0.2068121261560378  0.5432410724404237  0.8838803866551928  1.0000
  H   H2        1.0  0.7614862381286612  0.3327663444404508  0.09682003152038729  1.0000
  H   H3        1.0  0.654871572443291  0.48284599129818423  0.7631850623633625  1.0000
  H   H4        1.0  0.3258201356683017  0.44226425924068025  0.22292363671836313  1.0000
  H   H5        1.0  0.06808762562507549  0.39782575391328834  0.7995392293364745  1.0000
  H   H6        1.0  0.9265284543430851  0.5737243062969527  0.18951219328616992  1.0000
  H   H7        1.0  0.015449865459629602  0.5742345646063427  0.0198355143888236  1.0000
  H   H8        1.0  0.9657971064337191  0.34522274625153676  0.9641033008202554  1.0000
  H   H9        1.0  0.4536086321997531  0.4960546318189999  0.8146576843800447  1.0000
  H   H10       1.0  0.5125125908509602  0.3722120377455127  0.1657481069576932  1.0000
  H   H11       1.0  0.33493924930010616  0.5521264544796765  0.6358906221277537  1.0000
  H   H12       1.0  0.6717824917831763  0.4386592607896631  0.35519987243835527  1.0000
  H   H13       1.0  0.5996801176636595  0.5571660123956761  0.6242066305300112  1.0000
  H   H14       1.0  0.4066375662540338  0.4450867148233472  0.36437232336759007  1.0000
  H   H15       1.0  0.3550294951203554  0.14598501134177871  0.3604695154308502  1.0000
  H   H16       1.0  0.9083993163879711  0.703173301710919  0.34716746338722254  1.0000
  H   H17       1.0  0.0696655862550983  0.6834381210338237  0.6618495351986553  1.0000
  H   H18       1.0  0.757868028225282  0.28909459860182807  0.6018521153425452  1.0000
  C   C1        1.0  0.009569221376523303  0.2652640273940605  0.4956888491931934  1.0000
  C   C2        1.0  0.9940449681713446  0.7286333348750489  0.5053263721698116  1.0000
  C   C3        1.0  0.4159586668619468  0.488628766725043  0.8888388909241413  1.0000
  C   C4        1.0  0.5531757970966282  0.3909180539096795  0.09269079623774698  1.0000
  C   C5        1.0  0.2774416027237763  0.5146715022817292  0.9270234547000484  1.0000
  C   C6        1.0  0.692796795477264  0.36843042306239226  0.0545468560803641  1.0000
  C   C7        1.0  0.11802448342524488  0.05794574399975261  0.520674999571547  1.0000
  C   C8        1.0  0.8888542564776076  0.9344754533177022  0.47786411083436053  1.0000
  C   C9        1.0  0.10005613701453342  0.9300819864396745  0.538246879283804  1.0000
  C   C10       1.0  0.8822601442890632  0.0627413704312971  0.4919028603396924  1.0000
  C   C11       1.0  0.9931385920782887  0.867485108820816  0.5074848216018851  1.0000
  C   C12       1.0  0.004291416507285799  0.12622410943018994  0.5026160640801294  1.0000
  C   C13       1.0  0.4106287801821296  0.5280144297363734  0.573110541332106  1.0000
  C   C14       1.0  0.5958730547834818  0.4658903893883704  0.41713074035196473  1.0000
  C   C15       1.0  0.5554808730172099  0.5293133996927324  0.5671083344575507  1.0000
  C   C16       1.0  0.4513891847182311  0.46822380912158934  0.4222136734613926  1.0000
  C   C17       1.0  0.07655564910476191  0.5100501562439704  0.31679775157623163  1.0000
  C   C18       1.0  0.9190758031111556  0.4724135241468588  0.6734115517205482  1.0000
  C   C19       1.0  0.1237658490742533  0.5072634843980455  0.2152084347736789  1.0000
  C   C20       1.0  0.8648288170241185  0.44498791319872316  0.7728675591337434  1.0000
  C   C21       1.0  0.08322789013206489  0.5443815092639852  0.0644631814764338  1.0000
  C   C22       1.0  0.8981114864037849  0.37841422877006176  0.9203916866652974  1.0000
  C   C23       1.0  0.0335467446957409  0.5442057564025903  0.158393188708267  1.0000
  C   C24       1.0  0.9552985782375739  0.40741215625571675  0.8292784601408912  1.0000
  C   C25       1.0  0.2605082633788243  0.46927736271192094  0.1763283684982682  1.0000
  C   C26       1.0  0.7204777873010997  0.45458533837189197  0.809290470210513  1.0000
  C   C27       1.0  0.3147592535548398  0.46897483204559626  0.0807409612616752  1.0000
  C   C28       1.0  0.6601566513101459  0.4324932093621499  0.9030313611038637  1.0000
  C   C29       1.0  0.22357041605938122  0.5087340635549822  0.023787852530539094  1.0000
  C   C30       1.0  0.751621147179307  0.39224643383953167  0.9595339208030893  1.0000
  C   C31       1.0  0.45976549013440127  0.43654293429461427  0.039354291927857325  1.0000
  C   C32       1.0  0.5115890117458549  0.4519976737502772  0.9433112370999623  1.0000
  S   S1        1.0  0.299485380819263  0.11708721403461908  0.5037521041511966  1.0000
  S   S2        1.0  0.7815209620974672  0.8660753273290356  0.404216101622211  1.0000
  S   S3        1.0  0.1942891865661167  0.8544248378998986  0.6170193912389692  1.0000
  S   S4        1.0  0.7036826550759656  0.1284944104474306  0.5241535340656256  1.0000
  N   N1        1.0  0.6468029013835093  0.4968631795228687  0.48960195354593594  1.0000
  N   N2        1.0  0.35974951859738985  0.4983579386532925  0.5003455941115575  1.0000
  O   O1        1.0  0.9212367067892585  0.316618841889003  0.45689787199821563  1.0000
  O   O2        1.0  0.1147937520464168  0.6799737365393314  0.4791480974599125  1.0000
  O   O3        1.0  0.0994264840491539  0.32005062411217733  0.5304821748659521  1.0000
  O   O4        1.0  0.8762877857840649  0.6723427476521238  0.5288382857034294  1.0000
  O   O5        1.0  0.949990423329872  0.5497068708411773  0.35208978690285875  1.0000
  O   O6        1.0  0.0407618865380854  0.5249218213707323  0.6449300283073143  1.0000
  O   O7        1.0  0.1613082873109875  0.47305574296146363  0.3636741011277493  1.0000
  O   O8        1.0  0.8378817853808799  0.4411977031153995  0.6211301602726635  1.0000
  O   O9        1.0  0.323586414245483  0.1983391878704239  0.5728033499313909  1.0000
  O   O10       1.0  0.3838072516278075  0.009819869524683602  0.47512157543292943  1.0000
  O   O11       1.0  0.3098890164593868  0.20016465559085367  0.4105568758699931  1.0000
  O   O12       1.0  0.6740820780172427  0.7794293252662928  0.4487034564757337  1.0000
  O   O13       1.0  0.7492474334080086  0.9701385241390813  0.35251895970726116  1.0000
  O   O14       1.0  0.9053916867689935  0.7951701488595619  0.3357828878410061  1.0000
  O   O15       1.0  0.30637992169969414  0.7733387870117666  0.5755109531678642  1.0000
  O   O16       1.0  0.21702110092359564  0.9534425640469949  0.6748524796329818  1.0000
  O   O17       1.0  0.0657197398305058  0.7739119254520332  0.6767011824629067  1.0000
  O   O18       1.0  0.664382608640942  0.2085031796873125  0.4573039845470319  1.0000
  O   O19       1.0  0.6196108140407474  0.022365376927460507  0.5615572650522792  1.0000
  O   O20       1.0  0.7176995363772535  0.2037214670438487  0.612793209276397  1.0000
