data_image0
_chemical_formula_structural       Cd2H24C32N4O8
_chemical_formula_sum              "Cd2 H24 C32 N4 O8"
_cell_length_a       7.56488152454021
_cell_length_b       10.304429446324775
_cell_length_c       12.78633373623154
_cell_angle_alpha    111.3154630805567
_cell_angle_beta     104.01854314979386
_cell_angle_gamma    97.62824363639865

_space_group_name_H-M_alt    "P 1"
_space_group_IT_number       1

loop_
  _space_group_symop_operation_xyz
  'x, y, z'

loop_
  _atom_site_type_symbol
  _atom_site_label
  _atom_site_symmetry_multiplicity
  _atom_site_fract_x
  _atom_site_fract_y
  _atom_site_fract_z
  _atom_site_occupancy
  Cd  Cd1       1.0  0.32629022327208906  0.080621370604689  0.21995693757623513  1.0000
  Cd  Cd2       1.0  0.6062957720567468  0.8606628472036775  0.7797895959045748  1.0000
  H   H1        1.0  0.07400635157345896  0.5885471752509872  0.1532261966217874  1.0000
  H   H2        1.0  0.42077661999553584  0.43582107013083526  0.8469639653952613  1.0000
  H   H3        1.0  0.02191532208443899  0.6095324012977913  0.9138685627901852  1.0000
  H   H4        1.0  0.6080732299653064  0.6961266079696458  0.08628407053302578  1.0000
  H   H5        1.0  0.6759645096371969  0.13329738525135326  0.7203414757485052  1.0000
  H   H6        1.0  0.4559496507363718  0.4131222791015503  0.27988938726883833  1.0000
  H   H7        1.0  0.8822652572148044  0.0854705751194373  0.03242565608898213  1.0000
  H   H8        1.0  0.34981437025731316  0.05344838555603809  0.9677188570166494  1.0000
  H   H9        1.0  0.02477515418699733  0.34590545736732986  0.1441971575974961  1.0000
  H   H10       1.0  0.38052921731508593  0.20208519340661718  0.8559470692147715  1.0000
  H   H11       1.0  0.8155771758212468  0.3973167926131325  0.8183557822559636  1.0000
  H   H12       1.0  0.49715527370484114  0.5792684946352153  0.18190171549921533  1.0000
  H   H13       1.0  0.8975774804332562  0.3364975827108694  0.35074135522462074  1.0000
  H   H14       1.0  0.046497076689767894  0.9856499514563596  0.6492348709987399  1.0000
  H   H15       1.0  0.013273801334136609  0.8055692177385722  0.8405546870137288  1.0000
  H   H16       1.0  0.6725808858352663  0.9646984321820399  0.15920309386177692  1.0000
  H   H17       1.0  0.19936510259780954  0.6436016230515732  0.7474183115510585  1.0000
  H   H18       1.0  0.9519727833998102  0.8961711850929033  0.2525208177571443  1.0000
  H   H19       1.0  0.7602839354612884  0.5022326094859793  0.41368002889439043  1.0000
  H   H20       1.0  0.8460972253066431  0.08826118224408931  0.586106441852607  1.0000
  H   H21       1.0  0.5895843383481605  0.6695271102383699  0.520147952937343  1.0000
  H   H22       1.0  0.5689008960138011  0.14897973437603435  0.4795675283025461  1.0000
  H   H23       1.0  0.24795820426456308  0.47710517745111486  0.5731314264207867  1.0000
  H   H24       1.0  0.17456805976605944  0.9038815219703693  0.42685592832420843  1.0000
  C   C1        1.0  0.15582255059309344  0.7959465248104322  0.08410911944425693  1.0000
  C   C2        1.0  0.5717836720199898  0.7121717269578981  0.9159735045561137  1.0000
  C   C3        1.0  0.02607278271289457  0.5483332126754661  0.0567295118500155  1.0000
  C   C4        1.0  0.46926517671153795  0.4920581588006384  0.9434538455050758  1.0000
  C   C5        1.0  0.05960630270919853  0.6424003804006873  0.009251570149842825  1.0000
  C   C6        1.0  0.5503057085602522  0.6335696822670727  0.9909124990890349  1.0000
  C   C7        1.0  0.7592089171325184  0.18540675198945422  0.8138431077761369  1.0000
  C   C8        1.0  0.44551943115941134  0.3718650771711013  0.1863642843667536  1.0000
  C   C9        1.0  0.9375944223271732  0.39546376483970397  0.9907597653724595  1.0000
  C   C10       1.0  0.4466754015114915  0.4051053488032963  0.009372334461403429  1.0000
  C   C11       1.0  0.8718245152349553  0.15764804550482134  0.9877871338805521  1.0000
  C   C12       1.0  0.38401850874456767  0.1702350974449729  0.0123565818821305  1.0000
  C   C13       1.0  0.9510532425491789  0.3043003038320792  0.04986039497946851  1.0000
  C   C14       1.0  0.40113849803904605  0.2548543113416457  0.950282046230072  1.0000
  C   C15       1.0  0.8368997575128391  0.3322979996568804  0.86899055619525  1.0000
  C   C16       1.0  0.46777837577661785  0.463634321845106  0.13118528980612612  1.0000
  C   C17       1.0  0.1560828005269812  0.2655880574295112  0.3525756657840447  1.0000
  C   C18       1.0  0.30314286956024006  0.9128650472984958  0.6473830352143324  1.0000
  C   C19       1.0  0.04090964590430697  0.35812334717317645  0.40777939667484026  1.0000
  C   C20       1.0  0.1327121567307685  0.950166470057333  0.5921494470306784  1.0000
  C   C21       1.0  0.9598283394352903  0.7356175687666066  0.7461464456094831  1.0000
  C   C22       1.0  0.7134783948839  0.9892517960184081  0.2536440307651375  1.0000
  C   C23       1.0  0.06327481748141389  0.6443933435474208  0.6942331228844837  1.0000
  C   C24       1.0  0.8688686032855912  0.9500085132300954  0.30564046179132026  1.0000
  C   C25       1.0  0.994231409106533  0.556300305546344  0.5726226455919132  1.0000
  C   C26       1.0  0.921299522451399  0.9834856108298028  0.4272347401221382  1.0000
  C   C27       1.0  0.8202965930371563  0.5660155591196913  0.5085710063768049  1.0000
  C   C28       1.0  0.8112332724651311  0.05714169811950138  0.49119896169171545  1.0000
  C   C29       1.0  0.7246610666145088  0.65885785129732  0.5665735774400603  1.0000
  C   C30       1.0  0.6576410934775438  0.0919691279134796  0.43318305669086504  1.0000
  C   C31       1.0  0.1046727410959605  0.46182327418843283  0.5184205698745786  1.0000
  C   C32       1.0  0.08589378524348487  0.9432803355829833  0.48150939221515204  1.0000
  N   N1        1.0  0.7774395557563097  0.0986354509274818  0.871328336652475  1.0000
  N   N2        1.0  0.4061787469098733  0.2276049812562704  0.12883232995948657  1.0000
  N   N3        1.0  0.7930319721949673  0.7425685450087443  0.6837750333683134  1.0000
  N   N4        1.0  0.6089150486925874  0.05843992904402739  0.3159579691085739  1.0000
  O   O1        1.0  0.19200061615361355  0.8433156202308111  0.19621383243089247  1.0000
  O   O2        1.0  0.49599769701125507  0.6473561874016625  0.8038474705116485  1.0000
  O   O3        1.0  0.19932369144441245  0.8752022964629731  0.03241228402750109  1.0000
  O   O4        1.0  0.6670390128953587  0.8430677043228129  0.9676335303116661  1.0000
  O   O5        1.0  0.0758665961720837  0.17959155822942557  0.24284864999589936  1.0000
  O   O6        1.0  0.33345852287718  0.9375767849337749  0.7573351880799779  1.0000
  O   O7        1.0  0.3225452875384107  0.27280569426801554  0.4096486660419956  1.0000
  O   O8        1.0  0.41178077002535934  0.8620342659534973  0.5900387667987632  1.0000
