data_image0
_chemical_formula_structural       Cu4H28C40I4N4O8
_chemical_formula_sum              "Cu4 H28 C40 I4 N4 O8"
_cell_length_a       4.234241193034754
_cell_length_b       14.8262438432375
_cell_length_c       15.8259360330134
_cell_angle_alpha    89.99991372971846
_cell_angle_beta     90.00011438679327
_cell_angle_gamma    89.09743787864093

_space_group_name_H-M_alt    "P 1"
_space_group_IT_number       1

loop_
  _space_group_symop_operation_xyz
  'x, y, z'

loop_
  _atom_site_type_symbol
  _atom_site_label
  _atom_site_symmetry_multiplicity
  _atom_site_fract_x
  _atom_site_fract_y
  _atom_site_fract_z
  _atom_site_occupancy
  Cu  Cu1       1.0  0.6730459926167498  0.984680075720739  0.9342462859872216  1.0000
  Cu  Cu2       1.0  0.8269505124358574  0.5153216932631182  0.4342477882214767  1.0000
  Cu  Cu3       1.0  0.3269465105254384  0.0153210430779467  0.06575100244850773  1.0000
  Cu  Cu4       1.0  0.17304666099990132  0.48468143810166703  0.5657526595848452  1.0000
  H   H1        1.0  0.10051554338893712  0.04154550579469431  0.5535185997935417  1.0000
  H   H2        1.0  0.3994966953029575  0.45844683354602017  0.053523949860455416  1.0000
  H   H3        1.0  0.8994866752658979  0.9584454727895563  0.44647489740673774  1.0000
  H   H4        1.0  0.6005030186288423  0.5415495468811712  0.9464809210702898  1.0000
  H   H5        1.0  0.9075206952459994  0.0034802572917911013  0.7622944777858438  1.0000
  H   H6        1.0  0.5924766195624541  0.49652113404223286  0.2622970903313515  1.0000
  H   H7        1.0  0.0924765495893709  0.9965201759148885  0.23770028315495045  1.0000
  H   H8        1.0  0.40751584789605033  0.5034813338320703  0.7377071487191744  1.0000
  H   H9        1.0  0.46408563623752025  0.8010014071459751  0.6084128674705483  1.0000
  H   H10       1.0  0.035917609016991  0.6989982678991141  0.10841459849174133  1.0000
  H   H11       1.0  0.5359377683319977  0.1989922198560379  0.3915863166007513  1.0000
  H   H12       1.0  0.9640655000088217  0.30100084938158744  0.8915858493137565  1.0000
  H   H13       1.0  0.1366832701807681  0.6856834750905633  0.6820192519859349  1.0000
  H   H14       1.0  0.3633228972287341  0.814316745682305  0.18202035960540294  1.0000
  H   H15       1.0  0.8633377189084045  0.31431218105819875  0.31798245957998017  1.0000
  H   H16       1.0  0.6366766738418052  0.18568503107434253  0.8179800882024753  1.0000
  H   H17       1.0  0.9168217972365866  0.6244622037444145  0.8147743591857906  1.0000
  H   H18       1.0  0.5831643396713134  0.8755391129141047  0.3147765023022232  1.0000
  H   H19       1.0  0.08318494889026341  0.3755361837269291  0.18522798424874057  1.0000
  H   H20       1.0  0.41682100628742097  0.12446472062546123  0.6852233136264304  1.0000
  H   H21       1.0  0.037106855694553104  0.6976471371615814  0.9524708357814833  1.0000
  H   H22       1.0  0.46288252253679474  0.8023533493741511  0.4524713791111169  1.0000
  H   H23       1.0  0.9628950594542331  0.3023553086069626  0.04753213952316321  1.0000
  H   H24       1.0  0.5371051853482314  0.1976504786381739  0.547529068692306  1.0000
  H   H25       1.0  0.37672457521721725  0.8329535259648893  0.9577690941472599  1.0000
  H   H26       1.0  0.1232694970537551  0.6670496388054802  0.4577702822427698  1.0000
  H   H27       1.0  0.6232843721191729  0.16705092684939873  0.04222945803869751  1.0000
  H   H28       1.0  0.8767157596250712  0.33295756743821414  0.5422289018093667  1.0000
  C   C1        1.0  0.7589547626167102  0.944358657897965  0.756224006319336  1.0000
  C   C2        1.0  0.7410451038444349  0.5556420491289414  0.2562254087788176  1.0000
  C   C3        1.0  0.2410519656347958  0.05564040411832851  0.24377328212145954  1.0000
  C   C4        1.0  0.2589497076724712  0.4443610877615001  0.74377630277521  1.0000
  C   C5        1.0  0.6997286498602336  0.9068663385890829  0.6755507477162085  1.0000
  C   C6        1.0  0.800263497243499  0.5931345201403034  0.17555339246686694  1.0000
  C   C7        1.0  0.30027335454365556  0.0931327344806263  0.324446540723379  1.0000
  C   C8        1.0  0.19971955822826004  0.4068666207599136  0.8244502147080085  1.0000
  C   C9        1.0  0.5118209651029559  0.8314700925479032  0.6697400368968901  1.0000
  C   C10       1.0  0.9881829995451883  0.6685287246594883  0.16974141003466067  1.0000
  C   C11       1.0  0.4882000239762903  0.16852556360297646  0.33025914717239163  1.0000
  C   C12       1.0  0.011809485753921893  0.33147306867727633  0.8302590377713914  1.0000
  C   C13       1.0  0.3861663154670154  0.7937776212799079  0.743932798703412  1.0000
  C   C14       1.0  0.11383804770416356  0.7062198031532959  0.24393582343977027  1.0000
  C   C15       1.0  0.6138523473919476  0.20621669131782738  0.25606448974372853  1.0000
  C   C16       1.0  0.8861497316077731  0.2937813266950969  0.7560658881138453  1.0000
  C   C17       1.0  0.45450237791965253  0.8359768627749561  0.8232197244871317  1.0000
  C   C18       1.0  0.045497794831938186  0.6640238126133368  0.3232234043844073  1.0000
  C   C19       1.0  0.5455018991281336  0.16402557747217375  0.1767769320765495  1.0000
  C   C20       1.0  0.9544946369081588  0.3359800043439947  0.6767789390427057  1.0000
  C   C21       1.0  0.1918882841527605  0.7167107047481522  0.742617240163199  1.0000
  C   C22       1.0  0.3081113091202355  0.7832880820249882  0.24261836236286174  1.0000
  C   C23       1.0  0.8081279810863151  0.28328496245455176  0.2573838395273356  1.0000
  C   C24       1.0  0.6918787963995782  0.21671439137919896  0.7573820854421102  1.0000
  C   C25       1.0  0.07035767322149411  0.6827513783910248  0.81656167390306  1.0000
  C   C26       1.0  0.4296353436097036  0.8172499992705229  0.3165647070935124  1.0000
  C   C27       1.0  0.9296490371869339  0.31724835816334723  0.18343877390805835  1.0000
  C   C28       1.0  0.570349984500993  0.1827545088081735  0.6834370044571403  1.0000
  C   C29       1.0  0.1384578576085573  0.7245822219435  0.8945905384330077  1.0000
  C   C30       1.0  0.3615357184786206  0.7754210486460097  0.3945935945241318  1.0000
  C   C31       1.0  0.8615487456644715  0.2754215618557224  0.10540927750113133  1.0000
  C   C32       1.0  0.638454244202265  0.2245868210828732  0.6054081170253911  1.0000
  C   C33       1.0  0.3265178642580934  0.799755528959018  0.897932517111464  1.0000
  C   C34       1.0  0.1734875834063416  0.7002463593178802  0.3979355806893707  1.0000
  C   C35       1.0  0.6734982045582214  0.20024755819424203  0.10206540320310613  1.0000
  C   C36       1.0  0.8265071566886276  0.29975947573543493  0.602066130862781  1.0000
  C   C37       1.0  0.8335366528543416  0.9468593362049519  0.5981398513250014  1.0000
  C   C38       1.0  0.6664810460021259  0.553134845981553  0.09814374650820672  1.0000
  C   C39       1.0  0.16648449690443098  0.05313024908368651  0.4018542777552555  1.0000
  C   C40       1.0  0.3335257536986234  0.4468615178660471  0.9018604925502134  1.0000
  I   I1        1.0  0.8279715197746357  0.906216015974806  0.07854533502497671  1.0000
  I   I2        1.0  0.6720127975388195  0.5937843472758787  0.5785443725441937  1.0000
  I   I3        1.0  0.1720139154565743  0.0937844448622229  0.9214532171577121  1.0000
  I   I4        1.0  0.32797025791061424  0.40621679362909907  0.4214535477632567  1.0000
  N   N1        1.0  0.6402779147386326  0.9116202443318996  0.827403358633106  1.0000
  N   N2        1.0  0.859717786902664  0.5883803545267837  0.3274047766877573  1.0000
  N   N3        1.0  0.3597264515865888  0.08837882321162742  0.17259329793292724  1.0000
  N   N4        1.0  0.14027226505564977  0.4116241424984964  0.6725969348641173  1.0000
  O   O1        1.0  0.0216616065344368  0.015727361507970297  0.6106779337233876  1.0000
  O   O2        1.0  0.4783344226247835  0.4842696425648185  0.11068455227501772  1.0000
  O   O3        1.0  0.9783310394268272  0.9842683609702547  0.3893130359745315  1.0000
  O   O4        1.0  0.5216486864233616  0.5157294747111225  0.8893215823978978  1.0000
  O   O5        1.0  0.7687356698708143  0.9164575714875056  0.5265327168066776  1.0000
  O   O6        1.0  0.7312673307663146  0.5835354147159252  0.026536603190422205  1.0000
  O   O7        1.0  0.2312760857666234  0.08353001228420713  0.47346330789503105  1.0000
  O   O8        1.0  0.26873724985947683  0.4164555583315703  0.9734688996194694  1.0000
