data_image0
_chemical_formula_structural       Zn8H48C16Se8N8
_chemical_formula_sum              "Zn8 H48 C16 Se8 N8"
_cell_length_a       6.431793114054341
_cell_length_b       6.558277225024788
_cell_length_c       22.051660515253026
_cell_angle_alpha    90.00022246509286
_cell_angle_beta     89.99956139268384
_cell_angle_gamma    90.0002541689559

_space_group_name_H-M_alt    "P 1"
_space_group_IT_number       1

loop_
  _space_group_symop_operation_xyz
  'x, y, z'

loop_
  _atom_site_type_symbol
  _atom_site_label
  _atom_site_symmetry_multiplicity
  _atom_site_fract_x
  _atom_site_fract_y
  _atom_site_fract_z
  _atom_site_occupancy
  Zn  Zn1       1.0  0.7695738634731767  0.5916423660013096  0.28760061976132084  1.0000
  Zn  Zn2       1.0  0.26957396151772883  0.9083599992682496  0.2876008264286938  1.0000
  Zn  Zn3       1.0  0.7304264264170895  0.5916425096200231  0.7876015525212028  1.0000
  Zn  Zn4       1.0  0.7695739910884781  0.0916401350898965  0.2123991936645098  1.0000
  Zn  Zn5       1.0  0.23042198776890638  0.40835486237093477  0.7123985191721192  1.0000
  Zn  Zn6       1.0  0.7304234445054263  0.0916463778578276  0.7123992194696812  1.0000
  Zn  Zn7       1.0  0.269572534389944  0.4083608179224997  0.2123975864127559  1.0000
  Zn  Zn8       1.0  0.2304265244555381  0.9083570933055969  0.7876017591868278  1.0000
  H   H1        1.0  0.0718232325814085  0.45520280790906054  0.3492831857705312  1.0000
  H   H2        1.0  0.5718260567587449  0.0448111839187035  0.3492833788998199  1.0000
  H   H3        1.0  0.428167372282104  0.4552023866566446  0.849283739926982  1.0000
  H   H4        1.0  0.07182565477985038  0.9551986640433371  0.1507170198065211  1.0000
  H   H5        1.0  0.9281632899752095  0.5447944204524762  0.6507177670941928  1.0000
  H   H6        1.0  0.4281651301703988  0.9552043419393501  0.6507171204903416  1.0000
  H   H7        1.0  0.5718269241995486  0.5447994160808848  0.1507149455299839  1.0000
  H   H8        1.0  0.9281701963569516  0.04478331645489671  0.8492871074046633  1.0000
  H   H9        1.0  0.8863265767584566  0.28358964766002975  0.3574993759769641  1.0000
  H   H10       1.0  0.3863212427811008  0.2164153053820641  0.3574998161356718  1.0000
  H   H11       1.0  0.6136610564814334  0.28358769967651654  0.8574964509566243  1.0000
  H   H12       1.0  0.8863323548500189  0.7835808213734624  0.14250224782379925  1.0000
  H   H13       1.0  0.11366461012494969  0.7164030063377995  0.6425011234000879  1.0000
  H   H14       1.0  0.6136683894124602  0.7836002204543179  0.6424979623724384  1.0000
  H   H15       1.0  0.3863316852782361  0.7164141030333867  0.1424986066571137  1.0000
  H   H16       1.0  0.11366038678021789  0.2164072582650363  0.8574996119909104  1.0000
  H   H17       1.0  0.7107045619433805  0.4912860212310335  0.43150950917893743  1.0000
  H   H18       1.0  0.21070772593520104  0.008717527960094203  0.4315101647629049  1.0000
  H   H19       1.0  0.7893018948068118  0.4912773018577142  0.9315053409304783  1.0000
  H   H20       1.0  0.7107125593040422  0.9912670727538428  0.0684908749829773  1.0000
  H   H21       1.0  0.28928351541376424  0.5087096823316628  0.568489629761075  1.0000
  H   H22       1.0  0.789288125339965  0.9913132458220559  0.5684912415927031  1.0000
  H   H23       1.0  0.21070483991280747  0.5087107777700128  0.06848971666200042  1.0000
  H   H24       1.0  0.2893097231310691  0.008724056516847201  0.931507810441076  1.0000
  H   H25       1.0  0.8871039046093117  0.6908890705646301  0.4158489560350348  1.0000
  H   H26       1.0  0.3871144891561613  0.8091186016732409  0.4158495024266813  1.0000
  H   H27       1.0  0.6128913817705451  0.6908779701030882  0.9158492068545174  1.0000
  H   H28       1.0  0.8871047683077435  0.19087752887343615  0.0841511995922204  1.0000
  H   H29       1.0  0.11287639887274277  0.3091066329762171  0.5841497294318289  1.0000
  H   H30       1.0  0.6128720334281468  0.19090607293248502  0.584153264376127  1.0000
  H   H31       1.0  0.3871091337718227  0.30911163433303557  0.0841508390312669  1.0000
  H   H32       1.0  0.11290974019178181  0.8091105508178984  0.9158506602016487  1.0000
  H   H33       1.0  0.18175059669654564  0.4758860313088818  0.45508283470038446  1.0000
  H   H34       1.0  0.6817564477294911  0.024140559250163604  0.45508300412839026  1.0000
  H   H35       1.0  0.31825246607417074  0.47584695669208804  0.9550826923279632  1.0000
  H   H36       1.0  0.1817608556645567  0.9758682975900541  0.0449203584647151  1.0000
  H   H37       1.0  0.8182343711406829  0.5241294945281113  0.5449167577345548  1.0000
  H   H38       1.0  0.31824095831711213  0.9758673426576437  0.544915681329087  1.0000
  H   H39       1.0  0.6817558233202944  0.524124350271741  0.0449169000593059  1.0000
  H   H40       1.0  0.8182614266624667  0.024119782144005304  0.9550851291664274  1.0000
  H   H41       1.0  0.003471480031088  0.2814078250392883  0.4747190569048954  1.0000
  H   H42       1.0  0.5034656706297156  0.21861053439610603  0.47472080967781244  1.0000
  H   H43       1.0  0.4965504282087991  0.28138943818726864  0.9747212940775115  1.0000
  H   H44       1.0  0.0034792183337159993  0.7813944073851646  0.025279719894818704  1.0000
  H   H45       1.0  0.9965290355448247  0.7185985520943349  0.5252809889905024  1.0000
  H   H46       1.0  0.49654728320670927  0.7814171898342651  0.5252787827373241  1.0000
  H   H47       1.0  0.5034734089925835  0.7185864431714323  0.0252760308945454  1.0000
  H   H48       1.0  0.996539954461646  0.21859062274805305  0.9747239538152005  1.0000
  C   C1        1.0  0.8739112316033584  0.5239504073726523  0.4199578606153409  1.0000
  C   C2        1.0  0.3739178194867421  0.9760587796527247  0.4199590518251526  1.0000
  C   C3        1.0  0.6260894830306827  0.5239408957443744  0.9199562722495572  1.0000
  C   C4        1.0  0.8739153280537976  0.0239357620660456  0.0800425824133768  1.0000
  C   C5        1.0  0.1260737361911808  0.4760437713947995  0.5800417318073627  1.0000
  C   C6        1.0  0.6260749222431699  0.02396894453455191  0.5800414475705082  1.0000
  C   C7        1.0  0.37391103254568503  0.47604870867684207  0.08004150623328601  1.0000
  C   C8        1.0  0.1260991804426794  0.9760507928346057  0.9199592773796256  1.0000
  C   C9        1.0  0.0198949931999408  0.4479729155146758  0.4695698645463439  1.0000
  C   C10       1.0  0.5199009558539628  0.05204850552195241  0.4695705194438419  1.0000
  C   C11       1.0  0.4801121878794277  0.44794834972444153  0.9695698657709432  1.0000
  C   C12       1.0  0.019907241392971304  0.9479534664452984  0.030430432147710507  1.0000
  C   C13       1.0  0.98009152940147  0.5520365111633582  0.5304297278836074  1.0000
  C   C14       1.0  0.4801011145485106  0.9479761690976576  0.530428619499375  1.0000
  C   C15       1.0  0.5199007658706661  0.5520260068231267  0.0304283661718401  1.0000
  C   C16       1.0  0.9801181505191537  0.052026989322023105  0.9695718811119605  1.0000
  Se  Se1       1.0  0.8956821901543535  0.9412712009988198  0.30657523420489957  1.0000
  Se  Se2       1.0  0.39568088986374766  0.5587320260054868  0.30657504015510995  1.0000
  Se  Se3       1.0  0.6043189291140223  0.9412707324445365  0.8065755014488404  1.0000
  Se  Se4       1.0  0.8956828867470961  0.44126872051670324  0.19342428501226294  1.0000
  Se  Se5       1.0  0.1043183254124145  0.05873060176275402  0.6934248116878692  1.0000
  Se  Se6       1.0  0.6043102970780438  0.4412728263028854  0.6934231918259856  1.0000
  Se  Se7       1.0  0.39568158645954543  0.058731070314053106  0.1934240909633474  1.0000
  Se  Se8       1.0  0.10431762881052009  0.5587285078728286  0.8065757608778911  1.0000
  N   N1        1.0  0.9159375697150977  0.4379336206453389  0.3596208182749194  1.0000
  N   N2        1.0  0.4159362827731599  0.0620730288404374  0.359621081532957  1.0000
  N   N3        1.0  0.5840568362887736  0.43792847936487783  0.8596193103810992  1.0000
  N   N4        1.0  0.9159403018717994  0.9379278160305377  0.1403809257352009  1.0000
  N   N5        1.0  0.08405517195757992  0.562062082934638  0.6403792276218  1.0000
  N   N6        1.0  0.5840564589497106  0.9379409722217604  0.6403780574130736  1.0000
  N   N7        1.0  0.4159421245264596  0.5620687490059667  0.140378468107599  1.0000
  N   N8        1.0  0.08405865882924957  0.062063313222317604  0.8596236549588384  1.0000
