data_image0
_chemical_formula_structural       ZnH16C8N10O6
_chemical_formula_sum              "Zn1 H16 C8 N10 O6"
_cell_length_a       6.374737868848134
_cell_length_b       7.7727274363289816
_cell_length_c       8.391154506536626
_cell_angle_alpha    113.53577637043124
_cell_angle_beta     106.27335903032687
_cell_angle_gamma    93.5357382421905

_space_group_name_H-M_alt    "P 1"
_space_group_IT_number       1

loop_
  _space_group_symop_operation_xyz
  'x, y, z'

loop_
  _atom_site_type_symbol
  _atom_site_label
  _atom_site_symmetry_multiplicity
  _atom_site_fract_x
  _atom_site_fract_y
  _atom_site_fract_z
  _atom_site_occupancy
  Zn  Zn1       1.0  0.5000009790705561  0.5000004158232159  8.284854188866978e-07  1.0000
  H   H1        1.0  0.29691143339662324  0.8176932395155918  0.10409743046889731  1.0000
  H   H2        1.0  0.7030909869497037  0.18230685297449165  0.8959025354258615  1.0000
  H   H3        1.0  0.1749009730629609  0.6469432483417209  0.1275849075169404  1.0000
  H   H4        1.0  0.8250985441711836  0.3530582905125286  0.8724137487210301  1.0000
  H   H5        1.0  0.4657406199167298  0.6849490468579518  0.42679406305980194  1.0000
  H   H6        1.0  0.5342552214687473  0.3150511850808543  0.5732104676110057  1.0000
  H   H7        1.0  0.6604508605641827  0.7964693433245175  0.6504132159219653  1.0000
  H   H8        1.0  0.33954336176710603  0.20353088838005823  0.3495897673062204  1.0000
  H   H9        1.0  0.2717936843635229  0.7450232121236269  0.7585461966596726  1.0000
  H   H10       1.0  0.7281992995738165  0.2549784037857279  0.24145224455588726  1.0000
  H   H11       1.0  0.012365453218983233  0.7687996683374937  0.79627609371223  1.0000
  H   H12       1.0  0.9876396140021199  0.23120473368790337  0.20372838541127433  1.0000
  H   H13       1.0  0.03858852182755611  0.08201931636669713  0.7670160899427643  1.0000
  H   H14       1.0  0.9614145799271583  0.9179836541902375  0.23298625145928042  1.0000
  H   H15       1.0  0.3046800595723482  0.06103345869735221  0.7462233752682722  1.0000
  H   H16       1.0  0.6953187648373955  0.9389652176884482  0.2537741004120234  1.0000
  C   C1        1.0  0.7887938710016087  0.6844253024274424  0.4370602826426975  1.0000
  C   C2        1.0  0.21122219690921903  0.31556303056300555  0.5629265364552795  1.0000
  C   C3        1.0  0.12446948091839971  0.8087652310735152  0.7334578551086964  1.0000
  C   C4        1.0  0.8755328937638822  0.1912349238101854  0.26654689058452163  1.0000
  C   C5        1.0  0.18765990367246843  0.024722283425788305  0.8074217681642184  1.0000
  C   C6        1.0  0.8123411766891097  0.9752720217337584  0.19257105681673176  1.0000
  C   C7        1.0  0.28843733271635597  0.1310870226054135  0.016231895555073116  1.0000
  C   C8        1.0  0.7115719673389762  0.8689144240637817  0.9837688756409265  1.0000
  N   N1        1.0  0.6278224977619902  0.7206648073072232  0.5096992862990959  1.0000
  N   N2        1.0  0.37215464713083435  0.2793328247594999  0.49030735608866394  1.0000
  N   N3        1.0  0.010619206675158895  0.7209956371196001  0.5349087526475174  1.0000
  N   N4        1.0  0.989375362068337  0.27900602581920714  0.4650948208595055  1.0000
  N   N5        1.0  0.12631735407141784  0.6706130539766522  0.41494828238248993  1.0000
  N   N6        1.0  0.8736772375040971  0.32938857776534297  0.5850529012253034  1.0000
  N   N7        1.0  0.9820672748448017  0.6025307479970934  0.25122089830739475  1.0000
  N   N8        1.0  0.017928935784901522  0.39747088397912483  0.7487818327430206  1.0000
  N   N9        1.0  0.7718402018136884  0.6065822463368988  0.25666276036309194  1.0000
  N   N10       1.0  0.2281472093046588  0.3934165375981281  0.7433322478661637  1.0000
  O   O1        1.0  0.3645387782927045  0.31024171757652397  0.08859279972118365  1.0000
  O   O2        1.0  0.6354682772268134  0.6897640847205155  0.9114114272245503  1.0000
  O   O3        1.0  0.2878843533785371  0.03951952975742049  0.11289150883639111  1.0000
  O   O4        1.0  0.7121282418652299  0.9604818393882084  0.8871063824967819  1.0000
  O   O5        1.0  0.3183406237403119  0.7030819483736791  0.12814621149112068  1.0000
  O   O6        1.0  0.6816585470816321  0.2969181592463458  0.8718518544680125  1.0000
