data_image0
_chemical_formula_structural       Cd4H40C44S2N24O14
_chemical_formula_sum              "Cd4 H40 C44 S2 N24 O14"
_cell_length_a       10.223426135989996
_cell_length_b       11.550853245176095
_cell_length_c       11.908
_cell_angle_alpha    94.7119863739448
_cell_angle_beta     95.23368449994754
_cell_angle_gamma    97.36235306555741

_space_group_name_H-M_alt    "P 1"
_space_group_IT_number       1

loop_
  _space_group_symop_operation_xyz
  'x, y, z'

loop_
  _atom_site_type_symbol
  _atom_site_label
  _atom_site_symmetry_multiplicity
  _atom_site_fract_x
  _atom_site_fract_y
  _atom_site_fract_z
  _atom_site_occupancy
  Cd  Cd1       1.0  0.5229021953725805  0.4137550972633832  0.7241054052610848  1.0000
  Cd  Cd2       1.0  0.4770914660261241  0.5862476135876022  0.27590262808686816  1.0000
  Cd  Cd3       1.0  0.08938646394595652  0.8996817571606925  0.9025980483504764  1.0000
  Cd  Cd4       1.0  0.9106072311136089  0.1003148153850262  0.09740026102613795  1.0000
  H   H1        1.0  0.23647090277647456  0.22070627349879146  0.6114851076491732  1.0000
  H   H2        1.0  0.7635211324853799  0.7792859145431663  0.38851944054353976  1.0000
  H   H3        1.0  0.08155857432838329  0.0520133681351993  0.676197696189952  1.0000
  H   H4        1.0  0.9184355272653875  0.9479858351127746  0.323812611448936  1.0000
  H   H5        1.0  0.2850395155356438  0.11238360044183789  0.9971350300496695  1.0000
  H   H6        1.0  0.7149621392999562  0.887619987309904  0.0028736991691715535  1.0000
  H   H7        1.0  0.8849329675205196  0.6803592330493657  0.8494478567239695  1.0000
  H   H8        1.0  0.11506049017708621  0.3196294473895804  0.15055316428163218  1.0000
  H   H9        1.0  0.1395425878361536  0.784616594217681  0.14203640861414604  1.0000
  H   H10       1.0  0.8604651296158254  0.2153817321295435  0.8579513818560612  1.0000
  H   H11       1.0  0.026735977627858187  0.6240595740358899  0.24393878820363563  1.0000
  H   H12       1.0  0.9732684884183984  0.3759431368150956  0.7560532958659252  1.0000
  H   H13       1.0  0.8276918094758017  0.4918676624955721  0.14080203113145728  1.0000
  H   H14       1.0  0.1723106920890771  0.5081350483554132  0.8591966172647145  1.0000
  H   H15       1.0  0.7140584445787681  0.1830749546055301  0.6875576942527245  1.0000
  H   H16       1.0  0.2859487316955764  0.8169452942605062  0.3124578336121217  1.0000
  H   H17       1.0  0.747744954329967  0.0339193980078889  0.5324725238246444  1.0000
  H   H18       1.0  0.2522898938558598  0.9660955894536372  0.4675506302886986  1.0000
  H   H19       1.0  0.46573254924526  0.1571309689417291  0.31626138395150594  1.0000
  H   H20       1.0  0.5342778775668293  0.8428594652987228  0.6837411057189015  1.0000
  H   H21       1.0  0.2471427541910245  0.7082262620634197  0.8068583247247858  1.0000
  H   H22       1.0  0.7528553782160472  0.2917799563905774  0.1931310235156971  1.0000
  H   H23       1.0  0.932560113910192  0.8398043430769704  0.6393871901070651  1.0000
  H   H24       1.0  0.0674364942105683  0.1601983677740151  0.360600079720399  1.0000
  H   H25       1.0  0.9444654689912538  0.7074800195230324  0.4625753118401689  1.0000
  H   H26       1.0  0.0555277858732381  0.2925200606256979  0.5374123255296865  1.0000
  H   H27       1.0  0.12269265952981809  0.5753565062414125  0.4609905749603697  1.0000
  H   H28       1.0  0.8773001888004616  0.4246409432050555  0.5390018595788603  1.0000
  H   H29       1.0  0.546031656379057  0.3411976982983447  0.11780226781100817  1.0000
  H   H30       1.0  0.4539609209284095  0.6587979973466176  0.882199243242205  1.0000
  H   H31       1.0  0.4084563436588482  0.23482963701874132  0.10209294460174331  1.0000
  H   H32       1.0  0.5915390448592744  0.7651651817254786  0.8979045178759221  1.0000
  H   H33       1.0  0.2640574892470298  0.389934088321418  0.37057068313293934  1.0000
  H   H34       1.0  0.735943928226618  0.6100616073235514  0.6294281611411491  1.0000
  H   H35       1.0  0.318188305662197  0.2631009172797008  0.3091348711533398  1.0000
  H   H36       1.0  0.6818155164878944  0.736891270762257  0.6908622023998275  1.0000
  H   H37       1.0  0.38056910235632563  0.8340378437284599  0.9405941991405342  1.0000
  H   H38       1.0  0.6194244571918333  0.1659578519165095  0.059401510434632585  1.0000
  H   H39       1.0  0.3271619837363176  0.9089655054275312  0.04159697580778496  1.0000
  H   H40       1.0  0.6728326935639259  0.0910310671181875  0.9583946923191959  1.0000
  C   C1        1.0  0.24661063161091326  0.1956190198702004  0.6979766615193057  1.0000
  C   C2        1.0  0.7533909213741409  0.8043775526755184  0.3020256223278252  1.0000
  C   C3        1.0  0.1628784207711576  0.1027552301792625  0.7320897894442806  1.0000
  C   C4        1.0  0.8371195761245075  0.8972501113739781  0.2679112351116401  1.0000
  C   C5        1.0  0.2758151494718675  0.1369490981226846  0.9110036167655478  1.0000
  C   C6        1.0  0.7241812212869406  0.8630457206215283  0.08900148057938394  1.0000
  C   C7        1.0  0.3597407633482277  0.22990759309489306  0.876545361442183  1.0000
  C   C8        1.0  0.6402581475984306  0.7700845949470647  0.12345720589694048  1.0000
  C   C9        1.0  0.46916903731127485  0.2970650372259627  0.9537390203515769  1.0000
  C   C10       1.0  0.5308236418467372  0.7029376736250228  0.0462655769870253  1.0000
  C   C11       1.0  0.7343684534325234  0.4990775404827231  0.9163505279630684  1.0000
  C   C12       1.0  0.2656211098311729  0.5009304317727796  0.08365172528893787  1.0000
  C   C13       1.0  0.8451794649325776  0.5745725569686684  0.9863045784332127  1.0000
  C   C14       1.0  0.1548124011570167  0.4254248924777997  0.013696176898811491  1.0000
  C   C15       1.0  0.9145635169208147  0.6656465922237302  0.9366616575892974  1.0000
  C   C16       1.0  0.0854406099129363  0.3343412113144595  0.06333341091018949  1.0000
  C   C17       1.0  0.0552670658673904  0.7236088550639721  0.10100178008894997  1.0000
  C   C18       1.0  0.9447309646891283  0.2763903481840089  0.8989970784398835  1.0000
  C   C19       1.0  0.9911703265360216  0.6347551325142646  0.15684041182090164  1.0000
  C   C20       1.0  0.008839931103807406  0.3652405631306975  0.843152406587741  1.0000
  C   C21       1.0  0.8833385902117712  0.5603606264727219  0.09980562528942018  1.0000
  C   C22       1.0  0.11665757771392289  0.4396455919812752  0.9001919668208413  1.0000
  C   C23       1.0  0.6607362646229404  0.180359192974997  0.6036928063816587  1.0000
  C   C24       1.0  0.3392859499453635  0.8196566713872712  0.3963143123306097  1.0000
  C   C25       1.0  0.6779029225602002  0.0961153376812476  0.516688494759876  1.0000
  C   C26       1.0  0.3221207481047159  0.9038908807727495  0.4833246875403389  1.0000
  C   C27       1.0  0.5222456607411773  0.1649292473338093  0.3994551579346321  1.0000
  C   C28       1.0  0.47776422489327086  0.8350831094254545  0.6005557543840253  1.0000
  C   C29       1.0  0.5037927130976386  0.2503200888118471  0.48571868981775174  1.0000
  C   C30       1.0  0.4962107370470719  0.7496887603444052  0.51429479810227  1.0000
  C   C31       1.0  0.4062717288969395  0.3337747334283421  0.4713848953250375  1.0000
  C   C32       1.0  0.5937317549086316  0.6662279774226434  0.5286213879383934  1.0000
  C   C33       1.0  0.3046462435703674  0.5555087346090772  0.6405715206198579  1.0000
  C   C34       1.0  0.6953492467983011  0.4444930993411589  0.3594214701989529  1.0000
  C   C35       1.0  0.19874547715317448  0.6325418350149263  0.6337916515641878  1.0000
  C   C36       1.0  0.801252113208278  0.3674608758360591  0.36620073381578777  1.0000
  C   C37       1.0  0.1827079410790589  0.7074265285771303  0.7286631420522766  1.0000
  C   C38       1.0  0.8172890735759138  0.2925788129761173  0.27132520900688917  1.0000
  C   C39       1.0  0.006611999094275207  0.7798366082157385  0.6345656781366954  1.0000
  C   C40       1.0  0.9933855912671772  0.2201661026352468  0.3654208288422111  1.0000
  C   C41       1.0  0.014840347481360528  0.7068881115150846  0.5367805708670372  1.0000
  C   C42       1.0  0.985153212066791  0.2931075841298778  0.46320674099230524  1.0000
  C   C43       1.0  0.1120363732771708  0.6331784649612544  0.5356460812891015  1.0000
  C   C44       1.0  0.8879563395417022  0.36681810758446426  0.46434711253500177  1.0000
  S   S1        1.0  0.21359796797560193  0.03502166225379  0.19018089261275858  1.0000
  S   S2        1.0  0.7864002317531771  0.9649722795896664  0.8098217587767633  1.0000
  N   N1        1.0  0.3436406370476845  0.257224805337124  0.7687393552835431  1.0000
  N   N2        1.0  0.6563617626666485  0.7427708903078454  0.23126628408622443  1.0000
  N   N3        1.0  0.1800932432656666  0.0741086363962253  0.8387577467780573  1.0000
  N   N4        1.0  0.819902247103002  0.9258931975540037  0.16124028267024926  1.0000
  N   N5        1.0  0.4863991369832021  0.2764052554967975  0.06538872754089198  1.0000
  N   N6        1.0  0.5136003160090752  0.7235904401481648  0.9346108026587385  1.0000
  N   N7        1.0  0.5520913557492051  0.3695540379323035  0.9068396764925737  1.0000
  N   N8        1.0  0.447913143957912  0.6304425346134153  0.09315863926570957  1.0000
  N   N9        1.0  0.6553191194621774  0.4308344932200399  0.9750755892910234  1.0000
  N   N10       1.0  0.34468341576356204  0.5691620793256789  0.02492509193596247  1.0000
  N   N11       1.0  0.015682321235473796  0.7393501004723007  0.9929551874629322  1.0000
  N   N12       1.0  0.9843111028012785  0.2606447182719123  0.007037922310772189  1.0000
  N   N13       1.0  0.5753892426896244  0.256968750317391  0.5878867141189161  1.0000
  N   N14       1.0  0.42462389435055303  0.7430392219381119  0.4121249432298839  1.0000
  N   N15       1.0  0.6094510916011799  0.0885994213314731  0.4145422804127178  1.0000
  N   N16       1.0  0.3905659407408848  0.9114146892292965  0.5854710108836797  1.0000
  N   N17       1.0  0.326677877902533  0.3285440204396082  0.37448874337261623  1.0000
  N   N18       1.0  0.6733284507745552  0.6714516752053541  0.6255096457450051  1.0000
  N   N19       1.0  0.40137299519630426  0.4113366049879588  0.5580961490993417  1.0000
  N   N20       1.0  0.5986237484358624  0.5886669827637832  0.4419046375601424  1.0000
  N   N21       1.0  0.3058032151766951  0.482882937385348  0.5470777896522776  1.0000
  N   N22       1.0  0.6941862798973091  0.5171118813588649  0.4529225703735732  1.0000
  N   N23       1.0  0.08971410384656761  0.7799549898173268  0.7293229934225067  1.0000
  N   N24       1.0  0.9102825042741998  0.2200477210336587  0.2706667957197055  1.0000
  O   O1        1.0  0.7231785481823962  0.5075361251414492  0.8088816676236376  1.0000
  O   O2        1.0  0.2768191776904558  0.4924674626102927  0.19111751641570854  1.0000
  O   O3        1.0  0.38235023212950375  0.5637901853157956  0.7329759304992578  1.0000
  O   O4        1.0  0.6176409564030649  0.4362028796269186  0.2670193837697354  1.0000
  O   O5        1.0  0.1074984796955079  0.0156684626458699  0.088524201590289  1.0000
  O   O6        1.0  0.8924924041533941  0.9843289868005982  0.911485714306117  1.0000
  O   O7        1.0  0.3070389747392568  0.9482664433535745  0.17293939006498246  1.0000
  O   O8        1.0  0.6929625782457975  0.0517301291921441  0.8270536562947369  1.0000
  O   O9        1.0  0.1492690589470769  0.020078396530252  0.2946266586193858  1.0000
  O   O10       1.0  0.850735982805652  0.9799216836184783  0.7053786972583892  1.0000
  O   O11       1.0  0.2836050081567478  0.1571660449718308  0.19039627147900254  1.0000
  O   O12       1.0  0.71639136260206  0.8428287737723821  0.8096096656375025  1.0000
  O   O13       1.0  0.3181963262338172  0.8900639097071519  0.957162466078678  1.0000
  O   O14       1.0  0.6817986220892394  0.10993441664007259  0.04282936302171691  1.0000
