data_image0
_chemical_formula_structural       Cd4H28C18N12O12
_chemical_formula_sum              "Cd4 H28 C18 N12 O12"
_cell_length_a       8.058037986208815
_cell_length_b       10.731981645325401
_cell_length_c       12.641812400375937
_cell_angle_alpha    115.61088526159782
_cell_angle_beta     109.19939871722005
_cell_angle_gamma    88.65385247683807

_space_group_name_H-M_alt    "P 1"
_space_group_IT_number       1

loop_
  _space_group_symop_operation_xyz
  'x, y, z'

loop_
  _atom_site_type_symbol
  _atom_site_label
  _atom_site_symmetry_multiplicity
  _atom_site_fract_x
  _atom_site_fract_y
  _atom_site_fract_z
  _atom_site_occupancy
  Cd  Cd1       1.0  0.7272150189708668  0.2540649490426432  0.765116179594834  1.0000
  Cd  Cd2       1.0  0.4618761387166543  0.4895053411772564  0.23485252467094844  1.0000
  Cd  Cd3       1.0  0.05423158039487667  0.9831972083203835  0.6686690326685324  1.0000
  Cd  Cd4       1.0  0.884921347992652  0.31446974879069245  0.331232477995286  1.0000
  H   H1        1.0  0.3759376682738703  0.9906847521303489  0.6247774934722657  1.0000
  H   H2        1.0  0.2502215243231802  0.3662850591003918  0.3752161906147862  1.0000
  H   H3        1.0  0.2544604820549807  0.8604524262781227  0.4963791932139119  1.0000
  H   H4        1.0  0.2574700430175412  0.3639126514462987  0.503501452003789  1.0000
  H   H5        1.0  0.02391428068283118  0.9004748084935416  0.8398230902114038  1.0000
  H   H6        1.0  0.6830678684984692  0.061164430751830395  0.16062782548490162  1.0000
  H   H7        1.0  0.22474371192190284  0.9379062746960327  0.9229826199127587  1.0000
  H   H8        1.0  0.8007400802775352  0.014562821665883508  0.07746689406340587  1.0000
  H   H9        1.0  0.648234005004639  0.3195577003836902  0.5108209916002977  1.0000
  H   H10       1.0  0.6377876073856186  0.8090287683308193  0.4888521102208046  1.0000
  H   H11       1.0  0.028398068921653405  0.056451572598724915  0.42432483599468174  1.0000
  H   H12       1.0  0.103733842842864  0.6317755238267182  0.5759550502374111  1.0000
  H   H13       1.0  0.0779300130155463  0.4934028530278241  0.004327592351479835  1.0000
  H   H14       1.0  0.5739868402052437  0.48924946809455616  0.9956947820645325  1.0000
  H   H15       1.0  0.3876946879727114  0.1685543103357006  0.9684483393759605  1.0000
  H   H16       1.0  0.9183834540960448  0.19950756541070547  0.03152043338862137  1.0000
  H   H17       1.0  0.4651139164711466  0.7900813155116283  0.6259972675349418  1.0000
  H   H18       1.0  0.3374565351721516  0.16468788247478733  0.3737294085050209  1.0000
  H   H19       1.0  0.4450809202620717  0.8721894937995457  0.7730293332997248  1.0000
  H   H20       1.0  0.17076942594412972  0.09923104591140942  0.2264832453697139  1.0000
  H   H21       1.0  0.722236333725519  0.6778086070115279  0.7099818795355901  1.0000
  H   H22       1.0  0.5119092363945797  0.9691121182706799  0.2900620126451161  1.0000
  H   H23       1.0  0.6904109295319005  0.7496276369745304  0.855190861602985  1.0000
  H   H24       1.0  0.33477401907850884  0.8950908943734674  0.1448477913255815  1.0000
  H   H25       1.0  0.39388304072216584  0.5752429928623999  0.6015637505350924  1.0000
  H   H26       1.0  0.2927841553222025  0.9741231643708231  0.3986426943905741  1.0000
  H   H27       1.0  0.37504161793295054  0.6336117739235905  0.7496321070631637  1.0000
  H   H28       1.0  0.1254262217476665  0.8845217008819972  0.2507058681578657  1.0000
  C   C1        1.0  0.738431556549422  0.2425305016419089  0.5077151524942494  1.0000
  C   C2        1.0  0.7309011255142508  0.734962768976459  0.4920899955301011  1.0000
  C   C3        1.0  0.9309442012631665  0.10891215367072965  0.463580978558177  1.0000
  C   C4        1.0  0.9671413164582036  0.645176626972557  0.5365383174698338  1.0000
  C   C5        1.0  0.1258075630005138  0.39394254263910977  0.9667926688669651  1.0000
  C   C6        1.0  0.6591680045728411  0.4272203888821196  0.03324080314362031  1.0000
  C   C7        1.0  0.28260433590263295  0.22902283561776932  0.9485306968211802  1.0000
  C   C8        1.0  0.8335476275029378  0.28018231234605656  0.051455115044149145  1.0000
  C   C9        1.0  0.6649134343738652  0.9601061217566382  0.7588626369644443  1.0000
  C   C10       1.0  0.40474479455168233  0.2020258670377402  0.24114137520223983  1.0000
  C   C11       1.0  0.5432878192337753  0.8332646117393593  0.7268418074876877  1.0000
  C   C12       1.0  0.3152174726202333  0.10697608684021281  0.2729440684147093  1.0000
  C   C13       1.0  0.6222929894752482  0.7155134383069709  0.7542750387523256  1.0000
  C   C14       1.0  0.3675452492325419  0.962032177081248  0.24573020125131956  1.0000
  C   C15       1.0  0.46939716804221393  0.5981953920539311  0.699409723677853  1.0000
  C   C16       1.0  0.2700601970434419  0.8993252692584903  0.3006920627265687  1.0000
  C   C17       1.0  0.5174660981526885  0.46118929905468076  0.7008580212401085  1.0000
  C   C18       1.0  0.3169461760413697  0.7608028604694114  0.29893230038730684  1.0000
  N   N1        1.0  0.8854872887030609  0.08613580528518132  0.5465875539215901  1.0000
  N   N2        1.0  0.8384812989131163  0.5394929036458364  0.453487447208431  1.0000
  N   N3        1.0  0.7608050994087067  0.17181612368234772  0.5744353766460861  1.0000
  N   N4        1.0  0.6862058444278603  0.5975201959449167  0.42545477508197405  1.0000
  N   N5        1.0  0.8417090672116956  0.20612391362790558  0.4364014585883495  1.0000
  N   N6        1.0  0.9054735052668762  0.7697107164167106  0.5635599296884024  1.0000
  N   N7        1.0  0.1437717129379834  0.18401248837411546  0.841627712570812  1.0000
  N   N8        1.0  0.8019331428828737  0.34248344200813824  0.15842880722286165  1.0000
  N   N9        1.0  0.04179899689700761  0.29014234483236123  0.8531141075871815  1.0000
  N   N10       1.0  0.6888879239759688  0.43739283476470814  0.14697435151499152  1.0000
  N   N11       1.0  0.27605385326401694  0.36028361547996474  0.029846695655876925  1.0000
  N   N12       1.0  0.745875079556022  0.33008482958850044  0.9701000384606573  1.0000
  O   O1        1.0  0.8283715304615316  0.9816028812366608  0.8213964644629358  1.0000
  O   O2        1.0  0.5062936970922962  0.16123820841422543  0.1790667634369569  1.0000
  O   O3        1.0  0.5850138474272272  0.04403413864856281  0.7161635163673523  1.0000
  O   O4        1.0  0.3669575570751675  0.3284858949288108  0.28341807567652216  1.0000
  O   O5        1.0  0.6606277578492908  0.46611930709152477  0.7864526986591757  1.0000
  O   O6        1.0  0.3742052386088304  0.68018997434433  0.21310358373010985  1.0000
  O   O7        1.0  0.4148928073149207  0.34873043507074897  0.6180190414789308  1.0000
  O   O8        1.0  0.29745431361480007  0.7309217450066756  0.3816269214693905  1.0000
  O   O9        1.0  0.24909250551603895  0.9505658028612987  0.5687070499507245  1.0000
  O   O10       1.0  0.1797242204612033  0.38200802544650975  0.4313997020075888  1.0000
  O   O11       1.0  0.1442370542171005  0.880945546883254  0.8375488804059971  1.0000
  O   O12       1.0  0.8056571275684377  0.0437460854734724  0.16297890836250414  1.0000
