data_image0
_chemical_formula_structural       Na4Zn4P8H20C8O24
_chemical_formula_sum              "Na4 Zn4 P8 H20 C8 O24"
_cell_length_a       5.2898756396785185
_cell_length_b       8.573163389764199
_cell_length_c       16.114339560012052
_cell_angle_alpha    89.99996410559902
_cell_angle_beta     89.99989042301384
_cell_angle_gamma    90.97302071957809

_space_group_name_H-M_alt    "P 1"
_space_group_IT_number       1

loop_
  _space_group_symop_operation_xyz
  'x, y, z'

loop_
  _atom_site_type_symbol
  _atom_site_label
  _atom_site_symmetry_multiplicity
  _atom_site_fract_x
  _atom_site_fract_y
  _atom_site_fract_z
  _atom_site_occupancy
  Na  Na1       1.0  0.421440790039604  0.6756762363472717  0.851085230733361  1.0000
  Na  Na2       1.0  0.07856103271515738  0.8243275321055422  0.3510865132497969  1.0000
  Na  Na3       1.0  0.5785599315219727  0.3243197184642668  0.148912514505227  1.0000
  Na  Na4       1.0  0.9214381425522618  0.1756824197540396  0.6489118525519331  1.0000
  Zn  Zn1       1.0  0.9134622045381348  0.8900322029121525  0.812098679683402  1.0000
  Zn  Zn2       1.0  0.5865347113185067  0.6099677720625962  0.3121000360976538  1.0000
  Zn  Zn3       1.0  0.08653871779189609  0.10997191807833669  0.1878978244230538  1.0000
  Zn  Zn4       1.0  0.41346033885574235  0.3900281764042717  0.6879008119688026  1.0000
  P   P1        1.0  0.8886351145103432  0.7194152344635826  0.9797580853929233  1.0000
  P   P2        1.0  0.6113644534663223  0.7805880516928169  0.4797606092095421  1.0000
  P   P3        1.0  0.1113939352375724  0.2805795854633359  0.020243383230919704  1.0000
  P   P4        1.0  0.3886026126591488  0.21942303081672068  0.5202445828179806  1.0000
  P   P5        1.0  0.5768560519608525  0.9239939210541549  0.2095255015457411  1.0000
  P   P6        1.0  0.9231434402348456  0.576003840819631  0.7095236337828015  1.0000
  P   P7        1.0  0.42313739457384963  0.07601369126947331  0.7904716231271749  1.0000
  P   P8        1.0  0.07686089016072369  0.423985118639152  0.2904741114561986  1.0000
  H   H1        1.0  0.7475222374850502  0.4746777631893124  0.9872130144726228  1.0000
  H   H2        1.0  0.7524789993157198  0.025321659072545803  0.4872161839150095  1.0000
  H   H3        1.0  0.2524880797705649  0.5253240351777962  0.0127853513279135  1.0000
  H   H4        1.0  0.24751988913480003  0.9746766268163325  0.5127852847154132  1.0000
  H   H5        1.0  0.8865164441752781  0.6679445129661089  0.12575288150290484  1.0000
  H   H6        1.0  0.6134911307991117  0.8320498539241115  0.625756033516339  1.0000
  H   H7        1.0  0.11348250164536473  0.33205610611798875  0.8742461048658756  1.0000
  H   H8        1.0  0.3865116246037488  0.1679519359829627  0.3742472968084272  1.0000
  H   H9        1.0  0.9930958490217277  0.85748935447603  0.099988191441291  1.0000
  H   H10       1.0  0.5069063273251472  0.6425085354989122  0.5999858780512426  1.0000
  H   H11       1.0  0.006903096789919501  0.14251126460663954  0.900013277188691  1.0000
  H   H12       1.0  0.4930926758476345  0.3574944167775342  0.400015590578306  1.0000
  H   H13       1.0  0.5235540506890501  0.9224306897683051  0.0626513599621674  1.0000
  H   H14       1.0  0.976434933544752  0.5775578955760066  0.5626476044513495  1.0000
  H   H15       1.0  0.4764449238099147  0.07757109591232589  0.9373482469716877  1.0000
  H   H16       1.0  0.023544878239945898  0.4224333695892994  0.4373526230543021  1.0000
  H   H17       1.0  0.435865087622929  0.74040797720874  0.10581173069683561  1.0000
  H   H18       1.0  0.06414192044800869  0.7595809118244433  0.6058043829706534  1.0000
  H   H19       1.0  0.5641338581954684  0.2595926418749955  0.8941878762372398  1.0000
  H   H20       1.0  0.935862467317683  0.2404103808295446  0.39419088000670394  1.0000
  C   C1        1.0  0.8429117532601965  0.7702606631957211  0.0874162107038075  1.0000
  C   C2        1.0  0.6570922612308577  0.7297314103679753  0.5874156555677104  1.0000
  C   C3        1.0  0.15709280657764416  0.2297376290378281  0.9125821550987467  1.0000
  C   C4        1.0  0.34290857504397815  0.27026921082970284  0.4125845719312197  1.0000
  C   C5        1.0  0.5806326494355288  0.8336885877378392  0.10782106962241761  1.0000
  C   C6        1.0  0.9193617362425782  0.6663022851902697  0.6078173092332619  1.0000
  C   C7        1.0  0.4193681868415666  0.1663120334601942  0.8921785373112103  1.0000
  C   C8        1.0  0.08062953301428878  0.3336936590480093  0.3921835388341037  1.0000
  O   O1        1.0  0.8001711217281482  0.857563589130052  0.9272998348060995  1.0000
  O   O2        1.0  0.6998306881402029  0.6424385928811205  0.4272998841405312  1.0000
  O   O3        1.0  0.19985632438246634  0.14244289465398194  0.07269728985888692  1.0000
  O   O4        1.0  0.30016241422322304  0.3575550202791007  0.5726984816656043  1.0000
  O   O5        1.0  0.1615394612620946  0.6712068608131431  0.9666364146662688  1.0000
  O   O6        1.0  0.33846905738082705  0.8287956165964444  0.4666375712742337  1.0000
  O   O7        1.0  0.8384669316575708  0.32878910033842607  0.0333662950933871  1.0000
  O   O8        1.0  0.661541317220184  0.17120851496194692  0.533365138482985  1.0000
  O   O9        1.0  0.7005714805626154  0.5776854385015541  0.9581531750519333  1.0000
  O   O10       1.0  0.7994301057363626  0.9223167080213132  0.4581561781182089  1.0000
  O   O11       1.0  0.2994463411733861  0.4223140351300216  0.041843329051332  1.0000
  O   O12       1.0  0.2005632260625845  0.07768623791260862  0.5418446699473947  1.0000
  O   O13       1.0  0.7244738470673723  0.08153875570832982  0.20352971700861394  1.0000
  O   O14       1.0  0.7755199642840793  0.41845981566911655  0.7035333807748358  1.0000
  O   O15       1.0  0.27553443631548896  0.9184572075582479  0.7964717516199755  1.0000
  O   O16       1.0  0.22446772481486474  0.581544290518103  0.2964687084225091  1.0000
  O   O17       1.0  0.30013808721964347  0.9506705670639803  0.23701598519990344  1.0000
  O   O18       1.0  0.19985307590622628  0.5493274869173278  0.7370179572770824  1.0000
  O   O19       1.0  0.6998608872838189  0.0493312186173611  0.7629823806033471  1.0000
  O   O20       1.0  0.8001325506573809  0.45066961757532203  0.262982270226118  1.0000
  O   O21       1.0  0.708605396128945  0.8139416898515749  0.2704631409802404  1.0000
  O   O22       1.0  0.7913900743795135  0.6860641638849428  0.7704581934961184  1.0000
  O   O23       1.0  0.2913914297772422  0.18604959434130564  0.7295389482172467  1.0000
  O   O24       1.0  0.20860511919531888  0.31393761756602606  0.229543275134553  1.0000
