data_image0
_chemical_formula_structural       Zn4H52C40N12O20
_chemical_formula_sum              "Zn4 H52 C40 N12 O20"
_cell_length_a       8.644030521
_cell_length_b       9.140606884239254
_cell_length_c       16.186
_cell_angle_alpha    90.0
_cell_angle_beta     90.0
_cell_angle_gamma    96.1312627776511

_space_group_name_H-M_alt    "P 1"
_space_group_IT_number       1

loop_
  _space_group_symop_operation_xyz
  'x, y, z'

loop_
  _atom_site_type_symbol
  _atom_site_label
  _atom_site_symmetry_multiplicity
  _atom_site_fract_x
  _atom_site_fract_y
  _atom_site_fract_z
  _atom_site_occupancy
  Zn  Zn1       1.0  0.29656132986958994  0.6924623435029247  0.1712788829852983  1.0000
  Zn  Zn2       1.0  0.20343669180711293  0.3075386560216415  0.6712801186210271  1.0000
  Zn  Zn3       1.0  0.7034372401045772  0.3075386560216415  0.8287211170147017  1.0000
  Zn  Zn4       1.0  0.7965627864908386  0.6924601428764063  0.3287204991968338  1.0000
  H   H1        1.0  0.08978872795590581  0.8706712794515497  0.4447979735573924  1.0000
  H   H2        1.0  0.4102127643239939  0.1293297200730166  0.9447985913752603  1.0000
  H   H3        1.0  0.9102120314817486  0.1293286197597538  0.5552020264426076  1.0000
  H   H4        1.0  0.589787086789876  0.8706723797648053  0.0552014086247397  1.0000
  H   H5        1.0  0.2944195515064933  0.8483877353434792  0.4419955517113578  1.0000
  H   H6        1.0  0.2055845030528261  0.1516154648076053  0.9419949338934899  1.0000
  H   H7        1.0  0.7055800510634285  0.1516121638678314  0.5580050661065101  1.0000
  H   H8        1.0  0.7944176617965157  0.8483866350302165  0.0580050661065101  1.0000
  H   H9        1.0  0.1531362747906826  0.6987407309550591  0.4687458297293929  1.0000
  H   H10       1.0  0.3468629037537525  0.3012602685695072  0.9687464475472609  1.0000
  H   H11       1.0  0.8468608897717971  0.3012580679429888  0.531254788088475  1.0000
  H   H12       1.0  0.6531368230881471  0.6987407309550591  0.031254788088475  1.0000
  H   H13       1.0  0.3723724134596297  0.7487202600890228  0.8692759174595324  1.0000
  H   H14       1.0  0.1276315168277122  0.251281839748799  0.3692759174595324  1.0000
  H   H15       1.0  0.6276285945219799  0.251281839748799  0.1307228469047317  1.0000
  H   H16       1.0  0.8723669288744775  0.7487180594625045  0.6307234647225997  1.0000
  H   H17       1.0  0.2610526329137244  0.577046084581724  0.8528351661930031  1.0000
  H   H18       1.0  0.2389523299693792  0.4229549149428351  0.3528357840108711  1.0000
  H   H19       1.0  0.7389480022519593  0.42295271431632386  0.1471635981712609  1.0000
  H   H20       1.0  0.761047521144498  0.5770471848949867  0.6471629803533929  1.0000
  H   H21       1.0  0.4461818092799277  0.58443358779828  0.9033461015692552  1.0000
  H   H22       1.0  0.053825591610618104  0.4155685120395489  0.4033461015692552  1.0000
  H   H23       1.0  0.5538235776286627  0.4155663114130306  0.0966526627950088  1.0000
  H   H24       1.0  0.946172978363549  0.5844324874850173  0.5966532806128768  1.0000
  H   H25       1.0  0.07430870355202761  0.8892522694452794  0.0770727789447676  1.0000
  H   H26       1.0  0.4256908478083333  0.1107520310190608  0.5770721611268996  1.0000
  H   H27       1.0  0.9256897421501692  0.1107476297660241  0.9229284566909683  1.0000
  H   H28       1.0  0.5743077221658339  0.8892489685055054  0.4229278388731004  1.0000
  H   H29       1.0  0.022349181290316298  0.153621335877574  0.0792505869269746  1.0000
  H   H30       1.0  0.47765037007003747  0.8463829645867662  0.5792499691091066  1.0000
  H   H31       1.0  0.9776492644118734  0.8463785633337366  0.9207500308908934  1.0000
  H   H32       1.0  0.522349356771862  0.1536180349378  0.4207494130730253  1.0000
  H   H33       1.0  0.41221109215774016  0.23739698674170026  0.2455461509946844  1.0000
  H   H34       1.0  0.08778936752639768  0.7626051130961214  0.7455461509946844  1.0000
  H   H35       1.0  0.5877886346841521  0.7626040127828588  0.7544538490053156  1.0000
  H   H36       1.0  0.912211267639286  0.23739368580192627  0.2544550846410445  1.0000
  H   H37       1.0  0.4423407735803338  0.9647128530160742  0.2395218089707143  1.0000
  H   H38       1.0  0.05765852923607889  0.0352892468217476  0.7395205733349783  1.0000
  H   H39       1.0  0.5576599858573275  0.0352870461952364  0.7604788088471537  1.0000
  H   H40       1.0  0.9423421059296118  0.9647095520763003  0.2604794266650217  1.0000
  H   H41       1.0  0.9951523759877932  0.3709166997025051  0.0994569380946473  1.0000
  H   H42       1.0  0.5048457096880768  0.6290854001353168  0.5994563202767793  1.0000
  H   H43       1.0  0.0048471023101583875  0.6290820991955357  0.9005424440874847  1.0000
  H   H44       1.0  0.4951538928818522  0.3709144990759938  0.4005436797232207  1.0000
  H   H45       1.0  0.9842152836065168  0.6085535547345344  0.1834999382182119  1.0000
  H   H46       1.0  0.5157840832090557  0.3914496454165501  0.6835011738539476  1.0000
  H   H47       1.0  0.0157844432353755  0.3914474447900318  0.8165000617817881  1.0000
  H   H48       1.0  0.4842142382211634  0.6085491534814977  0.3164988261460522  1.0000
  H   H49       1.0  0.04730368521614991  0.6207197184320918  0.0839330285431856  1.0000
  H   H50       1.0  0.4526954933282853  0.3792812810924744  0.5839342641789216  1.0000
  H   H51       1.0  0.952695917353779  0.3792801807792117  0.9160663536389464  1.0000
  H   H52       1.0  0.5473039849696661  0.6207175178055735  0.4160657358210784  1.0000
  C   C1        1.0  0.1632565769007357  0.748962329005856  0.3396929445199532  1.0000
  C   C2        1.0  0.3367451639231192  0.2510408711452214  0.8396929445199532  1.0000
  C   C3        1.0  0.8367429013972155  0.2510364698921919  0.6603076732979147  1.0000
  C   C4        1.0  0.6632545629187803  0.7489601283793377  0.1603076732979147  1.0000
  C   C5        1.0  0.17684969444702148  0.7962945044402332  0.4292110465834682  1.0000
  C   C6        1.0  0.3231543601122979  0.2037086957108514  0.9292129000370721  1.0000
  C   C7        1.0  0.82314978385093  0.2037042944578147  0.5707895712343998  1.0000
  C   C8        1.0  0.6768443341338399  0.7962934041269705  0.0707889534165318  1.0000
  C   C9        1.0  0.2634936668843082  0.6599634911043424  0.978872482392191  1.0000
  C   C10       1.0  0.2365156749257835  0.3400353077937055  0.478872482392191  1.0000
  C   C11       1.0  0.7365160989512775  0.3400342074804428  0.021126899789941  1.0000
  C   C12       1.0  0.763482770776406  0.6599645914176051  0.521126899789941  1.0000
  C   C13       1.0  0.3403279249083014  0.6391268589310002  0.8962665266279473  1.0000
  C   C14       1.0  0.1596792274383034  0.3608730402803033  0.3962677622636832  1.0000
  C   C15       1.0  0.659675023992854  0.3608719399670477  0.1037322377363168  1.0000
  C   C16       1.0  0.8403216562713285  0.6391279592442629  0.6037328555541848  1.0000
  C   C17       1.0  0.1447087187632476  0.9699976575959185  0.1146781168911417  1.0000
  C   C18       1.0  0.35529070832512843  0.030005542555159102  0.6146781168911417  1.0000
  C   C19       1.0  0.8552897269389419  0.030002241615385096  0.8853231187445942  1.0000
  C   C20       1.0  0.6447088942447935  0.9699943566561445  0.3853218831088583  1.0000
  C   C21       1.0  0.11764087461075691  0.11761138387160489  0.1156011367848748  1.0000
  C   C22       1.0  0.3823584282056487  0.8823907159662169  0.6156011367848748  1.0000
  C   C23       1.0  0.8823562899517299  0.8823874150264429  0.8844000988508611  1.0000
  C   C24       1.0  0.617641174364273  0.1176091832450865  0.38439886321512506  1.0000
  C   C25       1.0  0.2158489426097461  0.216470128881177  0.1629649079451383  1.0000
  C   C26       1.0  0.284150235934689  0.7835308706433891  0.6629649079451383  1.0000
  C   C27       1.0  0.7841495030924435  0.7835297703301336  0.8370357098727297  1.0000
  C   C28       1.0  0.7158493666352399  0.2164690285679143  0.3370357098727297  1.0000
  C   C29       1.0  0.3349584522639546  0.1620145254122534  0.2084282713456105  1.0000
  C   C30       1.0  0.165040850552451  0.8379875744255685  0.7084276535277425  1.0000
  C   C31       1.0  0.6650411503059673  0.8379853737990501  0.7915717286543895  1.0000
  C   C32       1.0  0.8349597846132327  0.1620112244724794  0.2915729642901255  1.0000
  C   C33       1.0  0.3523831795663028  0.0130915271478287  0.2049369825775358  1.0000
  C   C34       1.0  0.1476162475220804  0.9869116730032487  0.7049351291239319  1.0000
  C   C35       1.0  0.6476177041433289  0.9869094723767375  0.7950636352403322  1.0000
  C   C36       1.0  0.852383230775871  0.0130871258947991  0.2950636352403322  1.0000
  C   C37       1.0  0.2060490266470296  0.3787388266561109  0.1676294328431993  1.0000
  C   C38       1.0  0.293946557022231  0.6212610725551997  0.6676306684789353  1.0000
  C   C39       1.0  0.7939507001948627  0.6212621728684553  0.8323705671568007  1.0000
  C   C40       1.0  0.7060530455476978  0.3787388266561109  0.3323687137031968  1.0000
  N   N1        1.0  0.2593062678043694  0.9184699877074608  0.158468429506982  1.0000
  N   N2        1.0  0.2406944404237237  0.0815343127568724  0.658468429506982  1.0000
  N   N3        1.0  0.7406946159052622  0.0815310118170984  0.841531570493018  1.0000
  N   N4        1.0  0.7593051621462052  0.918465586454431  0.3415321883108859  1.0000
  N   N5        1.0  0.0766481663040963  0.4304403460393829  0.1387594217224759  1.0000
  N   N6        1.0  0.4233508879683612  0.5695595531719206  0.6387600395403439  1.0000
  N   N7        1.0  0.9233502793980932  0.5695595531719206  0.8612405782775241  1.0000
  N   N8        1.0  0.5766485903295901  0.4304392457261272  0.3612399604596561  1.0000
  N   N9        1.0  0.06905696035013878  0.5835335315529449  0.1428580254540961  1.0000
  N   N10       1.0  0.4309433750620287  0.4164674679716143  0.642859261089832  1.0000
  N   N11       1.0  0.9309426422197832  0.4164663676583586  0.8571413567280359  1.0000
  N   N12       1.0  0.5690562275078932  0.5835324312396892  0.3571407389101679  1.0000
  O   O1        1.0  0.2885574045166379  0.7250492209621697  0.3028209563820567  1.0000
  O   O2        1.0  0.21144458485115789  0.2749561798154261  0.8028209563820567  1.0000
  O   O3        1.0  0.7114425708692096  0.2749539791889077  0.6971796614358112  1.0000
  O   O4        1.0  0.7885562988584738  0.7250448197091401  0.1971802792536792  1.0000
  O   O5        1.0  0.03195866368448459  0.7362680149442937  0.303560484369207  1.0000
  O   O6        1.0  0.4680410503678161  0.2637274830139802  0.803559866551339  1.0000
  O   O7        1.0  0.9680418472092214  0.2637296836404985  0.696438897812925  1.0000
  O   O8        1.0  0.5319583036581649  0.736270215570805  0.196440133448661  1.0000
  O   O9        1.0  0.34636669050564717  0.6529643984679936  0.0431008278759393  1.0000
  O   O10       1.0  0.1536413701647348  0.3470333001167987  0.5431002100580784  1.0000
  O   O11       1.0  0.6536406373224963  0.3470321998035431  0.9568985543061928  1.0000
  O   O12       1.0  0.8463582324051871  0.6529665990945048  0.4568997899419287  1.0000
  O   O13       1.0  0.120042115760377  0.6862576770390945  0.9792203138514779  1.0000
  O   O14       1.0  0.3799623500348375  0.3137389212324351  0.4792227851229427  1.0000
  O   O15       1.0  0.8799630226042723  0.3137400215456907  0.0207778326949182  1.0000
  O   O16       1.0  0.6200348145276493  0.6862598776656128  0.5207772148770573  1.0000
  O   O17       1.0  0.3166945701904638  0.4593444750229381  0.1997046830594371  1.0000
  O   O18       1.0  0.1833044840820008  0.5406554241883654  0.699705300877298  1.0000
  O   O19       1.0  0.683305032379458  0.5406554241883654  0.8002953169405629  1.0000
  O   O20       1.0  0.8166939616201958  0.4593444750229381  0.300294081304834  1.0000
