data_image0
_chemical_formula_structural       Zn2H13C20IN2O8
_chemical_formula_sum              "Zn2 H13 C20 I1 N2 O8"
_cell_length_a       9.757862894984383
_cell_length_b       11.33769614526512
_cell_length_c       10.996624358602713
_cell_angle_alpha    88.95229589408527
_cell_angle_beta     113.23855073257856
_cell_angle_gamma    101.63557449592706

_space_group_name_H-M_alt    "P 1"
_space_group_IT_number       1

loop_
  _space_group_symop_operation_xyz
  'x, y, z'

loop_
  _atom_site_type_symbol
  _atom_site_label
  _atom_site_symmetry_multiplicity
  _atom_site_fract_x
  _atom_site_fract_y
  _atom_site_fract_z
  _atom_site_occupancy
  Zn  Zn1       1.0  0.6545456225658128  0.5037266927483302  0.5399924481724482  1.0000
  Zn  Zn2       1.0  0.33511257789860593  0.49062081172522193  0.4265452277774954  1.0000
  H   H1        1.0  0.31684564086135947  0.35774718436982056  0.8095993340807721  1.0000
  H   H2        1.0  0.6877004856387287  0.707867478020532  0.274631154128599  1.0000
  H   H3        1.0  0.2950213447208511  0.37111838956467114  0.028122000136327974  1.0000
  H   H4        1.0  0.6172836278844044  0.09983678205703228  0.5314413426607627  1.0000
  H   H5        1.0  0.6897750432102112  0.9171794464227149  0.5695009799803328  1.0000
  H   H6        1.0  0.27932647748015427  0.0943628289588148  0.35788834097144206  1.0000
  H   H7        1.0  0.849661352451342  0.5500474799590761  0.3873563949257883  1.0000
  H   H8        1.0  0.1495817749408843  0.4687804965015944  0.5850593203397663  1.0000
  H   H9        1.0  0.9494001021848532  0.46580448177705613  0.6555858939460533  1.0000
  H   H10       1.0  0.04557067712497802  0.537948598930555  0.31064708580540656  1.0000
  H   H11       1.0  0.7259308043585051  0.6880982662400752  0.8368566458268416  1.0000
  H   H12       1.0  0.8937703377991113  0.8512159654626217  0.006668546028343754  1.0000
  H   H13       1.0  0.8751395088190177  0.8610518027824198  0.22654835385156233  1.0000
  C   C1        1.0  0.43931489368745236  0.26421939959015356  0.44605034730196264  1.0000
  C   C2        1.0  0.46450423624076365  0.9275397674690641  0.45300306973274457  1.0000
  C   C3        1.0  0.0725861262882148  0.4971939760134133  0.4910426785603119  1.0000
  C   C4        1.0  0.5081217710044753  0.49170717334239084  0.7248865337267458  1.0000
  C   C5        1.0  0.9246676884443091  0.5181689665568288  0.47972735438268177  1.0000
  C   C6        1.0  0.5611244574831106  0.7319071280163809  0.5142013402904053  1.0000
  C   C7        1.0  0.47481071451773726  0.5178192939327032  0.23996521597221931  1.0000
  C   C8        1.0  0.7176739035372748  0.6918252494182299  0.9323948276786138  1.0000
  C   C9        1.0  0.8117933789883836  0.7825398897252996  0.02791354225201561  1.0000
  C   C10       1.0  0.8016928511705926  0.7879287373315405  0.15237282732843477  1.0000
  C   C11       1.0  0.696900119437089  0.7023137344792474  0.17929620156995435  1.0000
  C   C12       1.0  0.608476828543381  0.6014992674221987  0.9564243501108006  1.0000
  C   C13       1.0  0.5976131541320697  0.6076153785462708  0.08305071090619257  1.0000
  C   C14       1.0  0.5051971105649357  0.5076616994579197  0.8588966067800993  1.0000
  C   C15       1.0  0.3941111366241188  0.42811474478062184  0.8855953811476736  1.0000
  C   C16       1.0  0.3822926877097288  0.43509733052660254  0.00840469988052207  1.0000
  C   C17       1.0  0.4836054067124139  0.5214815680668252  0.10679333284502232  1.0000
  C   C18       1.0  0.3989111743403769  0.131310053856609  0.4198927335791892  1.0000
  C   C19       1.0  0.4984454237496649  0.058371560664277  0.4691959930710111  1.0000
  C   C20       1.0  0.574432826963786  0.8643998492521803  0.514153665274854  1.0000
  I   I1        1.0  0.23764302942279877  0.8434247552018449  0.32721953346807436  1.0000
  N   N1        1.0  0.1186505373926465  0.5091282966351967  0.39640113597795323  1.0000
  N   N2        1.0  0.8755418438000007  0.4968241707776997  0.5719267143754719  1.0000
  O   O1        1.0  0.5764092079487781  0.3166325175569114  0.5166669613680454  1.0000
  O   O2        1.0  0.32605536047395844  0.3156355687167647  0.3921998219665993  1.0000
  O   O3        1.0  0.6373661493863239  0.5145861436396048  0.7160112081562172  1.0000
  O   O4        1.0  0.38001687793564537  0.45507467774557153  0.6284125633506574  1.0000
  O   O5        1.0  0.6823888826705725  0.6935884878252595  0.5358012844910716  1.0000
  O   O6        1.0  0.43111433679740685  0.6662832575126886  0.49526423141555387  1.0000
  O   O7        1.0  0.5956772035015448  0.5043375480475306  0.3370834566579147  1.0000
  O   O8        1.0  0.3492839921419275  0.5244767434843425  0.24598352436198911  1.0000
