data_image0
_chemical_formula_structural       Cd4H48C48N8O24
_chemical_formula_sum              "Cd4 H48 C48 N8 O24"
_cell_length_a       7.878278379522334
_cell_length_b       12.446622834
_cell_length_c       14.0134
_cell_angle_alpha    90.0
_cell_angle_beta     97.73887931321283
_cell_angle_gamma    90.0

_space_group_name_H-M_alt    "P 1"
_space_group_IT_number       1

loop_
  _space_group_symop_operation_xyz
  'x, y, z'

loop_
  _atom_site_type_symbol
  _atom_site_label
  _atom_site_symmetry_multiplicity
  _atom_site_fract_x
  _atom_site_fract_y
  _atom_site_fract_z
  _atom_site_occupancy
  Cd  Cd1       1.0  0.759289336877252  0.0006138211225561  0.1547899405660047  1.0000
  Cd  Cd2       1.0  0.7407087226943219  0.5006121004148341  0.34520898485124724  1.0000
  Cd  Cd3       1.0  0.24071022349043145  0.9993851477543669  0.84521059703399  1.0000
  Cd  Cd4       1.0  0.2592933996332647  0.49938606503130245  0.6547888922899574  1.0000
  H   H1        1.0  0.7174883991304455  0.0981696012079851  0.3440219830942297  1.0000
  H   H2        1.0  0.7825122224010241  0.5981694873618437  0.1559764226723246  1.0000
  H   H3        1.0  0.282513723197134  0.9018325813920923  0.65597660764967  1.0000
  H   H4        1.0  0.2174860569867079  0.4018318918074471  0.844024017951668  1.0000
  H   H5        1.0  0.8549426717457678  0.1693431244853301  0.29777212323321584  1.0000
  H   H6        1.0  0.6450566688057577  0.669341403777608  0.2022247583519601  1.0000
  H   H7        1.0  0.14505560764196446  0.8306606649763281  0.702224035774613  1.0000
  H   H8        1.0  0.35494289156192577  0.330659171960896  0.7977764928507297  1.0000
  H   H9        1.0  0.8394287235644808  0.9043191996830799  0.976540415987387  1.0000
  H   H10       1.0  0.6605744599268917  0.40431931352922124  0.523461751744641  1.0000
  H   H11       1.0  0.1605682748432926  0.09568378634779147  0.023461354866000806  1.0000
  H   H12       1.0  0.3394276624006948  0.5956804587784958  0.4765404070127418  1.0000
  H   H13       1.0  0.6577268414967818  0.9611667485673577  0.9512086956879459  1.0000
  H   H14       1.0  0.842273780034688  0.461167665844286  0.5487897100786157  1.0000
  H   H15       1.0  0.3422701569109918  0.038837040894300394  0.04878879354927791  1.0000
  H   H16       1.0  0.15772706131294703  0.538832909894218  0.4512102108946863  1.0000
  H   H17       1.0  0.15074187764251684  0.983835548270136  0.1401100904612491  1.0000
  H   H18       1.0  0.34925790254132477  0.4838348586854905  0.35989124874279105  1.0000
  H   H19       1.0  0.8492525588053608  0.0161626171760005  0.8598900592347577  1.0000
  H   H20       1.0  0.6507531866459144  0.5161681273453809  0.6401087344357919  1.0000
  H   H21       1.0  0.3734863573262856  0.706964460750207  0.29406521328068896  1.0000
  H   H22       1.0  0.1265095799177018  0.206962164303981  0.2059386894061319  1.0000
  H   H23       1.0  0.6265132030413909  0.2930337046959295  0.7059317563058303  1.0000
  H   H24       1.0  0.8734861375101273  0.7930440354500448  0.7940622708685581  1.0000
  H   H25       1.0  0.0851300845746294  0.6740671836766623  0.3482361620922347  1.0000
  H   H26       1.0  0.4148620097295036  0.17406488723043614  0.15176459525581273  1.0000
  H   H27       1.0  0.9148720377529498  0.3259317852002681  0.6517652830624457  1.0000
  H   H28       1.0  0.585132426718374  0.8259348850772736  0.8482369816455773  1.0000
  H   H29       1.0  0.8449766477303768  0.797769011918305  0.2924891272703932  1.0000
  H   H30       1.0  0.6550137259614885  0.2977699291952405  0.2075063618800996  1.0000
  H   H31       1.0  0.1550216316573554  0.2022267432354639  0.7075127405589896  1.0000
  H   H32       1.0  0.3449832724462922  0.7022290396816899  0.7924911273571241  1.0000
  H   H33       1.0  0.13470400866145835  0.2538431542546107  0.9730461215194597  1.0000
  H   H34       1.0  0.3652932095624806  0.7538422369776754  0.5269550237325831  1.0000
  H   H35       1.0  0.8652981136661209  0.7461574214838933  0.026955323635228002  1.0000
  H   H36       1.0  0.6347025078653488  0.24615994562240215  0.47303737330977214  1.0000
  H   H37       1.0  0.6124403573044928  0.3364245913005064  0.001320486204385004  1.0000
  H   H38       1.0  0.8875551403071711  0.8364252808851517  0.49867610445279814  1.0000
  H   H39       1.0  0.3875592030631836  0.66357357414563  0.9986800513956101  1.0000
  H   H40       1.0  0.11244826300035979  0.16357047426861723  0.5013204424590257  1.0000
  H   H41       1.0  0.6485780826898591  0.5024551706440832  0.9023878729792827  1.0000
  H   H42       1.0  0.8514212578616662  0.0024544810594378  0.5976111494139715  1.0000
  H   H43       1.0  0.351422758657776  0.497544601663634  0.0976134751994024  1.0000
  H   H44       1.0  0.14858983132557305  0.9975388638019708  0.40239097457269674  1.0000
  H   H45       1.0  0.9333053392415633  0.5336475675840333  0.8459198411294864  1.0000
  H   H46       1.0  0.5666952822899063  0.0336452711378143  0.6540828462532389  1.0000
  H   H47       1.0  0.06669550210606447  0.4663522047236768  0.15408222065189392  1.0000
  H   H48       1.0  0.4333132449374304  0.9663496805851679  0.3459197973841271  1.0000
  C   C1        1.0  0.1420734863170523  0.9133618132097396  0.18483613084740821  1.0000
  C   C2        1.0  0.357925012886838  0.4133627304866749  0.31516368417524643  1.0000
  C   C3        1.0  0.8579235120907285  0.08663233508245578  0.8151642128005889  1.0000
  C   C4        1.0  0.6420822333605469  0.5866410589749833  0.684837435280734  1.0000
  C   C5        1.0  0.2844813084012046  0.8481079679834378  0.2123046485145679  1.0000
  C   C6        1.0  0.21551590982273433  0.3481072783987926  0.2876972103401698  1.0000
  C   C7        1.0  0.7155131280466802  0.1518910008934853  0.7876947875787368  1.0000
  C   C8        1.0  0.7844874934847963  0.6518989213552331  0.7123043317905129  1.0000
  C   C9        1.0  0.26468504424518347  0.7590436479036313  0.2707528894036244  1.0000
  C   C10       1.0  0.23531089299880384  0.2590437617497727  0.2292510132831964  1.0000
  C   C11       1.0  0.735311954162597  0.2409529106809245  0.7292460270389827  1.0000
  C   C12       1.0  0.7646873863889281  0.7409624380042459  0.7707508545461863  1.0000
  C   C13       1.0  0.10611125518492057  0.7407945209694161  0.3011982171477356  1.0000
  C   C14       1.0  0.3938795581392681  0.2407938313847708  0.1988024432243165  1.0000
  C   C15       1.0  0.89388574322286  0.2592012341843599  0.6988035537056518  1.0000
  C   C16       1.0  0.606118721248464  0.7592083512153138  0.801197997399676  1.0000
  C   C17       1.0  0.9708278039534903  0.8098317217796378  0.27054247070679344  1.0000
  C   C18       1.0  0.5291664126782292  0.3098318356257792  0.22945830459055122  1.0000
  C   C19       1.0  0.029170475434241894  0.190164836804918  0.7294622515333702  1.0000
  C   C20       1.0  0.47083570964935  0.6901679366819309  0.7705417133587389  1.0000
  C   C21       1.0  0.45720352101545086  0.8788158961578105  0.18688377959437472  1.0000
  C   C22       1.0  0.042796259168390784  0.3788232408810543  0.31311898681504857  1.0000
  C   C23       1.0  0.5427960393522326  0.1211742349804368  0.8131181852110033  1.0000
  C   C24       1.0  0.9572084251190913  0.6211869760269124  0.6868826522916296  1.0000
  C   C25       1.0  0.02430531358199769  0.3073122766724623  0.9596075879131547  1.0000
  C   C26       1.0  0.4756931856218855  0.8073121628263209  0.5403929407121879  1.0000
  C   C27       1.0  0.975698089725533  0.6926874956352549  0.040392527012137705  1.0000
  C   C28       1.0  0.524306374745791  0.19268760948139627  0.4596033152716359  1.0000
  C   C29       1.0  0.8714519413486312  0.2838770039972758  0.9959541719093181  1.0000
  C   C30       1.0  0.6285435562630326  0.7838760867203475  0.5040467003640218  1.0000
  C   C31       1.0  0.12854761901904505  0.7161227683104414  0.004047079293371799  1.0000
  C   C32       1.0  0.3714534421447411  0.2161285061721046  0.49595078887319494  1.0000
  C   C33       1.0  0.7333456499384778  0.3548199426382652  0.9751488051732908  1.0000
  C   C34       1.0  0.7666524096330958  0.8548198287921238  0.5248494066412661  1.0000
  C   C35       1.0  0.2666551914091498  0.6451790262386581  0.024851115800004195  1.0000
  C   C36       1.0  0.23334843171453903  0.14517833665401267  0.4751469463185529  1.0000
  C   C37       1.0  0.7536235625559087  0.4460237989083424  0.9204634605304349  1.0000
  C   C38       1.0  0.7463744970156652  0.9460220782006203  0.5795354648868242  1.0000
  C   C39       1.0  0.24637599781177494  0.5539767768301614  0.079537790672255  1.0000
  C   C40       1.0  0.2536340302116712  0.0539712666607812  0.4204628971343781  1.0000
  C   C41       1.0  0.911198187254733  0.4628315710076549  0.8880193322461665  1.0000
  C   C42       1.0  0.5887973103569377  0.962829046869146  0.6119822536298685  1.0000
  C   C43       1.0  0.0888039350728462  0.5371706115924226  0.11198354011390423  1.0000
  C   C44       1.0  0.411206092950593  0.037167511715409794  0.3880171476927288  1.0000
  C   C45       1.0  0.852731700351093  0.1838948629300106  0.053060948863588905  1.0000
  C   C46       1.0  0.647261235300675  0.6838963559454497  0.4469404430604485  1.0000
  C   C47       1.0  0.14726657903663914  0.8161008922237585  0.9469402053630986  1.0000
  C   C48       1.0  0.3527319201672511  0.3161082369470023  0.5530581824541656  1.0000
  N   N1        1.0  0.9880364886093673  0.8938786165841037  0.2119654169554082  1.0000
  N   N2        1.0  0.511962851942158  0.3938803372918187  0.2880336054378462  1.0000
  N   N3        1.0  0.0119605097984135  0.1061163351388785  0.788034926692589  1.0000
  N   N4        1.0  0.4880431133252756  0.6061210418774721  0.711965989836749  1.0000
  N   N5        1.0  0.0437992664696836  0.3947424185280823  0.9061680732879864  1.0000
  N   N6        1.0  0.4562005137141582  0.894741501251147  0.5938339795187488  1.0000
  N   N7        1.0  0.9562015748779442  0.6052589606412084  0.0938332748907058  1.0000
  N   N8        1.0  0.5438003276334769  0.1052598779181437  0.40616451424915573  1.0000
  O   O1        1.0  0.8160200959478772  0.09468913903139509  0.304401342097492  1.0000
  O   O2        1.0  0.6839805255835927  0.5946874183236801  0.1955956364636791  1.0000
  O   O3        1.0  0.1839807453997508  0.9053146504302632  0.6955964380677245  1.0000
  O   O4        1.0  0.3160177538041394  0.4053131574148239  0.8044033769549302  1.0000
  O   O5        1.0  0.469971048182721  0.9730358316086196  0.15000656126664322  1.0000
  O   O6        1.0  0.030031293961023692  0.4730415694702828  0.3499935446840042  1.0000
  O   O7        1.0  0.5300310741448655  0.026955102960421598  0.8499898886691781  1.0000
  O   O8        1.0  0.9699785142462642  0.5269670405761104  0.6500099095320594  1.0000
  O   O9        1.0  0.728394662429551  0.9184435129481797  0.0012657793746627065  1.0000
  O   O10       1.0  0.771609802041773  0.41844362679432107  0.4987371989360555  1.0000
  O   O11       1.0  0.2716036169581812  0.0815586696518977  0.998735374852025  1.0000
  O   O12       1.0  0.2283936012657577  0.5815561455133887  0.5012650567973225  1.0000
  O   O13       1.0  0.5828753400454756  0.8168175524872652  0.20845901958102794  1.0000
  O   O14       1.0  0.9171150336463894  0.3168224869181415  0.2915436055964093  1.0000
  O   O15       1.0  0.41711781542245047  0.1831757923741364  0.7915467419605307  1.0000
  O   O16       1.0  0.08288068378143977  0.6831877299898252  0.7084552138702024  1.0000
  O   O17       1.0  0.7078720826415648  0.1665640573872622  0.08075812574311672  1.0000
  O   O18       1.0  0.7921170100703561  0.666563140110334  0.4192365528286786  1.0000
  O   O19       1.0  0.2921210728263687  0.8334349114896611  0.9192355045526315  1.0000
  O   O20       1.0  0.20787358343767434  0.3334366321973831  0.5807604515285476  1.0000
  O   O21       1.0  0.9796127644544581  0.11985660848699098  0.07164425694898571  1.0000
  O   O22       1.0  0.5203840141371641  0.619850067194541  0.42836099391652044  1.0000
  O   O23       1.0  0.020386795913225293  0.880147180974667  0.928359848664478  1.0000
  O   O24       1.0  0.4796091413307621  0.3801553291286978  0.5716326363792277  1.0000
