data_image0
_chemical_formula_structural       Hg4H40C40Br8N16
_chemical_formula_sum              "Hg4 H40 C40 Br8 N16"
_cell_length_a       9.035385682
_cell_length_b       10.285598169325114
_cell_length_c       15.6032
_cell_angle_alpha    90.0
_cell_angle_beta     90.0
_cell_angle_gamma    94.65637269906527

_space_group_name_H-M_alt    "P 1"
_space_group_IT_number       1

loop_
  _space_group_symop_operation_xyz
  'x, y, z'

loop_
  _atom_site_type_symbol
  _atom_site_label
  _atom_site_symmetry_multiplicity
  _atom_site_fract_x
  _atom_site_fract_y
  _atom_site_fract_z
  _atom_site_occupancy
  Hg  Hg1       1.0  0.7884762754524743  0.7839069471057839  0.9231792196472526  1.0000
  Hg  Hg2       1.0  0.7115232263970483  0.216096911687508  0.4231779378589025  1.0000
  Hg  Hg3       1.0  0.2115145064628621  0.21609496078212936  0.0768162940935184  1.0000
  Hg  Hg4       1.0  0.2884741059321527  0.7839040207477197  0.5768233439294477  1.0000
  H   H1        1.0  0.7955211530859144  0.0537981667609628  0.8183693088597224  1.0000
  H   H2        1.0  0.7044709620216025  0.9462095938430934  0.3183680270713722  1.0000
  H   H3        1.0  0.2044803358502705  0.9461998393161934  0.18163197292862773  1.0000
  H   H4        1.0  0.2955271164918969  0.05378743678137  0.6816319729286278  1.0000
  H   H5        1.0  0.154303496039212  0.8993878647212838  0.9365956983182924  1.0000
  H   H6        1.0  0.34569008425724956  0.100616969524701  0.43659762100082117  1.0000
  H   H7        1.0  0.8457055599266354  0.1006081904504939  0.0633998154224784  1.0000
  H   H8        1.0  0.6543117652542564  0.8993849383632124  0.5634023789991784  1.0000
  H   H9        1.0  0.32789256012862467  0.0755175963573436  0.8690691652994289  1.0000
  H   H10       1.0  0.17209982326438933  0.9244862624359556  0.3690710879819505  1.0000
  H   H11       1.0  0.6721122490864104  0.9244804097198127  0.13092506665299194  1.0000
  H   H12       1.0  0.8278988862559231  0.0755175963573436  0.630929552912221  1.0000
  H   H13       1.0  0.0761410758411358  0.3537254826303169  0.649039299630843  1.0000
  H   H14       1.0  0.42385112726422147  0.6462764252576036  0.14904122231337164  1.0000
  H   H15       1.0  0.9238599623759073  0.6462676461833894  0.3509626230516787  1.0000
  H   H16       1.0  0.5761404008354064  0.3537215808195526  0.8509626230516785  1.0000
  H   H17       1.0  0.1317570057867243  0.3960035531219289  0.7552655865463507  1.0000
  H   H18       1.0  0.36823989478858726  0.6040012811240558  0.2552687910172295  1.0000
  H   H19       1.0  0.8682422696302226  0.6039944529552272  0.2447350543478279  1.0000
  H   H20       1.0  0.6317584541564046  0.3959986758584789  0.7447363361361781  1.0000
  H   H21       1.0  0.8798978436056047  0.46667705142054666  0.5775629358080394  1.0000
  H   H22       1.0  0.6200964850211507  0.5333307091835096  0.0775629358080394  1.0000
  H   H23       1.0  0.1200966441975595  0.5333170528458524  0.4224377050861392  1.0000
  H   H24       1.0  0.3799025850744826  0.46667705142054666  0.9224396277686608  1.0000
  H   H25       1.0  0.7135742449973251  0.6503245539212585  0.5823177296964701  1.0000
  H   H26       1.0  0.7864175996787068  0.3496802803247263  0.08231708880229857  1.0000
  H   H27       1.0  0.2864249402757935  0.3496724767032049  0.4176809885151798  1.0000
  H   H28       1.0  0.213582487032717  0.6503265048266371  0.9176841929860515  1.0000
  H   H29       1.0  0.6830332894327283  0.7665555946553937  0.721963443396227  1.0000
  H   H30       1.0  0.8169677698955624  0.23345314140134832  0.22196344339622695  1.0000
  H   H31       1.0  0.31697188035762736  0.2334463132325197  0.2780333521328941  1.0000
  H   H32       1.0  0.183033333431645  0.7665526682973223  0.7780371974979516  1.0000
  H   H33       1.0  0.9612558860402417  0.5290991954141262  0.8478203189089442  1.0000
  H   H34       1.0  0.5387419431530205  0.47091051609530876  0.3478216006972943  1.0000
  H   H35       1.0  0.03874725051854  0.4709046633791658  0.1521777584085342  1.0000
  H   H36       1.0  0.46125658607963527  0.5290913917926119  0.6521796810910556  1.0000
  H   H37       1.0  0.8390497077173009  0.2432603427469928  0.7353824856439672  1.0000
  H   H38       1.0  0.6609478510444831  0.7567464424043777  0.23538248564396713  1.0000
  H   H39       1.0  0.160949747987317  0.756739614235542  0.2646213597210831  1.0000
  H   H40       1.0  0.33904921085323997  0.2432515636727786  0.7646181552502043  1.0000
  C   C1        1.0  0.9152515833044745  0.0594157988028883  0.8295766253076309  1.0000
  C   C2        1.0  0.5847425650346239  0.9405900108957895  0.3295753435192807  1.0000
  C   C3        1.0  0.0847520290071202  0.9405812318215752  0.17042465648071917  1.0000
  C   C4        1.0  0.41525680052615854  0.0594089706340597  0.6704252973748976  1.0000
  C   C5        1.0  0.114776767146374  0.9736539552773067  0.8945177912223128  1.0000
  C   C6        1.0  0.3852168131500875  0.026350878968678198  0.39451907301066297  1.0000
  C   C7        1.0  0.8852287882529595  0.0263401489890924  0.10547836341263657  1.0000
  C   C8        1.0  0.6147828228421802  0.9736510289192354  0.6054809269893366  1.0000
  C   C9        1.0  0.20815050237515462  0.0717143063188814  0.8578829983593081  1.0000
  C   C10       1.0  0.2918427173459861  0.9282866261163392  0.3578842801476654  1.0000
  C   C11       1.0  0.791854216696052  0.928282724305582  0.142113797169813  1.0000
  C   C12       1.0  0.7081545248393866  0.0717133308661957  0.6421157198523344  1.0000
  C   C13       1.0  0.0115456114283319  0.1625894298281807  0.7941255639868743  1.0000
  C   C14       1.0  0.4884480590119651  0.837416379870497  0.2941255639868743  1.0000
  C   C15       1.0  0.9884569842674721  0.8374085762489756  0.2058731542247756  1.0000
  C   C16       1.0  0.5115482567014595  0.1625855280174164  0.7058750769073043  1.0000
  C   C17       1.0  0.0345329134230283  0.3721381276074638  0.7141855516817088  1.0000
  C   C18       1.0  0.4654596502576496  0.6278676820912068  0.2141855516817088  1.0000
  C   C19       1.0  0.9654663619939257  0.6278598784696925  0.2858150892124698  1.0000
  C   C20       1.0  0.5345354685523276  0.3721332503440138  0.7858176527891698  1.0000
  C   C21       1.0  0.9366029523171167  0.4843571314274797  0.7120039479081228  1.0000
  C   C22       1.0  0.5633912861658105  0.5156496537238908  0.21200458880229425  1.0000
  C   C23       1.0  0.0633972495717927  0.515638923744298  0.287994770303527  1.0000
  C   C24       1.0  0.4366050295476144  0.4843522541640297  0.7879979747744059  1.0000
  C   C25       1.0  0.864997361411561  0.5197182668940385  0.63713981747334  1.0000
  C   C26       1.0  0.6349970573590227  0.4802904691627106  0.1371410992616902  1.0000
  C   C27       1.0  0.1350027503335198  0.48027681282505347  0.3628589007383097  1.0000
  C   C28       1.0  0.36500302935239404  0.5197163159886529  0.8628621052091885  1.0000
  C   C29       1.0  0.7725867029147154  0.6218452371829173  0.6393329573420843  1.0000
  C   C30       1.0  0.7274085521840022  0.3781605725157604  0.13933167555373416  1.0000
  C   C31       1.0  0.2274156223496036  0.3781498425361676  0.3606638381870368  1.0000
  C   C32       1.0  0.2725902474801387  0.6218442617302244  0.8606696062346157  1.0000
  C   C33       1.0  0.7541563544944623  0.6860319750927815  0.7166254358080408  1.0000
  C   C34       1.0  0.7458319896150627  0.3139709082478248  0.2166247949138622  1.0000
  C   C35       1.0  0.2458440276821108  0.3139660309843748  0.2833720006152589  1.0000
  C   C36       1.0  0.2541667199052497  0.6860329505454672  0.7833752050861378  1.0000
  C   C37       1.0  0.9099795655712061  0.553577205217934  0.787030224569321  1.0000
  C   C38       1.0  0.5900193703816825  0.4464325062915009  0.2870289427809708  1.0000
  C   C39       1.0  0.0900233005560906  0.4464237272172937  0.2129678527481573  1.0000
  C   C40       1.0  0.4099803557544205  0.5535703770491054  0.7129723390073863  1.0000
  Br  Br1       1.0  0.5552400634525371  0.8908565554942172  0.8871148226004946  1.0000
  Br  Br2       1.0  0.944757044590098  0.10914535239370339  0.3871205906480739  1.0000
  Br  Br3       1.0  0.4447496117031804  0.10914535239370339  0.1128845365053337  1.0000
  Br  Br4       1.0  0.05524130435490089  0.8908546045888315  0.6128851773995052  1.0000
  Br  Br5       1.0  0.958113936759908  0.6645768931754006  0.0174361669401151  1.0000
  Br  Br6       1.0  0.5418782033812732  0.3354191619963771  0.5174368078342937  1.0000
  Br  Br7       1.0  0.0418890195112169  0.3354250147125128  0.9825535787530768  1.0000
  Br  Br8       1.0  0.4581179320444875  0.6645807949861577  0.4825657557424137  1.0000
  N   N1        1.0  0.9675031738172493  0.9682909163874811  0.8777366181296173  1.0000
  N   N2        1.0  0.5324900480498869  0.0317168442165752  0.3777372590237889  1.0000
  N   N3        1.0  0.0325005286381739  0.0317070896896752  0.1222608182936824  1.0000
  N   N4        1.0  0.4675085713265971  0.9682860391240311  0.6222633818703827  1.0000
  N   N5        1.0  0.1595207855024228  0.1644730289726439  0.8066563269073015  1.0000
  N   N6        1.0  0.3404738114098294  0.8355308298206553  0.3066595313781804  1.0000
  N   N7        1.0  0.8404827366653365  0.8355230261991337  0.1933411095159983  1.0000
  N   N8        1.0  0.6595235209193788  0.1644701026145725  0.6933423913043483  1.0000
  N   N9        1.0  0.9516166732271788  0.2571839544445922  0.7489809782608672  1.0000
  N   N10       1.0  0.548376368352301  0.7428218552540855  0.24897969647251725  1.0000
  N   N11       1.0  0.048381675717820406  0.7428160025379498  0.2510222262100115  1.0000
  N   N12       1.0  0.45161976707345997  0.2571781017284493  0.7510215853158329  1.0000
  N   N13       1.0  0.8215522381988835  0.6520764669525647  0.7891227440524986  1.0000
  N   N14       1.0  0.678448730985579  0.3479312936514916  0.2891227440524985  1.0000
  N   N15       1.0  0.17845284144764412  0.347924465482663  0.21087469237079395  1.0000
  N   N16       1.0  0.3215522821977999  0.6520735405944933  0.7108785377358515  1.0000
