data_image0
_chemical_formula_structural       CdNiH16C12N6
_chemical_formula_sum              "Cd1 Ni1 H16 C12 N6"
_cell_length_a       7.004978489581821
_cell_length_b       7.748737392007258
_cell_length_c       10.857324494540006
_cell_angle_alpha    89.99987436110405
_cell_angle_beta     104.74097690450078
_cell_angle_gamma    90.00012333665656

_space_group_name_H-M_alt    "P 1"
_space_group_IT_number       1

loop_
  _space_group_symop_operation_xyz
  'x, y, z'

loop_
  _atom_site_type_symbol
  _atom_site_label
  _atom_site_symmetry_multiplicity
  _atom_site_fract_x
  _atom_site_fract_y
  _atom_site_fract_z
  _atom_site_occupancy
  Cd  Cd1       1.0  0.999999343610966  9.746071682999997e-07  1.6786696477168034e-06  1.0000
  Ni  Ni1       1.0  0.4999971725404677  0.5000019461193118  9.372079433014989e-07  1.0000
  H   H1        1.0  0.8176245263123929  0.8946563754118201  0.7426954548125905  1.0000
  H   H2        1.0  0.5459779438943924  0.8868133893153425  0.8422309958851812  1.0000
  H   H3        1.0  0.451723247624983  0.8858289911345522  0.6019009820433964  1.0000
  H   H4        1.0  0.19422033093967167  0.8869422768058112  0.727311812708308  1.0000
  H   H5        1.0  0.18237829282148244  0.8946565040412577  0.2573058863671136  1.0000
  H   H6        1.0  0.4540234025736964  0.8868143541150956  0.1577691834861028  1.0000
  H   H7        1.0  0.5482795730174244  0.8858281086646186  0.39809945219351306  1.0000
  H   H8        1.0  0.8057810520460649  0.8869422826607759  0.2726865305221864  1.0000
  H   H9        1.0  0.18237754939543288  0.10534339525968758  0.2573063802416513  1.0000
  H   H10       1.0  0.45402269206001467  0.11318767189082019  0.15776874955557219  1.0000
  H   H11       1.0  0.5482788643598224  0.11417207007265517  0.39809901702994205  1.0000
  H   H12       1.0  0.8057803412892851  0.11305749387037879  0.2726860967531479  1.0000
  H   H13       1.0  0.8176237828863505  0.10534326663024979  0.7426959486871354  1.0000
  H   H14       1.0  0.5459772333807179  0.11318670709106018  0.8422305619546436  1.0000
  H   H15       1.0  0.4517240149965643  0.11417166201080417  0.6019008005132207  1.0000
  H   H16       1.0  0.1942210962132832  0.11305748801646587  0.7273116325718547  1.0000
  C   C1        1.0  0.6913455215106763  0.6678268382299136  0.03587736678196758  1.0000
  C   C2        1.0  0.3086450620988971  0.6678314879406171  0.9641222291894634  1.0000
  C   C3        1.0  0.30863434117878086  0.3321613176246812  0.9641243357509452  1.0000
  C   C4        1.0  0.6913511094849268  0.3321657016610402  0.03587859133605059  1.0000
  C   C5        1.0  0.5723861300769926  0.9999996803027996  0.7881301603975572  1.0000
  C   C6        1.0  0.4278757680370475  6.960993416999995e-07  0.6565658714443003  1.0000
  C   C7        1.0  0.21434236861377795  4.6698960429999956e-07  0.6701963439052818  1.0000
  C   C8        1.0  0.06363022297785649  5.053348318000002e-07  0.5499563166551765  1.0000
  C   C9        1.0  0.42761304798369076  9.037091789999998e-08  0.21186841342136378  1.0000
  C   C10       1.0  0.5721283904194223  2.8539979299999965e-08  0.3434334246159949  1.0000
  C   C11       1.0  0.7856603319501827  2.576501003999998e-07  0.3298017805323851  1.0000
  C   C12       1.0  0.9363724957239864  2.1930630819999964e-07  0.45004088979244017  1.0000
  N   N1        1.0  0.8106213227764413  0.7775518933836522  0.05791488182338605  1.0000
  N   N2        1.0  0.18938127576112143  0.7775486353092802  0.942086605903377  1.0000
  N   N3        1.0  0.18938809681975496  0.22246078261854044  0.9420900573658173  1.0000
  N   N4        1.0  0.8106090098438654  0.22245371642094364  0.057912282098506296  1.0000
  N   N5        1.0  0.7837420132364341  2.1281553585999995e-06  0.7898385426929195  1.0000
  N   N6        1.0  0.21626061477721945  0.999999887011448  0.2101632537041382  1.0000
