data_image0
_chemical_formula_structural       Zr6H36C60O32
_chemical_formula_sum              "Zr6 H36 C60 O32"
_cell_length_a       17.42507686593846
_cell_length_b       17.407872050120215
_cell_length_c       18.432561032743628
_cell_angle_alpha    90.17810574502656
_cell_angle_beta     90.15854538399554
_cell_angle_gamma    109.52842515649758

_space_group_name_H-M_alt    "P 1"
_space_group_IT_number       1

loop_
  _space_group_symop_operation_xyz
  'x, y, z'

loop_
  _atom_site_type_symbol
  _atom_site_label
  _atom_site_symmetry_multiplicity
  _atom_site_fract_x
  _atom_site_fract_y
  _atom_site_fract_z
  _atom_site_occupancy
  Zr  Zr1       1.0  0.8954947314766527  0.8829732596787208  0.9093466540884523  1.0000
  Zr  Zr2       1.0  0.9078875010453802  0.8938296036409454  0.1029711722495534  1.0000
  Zr  Zr3       1.0  0.0728963823224547  0.058767844583122994  0.8981846939356687  1.0000
  Zr  Zr4       1.0  0.0829719977602608  0.0714546333144668  0.0911254816551406  1.0000
  Zr  Zr5       1.0  0.9022246061385033  0.06488018986136268  7.88555967830005e-05  1.0000
  Zr  Zr6       1.0  0.07740011083200217  0.8884956608673491  0.0004032292689685995  1.0000
  H   H1        1.0  0.9153783084625999  0.7667553835222309  0.0060301552164717005  1.0000
  H   H2        1.0  0.9283553345894333  0.05300642004944929  0.1534589312531267  1.0000
  H   H3        1.0  0.19936983412765844  0.050593682694106704  0.9953097355141198  1.0000
  H   H4        1.0  0.9172024786787177  0.041543002424617684  0.8469368246172382  1.0000
  H   H5        1.0  0.8875004218705271  0.9268043137508569  0.24466806387320622  1.0000
  H   H6        1.0  0.007099842919494508  0.993100163683309  0.21940917198193688  1.0000
  H   H7        1.0  0.18781865540953652  0.22216663753000893  0.08438107716863641  1.0000
  H   H8        1.0  0.18796791572458457  0.17806271002002916  0.9814009715872488  1.0000
  H   H9        1.0  0.0874571542494422  0.0243765929451953  0.7599301809488568  1.0000
  H   H10       1.0  0.9712474916690539  0.9580642771588044  0.7811176817664888  1.0000
  H   H11       1.0  0.7426548878977856  0.7819180570021443  0.9180502774554143  1.0000
  H   H12       1.0  0.7875226345607372  0.7805643810834508  0.0193394390186015  1.0000
  H   H13       1.0  0.1684858469219606  0.21786934180997258  0.9057678343733429  1.0000
  H   H14       1.0  0.873739691752192  0.9146776072145711  0.7610665160523808  1.0000
  H   H15       1.0  0.7477944818252524  0.7982676507778662  0.09618713825408781  1.0000
  H   H16       1.0  0.1059466025684799  0.030281335966954297  0.229997327479829  1.0000
  H   H17       1.0  0.9923066904593014  0.601116707168991  0.6675278078433493  1.0000
  H   H18       1.0  0.9894170166203935  0.352252351473652  0.6688664026604343  1.0000
  H   H19       1.0  0.9903044479845917  0.47859313220877187  0.870653506603567  1.0000
  H   H20       1.0  0.9956731298579842  0.6028585952531954  0.3359135015962949  1.0000
  H   H21       1.0  0.9922794377729715  0.35384530779607104  0.33066764586383374  1.0000
  H   H22       1.0  0.9972297868911967  0.4837553488609385  0.130929008867362  1.0000
  H   H23       1.0  0.4827279413669388  0.97007083044803  0.8696066729234532  1.0000
  H   H24       1.0  0.6101319289978875  0.9675411571219711  0.6697371949887982  1.0000
  H   H25       1.0  0.3640320662649188  0.9716760078565088  0.6644142455121129  1.0000
  H   H26       1.0  0.4878815492573948  0.9754118939012668  0.13031234167864622  1.0000
  H   H27       1.0  0.6126910367351854  0.9705065294624687  0.3317519513897694  1.0000
  H   H28       1.0  0.36557066740915894  0.9718081156204191  0.3338747135063188  1.0000
  H   H29       1.0  0.36390524981848665  0.8907937377951852  0.43202107141123497  1.0000
  H   H30       1.0  0.6144792450994957  0.0480722581383262  0.4343290518966542  1.0000
  H   H31       1.0  0.6137122443562433  0.047660827530272294  0.5679682529908519  1.0000
  H   H32       1.0  0.36313931919627146  0.8904279741618308  0.5655930802619267  1.0000
  H   H33       1.0  0.9172427194223404  0.5532744767770126  0.43368158982855226  1.0000
  H   H34       1.0  0.06682203700014357  0.3997953751825633  0.434394309447825  1.0000
  H   H35       1.0  0.06571552100719198  0.39934340356570164  0.5677676639296865  1.0000
  H   H36       1.0  0.9161439982357891  0.5528204458567956  0.5669681487687654  1.0000
  C   C1        1.0  0.758081054626075  0.9711096060143162  0.8845362379004272  1.0000
  C   C2        1.0  0.999051927412772  0.7594158859769918  0.12733421419553542  1.0000
  C   C3        1.0  0.7653223607837774  0.9800366804949618  0.12089898942479492  1.0000
  C   C4        1.0  0.9910885996786972  0.7528092983194198  0.8800752109899221  1.0000
  C   C5        1.0  0.20673954318328208  0.9677712565039442  0.8720867361997906  1.0000
  C   C6        1.0  0.9961436606106844  0.20965211530319994  0.1136703732904536  1.0000
  C   C7        1.0  0.2133202308113127  0.9739067780772429  0.1221721933743467  1.0000
  C   C8        1.0  0.9880930934157207  0.2022333363318651  0.8805712339061885  1.0000
  C   C9        1.0  0.9907316849278871  0.5474546804104462  0.7728360033737688  1.0000
  C   C10       1.0  0.9906425896705642  0.5461196143345433  0.6964907717640119  1.0000
  C   C11       1.0  0.9907562868707488  0.4765440762442239  0.6580317955470962  1.0000
  C   C12       1.0  0.9908054907108622  0.40768372159534755  0.6972812006696147  1.0000
  C   C13       1.0  0.9903933932468832  0.40783830575295343  0.773678478093089  1.0000
  C   C14       1.0  0.9904364687189471  0.47799261569414847  0.8115891026505866  1.0000
  C   C15       1.0  0.9961699031853755  0.5511196370440955  0.22972618761846064  1.0000
  C   C16       1.0  0.9945272772514357  0.548377371382294  0.3060206931104759  1.0000
  C   C17       1.0  0.9936441385100494  0.47807144801350887  0.3433940425736992  1.0000
  C   C18       1.0  0.9943376287474238  0.4098066272484075  0.3031000953821845  1.0000
  C   C19       1.0  0.9953951263820002  0.4113466263662246  0.22669797760593008  1.0000
  C   C20       1.0  0.9963421939239296  0.48223733537611213  0.18993606102795724  1.0000
  C   C21       1.0  0.41498046026096347  0.969401301740454  0.770706222456738  1.0000
  C   C22       1.0  0.4839907474644605  0.9699305097537876  0.8105810248277409  1.0000
  C   C23       1.0  0.5546629161313845  0.9702717214893607  0.7738345884876453  1.0000
  C   C24       1.0  0.555597182955843  0.9694358071144932  0.6974276603410134  1.0000
  C   C25       1.0  0.48724968443553257  0.9694439099411127  0.6571136612738473  1.0000
  C   C26       1.0  0.4173838448357258  0.9698359157617912  0.6943817028170542  1.0000
  C   C27       1.0  0.4183326835310126  0.9720211005768961  0.2282827982787907  1.0000
  C   C28       1.0  0.48820194647206694  0.9740811619409869  0.18935724738052784  1.0000
  C   C29       1.0  0.5585322515537215  0.9745732063363023  0.22709254583519822  1.0000
  C   C30       1.0  0.5582961879889368  0.9722412048177699  0.30345920862144743  1.0000
  C   C31       1.0  0.48909893871237387  0.9707726927296605  0.3428093604908612  1.0000
  C   C32       1.0  0.4195240456406921  0.9710029896600361  0.3046000524818666  1.0000
  C   C33       1.0  0.4186554206597036  0.9262636218549287  0.46160394851116865  1.0000
  C   C34       1.0  0.4892430160807066  0.9695284801412568  0.42300428715659427  1.0000
  C   C35       1.0  0.5595089325489299  0.012171128831788296  0.4628945305869154  1.0000
  C   C36       1.0  0.5590814128768358  0.011930582008815799  0.5383807577149113  1.0000
  C   C37       1.0  0.4883654400964517  0.9690523547155364  0.576933449205697  1.0000
  C   C38       1.0  0.4182219103140028  0.9260529442512534  0.5370419342903716  1.0000
  C   C39       1.0  0.9509544111201933  0.5202178097101252  0.4627833026607036  1.0000
  C   C40       1.0  0.9922155543869238  0.4766491143205513  0.4236162556778424  1.0000
  C   C41       1.0  0.03249358813175008  0.4325045710966008  0.46315462262798235  1.0000
  C   C42       1.0  0.03185684741936261  0.43224949664747203  0.5386551740477188  1.0000
  C   C43       1.0  0.990913827534456  0.4761059542678153  0.5778018509505288  1.0000
  C   C44       1.0  0.9503247027514876  0.5199583040858258  0.5382296045367526  1.0000
  C   C45       1.0  0.9954511952590507  0.3414734663798029  0.18679042191877226  1.0000
  C   C46       1.0  0.9958664062860832  0.281758586179265  0.1523786937036746  1.0000
  C   C47       1.0  0.997972204043066  0.6236301422357257  0.19377663588036143  1.0000
  C   C48       1.0  0.9993249471383409  0.6864915383441357  0.16417412069657902  1.0000
  C   C49       1.0  0.9896133598578061  0.33698391808740524  0.8119917590313862  1.0000
  C   C50       1.0  0.9890635823961845  0.27576757371932803  0.8441405003292672  1.0000
  C   C51       1.0  0.9918454370834199  0.6808386930168521  0.8414871635908912  1.0000
  C   C52       1.0  0.9914051165898389  0.6190197261658169  0.8101868222892961  1.0000
  C   C53       1.0  0.2850460802442639  0.9724636992480881  0.1606135970195339  1.0000
  C   C54       1.0  0.34690228858266886  0.9721618242146448  0.1913060037694336  1.0000
  C   C55       1.0  0.6297254489528399  0.9767170851383041  0.1887468128328535  1.0000
  C   C56       1.0  0.6914715743706665  0.9787341516799016  0.15682002738607545  1.0000
  C   C57       1.0  0.27985832420377227  0.9680666703010489  0.83545221803967  1.0000
  C   C58       1.0  0.34281897615595375  0.9689287408180578  0.8064157214765189  1.0000
  C   C59       1.0  0.6248158162456505  0.970523526550437  0.8133177603314155  1.0000
  C   C60       1.0  0.6854104879241375  0.9708989866461123  0.8466472623928925  1.0000
  O   O1        1.0  0.7853202639937181  0.9133621465063441  0.8680248537621581  1.0000
  O   O2        1.0  0.7889576236207247  0.028498640907670795  0.9297871991502477  1.0000
  O   O3        1.0  0.9440153773272825  0.7886604616926861  0.14542995191855113  1.0000
  O   O4        1.0  0.05378021474758296  0.787171689497775  0.0789997598361012  1.0000
  O   O5        1.0  0.7935810917680114  0.923540041587074  0.1385390216151521  1.0000
  O   O6        1.0  0.7961332077181141  0.03730199165671169  0.07588687268361842  1.0000
  O   O7        1.0  0.9343826659197915  0.7806022974100985  0.8641978327554939  1.0000
  O   O8        1.0  0.04723542961844633  0.7811308013510257  0.927559214644063  1.0000
  O   O9        1.0  0.7932645106790589  0.7821164523079958  0.9405229657017602  1.0000
  O   O10       1.0  0.9183900070854136  0.9053550166527771  0.7870976398818217  1.0000
  O   O11       1.0  0.794479924079738  0.7860804997001267  0.0769305019151645  1.0000
  O   O12       1.0  0.9311552051179889  0.9211706492119661  0.21485987222627054  1.0000
  O   O13       1.0  0.8797981565812661  0.9412236667867332  0.0042253115657687  1.0000
  O   O14       1.0  0.9366456098650886  0.8259173375473098  0.005338323895365701  1.0000
  O   O15       1.0  0.1757161295463376  0.021368056518511494  0.852256544734324  1.0000
  O   O16       1.0  0.1804528353977801  0.9146933524303619  0.9216140617759052  1.0000
  O   O17       1.0  0.0550089906447582  0.1836920598474876  0.12795480543847762  1.0000
  O   O18       1.0  0.9374367680582907  0.1778865969814518  0.069638761773092  1.0000
  O   O19       1.0  0.1834883438423347  0.028736717045134696  0.14092384780975925  1.0000
  O   O20       1.0  0.18704576418553395  0.9207950105168338  0.0721552829927674  1.0000
  O   O21       1.0  0.0459858000120477  0.1752787849062898  0.8655212464848747  1.0000
  O   O22       1.0  0.929048259053701  0.1702104619580638  0.9237953670454785  1.0000
  O   O23       1.0  0.18227901595852813  0.17164944068993288  0.9242186917220324  1.0000
  O   O24       1.0  0.04250113314016351  0.032114015997052506  0.7866607971178894  1.0000
  O   O25       1.0  0.18662695183363812  0.17127303803840016  0.0616626924805246  1.0000
  O   O26       1.0  0.059741749644551596  0.0449469380449372  0.2126958150702194  1.0000
  O   O27       1.0  0.14024339007771403  0.029531093350321697  0.9954809182862193  1.0000
  O   O28       1.0  0.025511122022677996  0.0867095484981064  0.9964035127517904  1.0000
  O   O29       1.0  0.022526678658010706  0.9357748320573903  0.9210586895607733  1.0000
  O   O30       1.0  0.9461087916045303  0.032655227576284994  0.1098290315836934  1.0000
  O   O31       1.0  0.9360025448479232  0.02189775668585269  0.8903905291151659  1.0000
  O   O32       1.0  0.030164234096744666  0.943332220870147  0.0802853068149574  1.0000
