data_image0
_chemical_formula_structural       Zn3H68C82N6O20
_chemical_formula_sum              "Zn3 H68 C82 N6 O20"
_cell_length_a       9.509306876144002
_cell_length_b       17.121152367745832
_cell_length_c       19.606932829687246
_cell_angle_alpha    114.49466526829428
_cell_angle_beta     89.99964807283897
_cell_angle_gamma    89.99966797446203

_space_group_name_H-M_alt    "P 1"
_space_group_IT_number       1

loop_
  _space_group_symop_operation_xyz
  'x, y, z'

loop_
  _atom_site_type_symbol
  _atom_site_label
  _atom_site_symmetry_multiplicity
  _atom_site_fract_x
  _atom_site_fract_y
  _atom_site_fract_z
  _atom_site_occupancy
  Zn  Zn1       1.0  0.1619297693506994  0.9999984273604526  0.9999993752810925  1.0000
  Zn  Zn2       1.0  0.4953025326462139  0.22828515516094683  0.08125172480211522  1.0000
  Zn  Zn3       1.0  0.4953038271356648  0.7717206001800959  0.9187521027248808  1.0000
  H   H1        1.0  0.9258449476396748  0.10036604698225202  0.021578604099509804  1.0000
  H   H2        1.0  0.9258504596719987  0.899633449143785  0.9784216987989185  1.0000
  H   H3        1.0  0.0664778833070514  0.15636443302555142  0.06054591952010921  1.0000
  H   H4        1.0  0.06648026872841231  0.8436334124242323  0.9394497201798944  1.0000
  H   H5        1.0  0.4067814086937602  0.0183189224733624  0.16230531184137936  1.0000
  H   H6        1.0  0.406780501777277  0.9816808705041353  0.8376900124832077  1.0000
  H   H7        1.0  0.2857381795184822  0.10302889985388218  0.21211056029349618  1.0000
  H   H8        1.0  0.285738789311857  0.8969696627641854  0.7878877437405623  1.0000
  H   H9        1.0  0.32673918348722  0.853416374558876  0.07624453999428478  1.0000
  H   H10       1.0  0.32673745263159043  0.1465813259425559  0.9237548631507412  1.0000
  H   H11       1.0  0.25123035293887597  0.7380933849582406  0.11490233605912434  1.0000
  H   H12       1.0  0.2512226576743046  0.2619079651607875  0.8851016597861875  1.0000
  H   H13       1.0  0.8443217388069189  0.9697382451857378  0.28877640866189574  1.0000
  H   H14       1.0  0.8443218267296473  0.0302642652312386  0.7112236869343891  1.0000
  H   H15       1.0  0.1865434064882052  0.046641369688600796  0.3163805951726958  1.0000
  H   H16       1.0  0.18655106991844414  0.9533455620008768  0.6836153667817373  1.0000
  H   H17       1.0  0.714414121595844  0.1395923913559045  0.16444359636033573  1.0000
  H   H18       1.0  0.7144134518069194  0.8604127983231677  0.835562436291042  1.0000
  H   H19       1.0  0.7737648798767367  0.8560200255778908  0.32912973912083743  1.0000
  H   H20       1.0  0.7737706093608453  0.14398480798809027  0.6708719089793862  1.0000
  H   H21       1.0  0.0954837721059931  0.6884348237898765  0.18887738218867878  1.0000
  H   H22       1.0  0.09547334937519739  0.3115686992493282  0.8111309161302247  1.0000
  H   H23       1.0  0.5038328381733095  0.4288829822068436  0.12716209829503808  1.0000
  H   H24       1.0  0.5038410116081522  0.57112527463633  0.8728395399649361  1.0000
  H   H25       1.0  0.8320688051391797  0.2737235798892356  0.1458953478768947  1.0000
  H   H26       1.0  0.832079809974374  0.7262822323097068  0.8541100474849305  1.0000
  H   H27       1.0  0.25255734331221197  0.1702982160287831  0.4334147633161579  1.0000
  H   H28       1.0  0.2525541156669319  0.8296845135480525  0.5665825566190607  1.0000
  H   H29       1.0  0.9345465613259875  0.32575120434273697  0.3930508162293124  1.0000
  H   H30       1.0  0.9345391775496239  0.6742451033358278  0.6069600489975359  1.0000
  H   H31       1.0  0.7828372793592067  0.26311905606696223  0.281233734014343  1.0000
  H   H32       1.0  0.7828393848219123  0.7368844883255433  0.7187750755936123  1.0000
  H   H33       1.0  0.6295109760845891  0.015567962321497899  0.10180498030344863  1.0000
  H   H34       1.0  0.6295145264574344  0.9844325977465546  0.8982047465784222  1.0000
  H   H35       1.0  0.6598845310673483  0.9436190647667078  0.14537351118990932  1.0000
  H   H36       1.0  0.659868846603402  0.05637808917094131  0.854630314568887  1.0000
  H   H37       1.0  0.8984784907116462  0.7151906851833304  0.27916148371637217  1.0000
  H   H38       1.0  0.8984758080028  0.28481282407109626  0.7208418687112685  1.0000
  H   H39       1.0  0.0574789686748289  0.28928198460291554  0.9978419356869143  1.0000
  H   H40       1.0  0.0574799745253785  0.7107210428209426  0.0021550775391218436  1.0000
  H   H41       1.0  0.028462245768210402  0.37106561239897223  0.0892964478792209  1.0000
  H   H42       1.0  0.028460921863256803  0.6289305322657056  0.9107007357185851  1.0000
  H   H43       1.0  0.128056232116684  0.3106367821391344  0.47184524554806745  1.0000
  H   H44       1.0  0.1280486450341485  0.6893518086402964  0.5281596455054186  1.0000
  H   H45       1.0  0.7758964726095456  0.5813816557390226  0.2238765338538258  1.0000
  H   H46       1.0  0.7759064149287128  0.41862444050982367  0.7761240302393733  1.0000
  H   H47       1.0  0.6391225622781816  0.5635345829282913  0.15743107741528922  1.0000
  H   H48       1.0  0.6391272646768941  0.43647226631263447  0.8425681235975377  1.0000
  H   H49       1.0  0.8408828314893811  0.6117777177200736  0.1129053706308909  1.0000
  H   H50       1.0  0.8408748483633204  0.3882241821835136  0.8870965565795362  1.0000
  H   H51       1.0  0.9561975042736464  0.5403580052763957  0.12809562504147465  1.0000
  H   H52       1.0  0.9562005396721958  0.45963941669230485  0.8719074145014719  1.0000
  H   H53       1.0  0.9099462226665336  0.43117830327800283  0.013217649166804776  1.0000
  H   H54       1.0  0.9099445532426886  0.5688232012606279  0.9867824006568501  1.0000
  H   H55       1.0  0.7269075131846208  0.4450922285436931  0.022620293471426568  1.0000
  H   H56       1.0  0.7269061084531928  0.5549115895037888  0.9773821503368156  1.0000
  H   H57       1.0  0.17083548706785484  0.45460803408892764  0.17212914743443974  1.0000
  H   H58       1.0  0.170840295535065  0.5453975684272194  0.8278684509691561  1.0000
  H   H59       1.0  0.2906852625629668  0.5856501673851966  0.25824035911892207  1.0000
  H   H60       1.0  0.2906883265950099  0.41435349316005704  0.741758226739812  1.0000
  H   H61       1.0  0.48354829112249575  0.6200389383246686  0.004008914996624821  1.0000
  H   H62       1.0  0.4835432108949362  0.37995272631270893  0.995983778324906  1.0000
  H   H63       1.0  0.4406996089202906  0.7118914516919971  0.2796804499340126  1.0000
  H   H64       1.0  0.44069164060822164  0.28810430059793657  0.7203133255904179  1.0000
  H   H65       1.0  0.6077127918250014  0.7492899419302931  0.09082073520335134  1.0000
  H   H66       1.0  0.6077133186737883  0.2507023118466165  0.9091717995244298  1.0000
  H   H67       1.0  0.5875703455064142  0.7960884863169471  0.22908482804371744  1.0000
  H   H68       1.0  0.5875647106563662  0.20390643239303335  0.7709061713936622  1.0000
  C   C1        1.0  0.16625762482469503  0.9417098450075941  0.14254088734247006  1.0000
  C   C2        1.0  0.16625765838936246  0.058289391950033596  0.857459034109688  1.0000
  C   C3        1.0  0.3196255772155965  0.05730116768950919  0.15603373150455016  1.0000
  C   C4        1.0  0.3196281505725623  0.9426984830083358  0.8439638414448116  1.0000
  C   C5        1.0  0.3705357281539605  0.10634604674730502  0.11195771271588484  1.0000
  C   C6        1.0  0.3705393008848715  0.8936526743383126  0.8880388655348387  1.0000
  C   C7        1.0  0.0551208280044406  0.9597564774203421  0.19221194936327632  1.0000
  C   C8        1.0  0.0551174766990883  0.0402433872143604  0.8077895479491989  1.0000
  C   C9        1.0  0.23931716366504222  0.8629421998654506  0.11486367479594851  1.0000
  C   C10       1.0  0.239317076296949  0.1370547089741194  0.8851362150001524  1.0000
  C   C11       1.0  0.9822182278006579  0.044151146553623705  0.21870295429169326  1.0000
  C   C12       1.0  0.9822151543825015  0.9558506227056539  0.7813015654713883  1.0000
  C   C13       1.0  0.0114427531284562  0.8948966458122883  0.2157110828905432  1.0000
  C   C14       1.0  0.011440078581486502  0.10510346011645312  0.7842901208948094  1.0000
  C   C15       1.0  0.19749832129027567  0.7998225650739812  0.13673965882215808  1.0000
  C   C16       1.0  0.1974904952068997  0.20017908559260894  0.863264604691878  1.0000
  C   C17       1.0  0.022752126805670504  0.11472167861786178  0.2862980496441169  1.0000
  C   C18       1.0  0.022758011230422398  0.885278400208513  0.7137092310971414  1.0000
  C   C19       1.0  0.8724806860805288  0.05456628763359111  0.17658895720226306  1.0000
  C   C20       1.0  0.8724813900246388  0.9454348117635051  0.8234156492626852  1.0000
  C   C21       1.0  0.8986521321019012  0.9080564319191708  0.26682599961724657  1.0000
  C   C22       1.0  0.8986491950729559  0.09194706430473329  0.7331753075075726  1.0000
  C   C23       1.0  0.08360949941341289  0.8138473743557739  0.1872301097463733  1.0000
  C   C24       1.0  0.0836035151034409  0.18615426547529523  0.8127734689103651  1.0000
  C   C25       1.0  0.13216467620367917  0.10790125640528461  0.3329270313807698  1.0000
  C   C26       1.0  0.1321616203677536  0.8920911141289025  0.6670710412940368  1.0000
  C   C27       1.0  0.9497265900281421  0.1951118276271657  0.30915749495925854  1.0000
  C   C28       1.0  0.9497336024073704  0.8048875741089391  0.6908493333929828  1.0000
  C   C29       1.0  0.7993927865820183  0.13341104072743096  0.19909710985675846  1.0000
  C   C30       1.0  0.7993935462873907  0.8665930378228238  0.8009092917099994  1.0000
  C   C31       1.0  0.859442312433046  0.8445278094412245  0.2890756647006043  1.0000
  C   C32       1.0  0.8594411016455794  0.15547719880338923  0.7109278310250604  1.0000
  C   C33       1.0  0.03979155734355539  0.7496893835969516  0.21081751168109267  1.0000
  C   C34       1.0  0.0397799485802253  0.2503144388969504  0.789189019635437  1.0000
  C   C35       1.0  0.6052261931910933  0.4061430167602325  0.13699657175683913  1.0000
  C   C36       1.0  0.6052342555656551  0.593864678975038  0.8630055836273416  1.0000
  C   C37       1.0  0.7734259559143767  0.32895498390820427  0.14783394113353412  1.0000
  C   C38       1.0  0.7734386116324216  0.6710511502717084  0.8521707241367907  1.0000
  C   C39       1.0  0.2090332016228231  0.29069021461118183  0.078471720605549  1.0000
  C   C40       1.0  0.20903090352646814  0.7093080839739301  0.9215180467059627  1.0000
  C   C41       1.0  0.1687007372813412  0.177029363524511  0.3982646067790442  1.0000
  C   C42       1.0  0.1686992342906493  0.8229576921125529  0.6017355329591398  1.0000
  C   C43       1.0  0.990446956901884  0.26489970125668094  0.37646454556976766  1.0000
  C   C44       1.0  0.9904429349162739  0.735094988969131  0.6235420034603012  1.0000
  C   C45       1.0  0.8381698164110176  0.2019960426849394  0.26389581136723456  1.0000
  C   C46       1.0  0.8381763228254115  0.7980052727318637  0.7361130548812157  1.0000
  C   C47       1.0  0.6958915503336058  0.9621423207856735  0.10067253158583611  1.0000
  C   C48       1.0  0.6958870557533315  0.03785783785880881  0.8993317535423135  1.0000
  C   C49       1.0  0.9303145298070562  0.7646622315330945  0.2608275633860231  1.0000
  C   C50       1.0  0.9303100245719094  0.23534110266827926  0.7391761415631921  1.0000
  C   C51       1.0  0.10951486070365493  0.33804640375927875  0.04717758808869381  1.0000
  C   C52       1.0  0.10951581065622662  0.6619563175298424  0.9528166103704196  1.0000
  C   C53       1.0  0.09782330440708618  0.2564083678010434  0.42024708322851023  1.0000
  C   C54       1.0  0.09781659801570441  0.7435810218534586  0.5797561439664067  1.0000
  C   C55       1.0  0.6727613966117119  0.8877825418938985  0.024980111335423803  1.0000
  C   C56       1.0  0.6727562142492829  0.1122209311662203  0.9750213500187004  1.0000
  C   C57       1.0  0.7429104180872129  0.5412838205617801  0.16616066079630087  1.0000
  C   C58       1.0  0.7429160520170583  0.4587211795572301  0.8338401187877411  1.0000
  C   C59       1.0  0.8491992572278662  0.5462049059291942  0.1095886717220864  1.0000
  C   C60       1.0  0.8492000140684652  0.453796953462458  0.8904142362571721  1.0000
  C   C61       1.0  0.24310737938458266  0.4655601207508369  0.0708577129967978  1.0000
  C   C62       1.0  0.2431099579699918  0.5344386622248081  0.9291377367418152  1.0000
  C   C63       1.0  0.8267021606299566  0.47994975386921374  0.02836944629461159  1.0000
  C   C64       1.0  0.8266990886823252  0.5200509416768782  0.9716320915942662  1.0000
  C   C65       1.0  0.23277160171468128  0.49194968697022284  0.1495845709849561  1.0000
  C   C66       1.0  0.23277545936635147  0.5080523690008717  0.8504131023351394  1.0000
  C   C67       1.0  0.3214232283486567  0.5132259246431304  0.04121250262018355  1.0000
  C   C68       1.0  0.3214238212918588  0.48677050986376  0.9587844226113236  1.0000
  C   C69       1.0  0.29991565822695776  0.5654677389342951  0.19780402414562562  1.0000
  C   C70       1.0  0.2999145863851709  0.4345294366049899  0.8021896604390764  1.0000
  C   C71       1.0  0.3934424911308909  0.5884097860286913  0.09083467333094572  1.0000
  C   C72       1.0  0.3934381898103112  0.41158237657839436  0.9091574466352769  1.0000
  C   C73       1.0  0.3818174397073548  0.6156204320971242  0.17053662463092686  1.0000
  C   C74       1.0  0.38181549006864657  0.38437179552747847  0.8294555532401237  1.0000
  C   C75       1.0  0.4775946958722697  0.6385505241310766  0.06414748041560604  1.0000
  C   C76       1.0  0.4775863692045661  0.3614405259552171  0.9358439903774073  1.0000
  C   C77       1.0  0.45227192206825617  0.6914057202960252  0.2192930336269825  1.0000
  C   C78       1.0  0.45226822811573447  0.30858803874400553  0.780699483202824  1.0000
  C   C79       1.0  0.546461276831856  0.7111226173754235  0.11291441415192338  1.0000
  C   C80       1.0  0.5464595853720553  0.28887060878600584  0.8870766112454054  1.0000
  C   C81       1.0  0.5334775655309444  0.7381866001023456  0.1913137344999073  1.0000
  C   C82       1.0  0.5334771559811884  0.2618079944017282  0.8086798599625242  1.0000
  N   N1        1.0  0.6342350803704448  0.3263370347481852  0.1293633399146614  1.0000
  N   N2        1.0  0.6342464215563979  0.6736717884108429  0.8706401531225155  1.0000
  N   N3        1.0  0.7221049847196497  0.453807086916477  0.1591915914401838  1.0000
  N   N4        1.0  0.7221138261253727  0.5462006059377488  0.8408117450097097  1.0000
  N   N5        1.0  0.8305789186261947  0.4058510880779452  0.16654830892441203  1.0000
  N   N6        1.0  0.8305894582558083  0.5941547234109167  0.8334555605316684  1.0000
  O   O1        1.0  0.20503521568446104  0.0031878050483058005  0.11629939839851744  1.0000
  O   O2        1.0  0.2050388223009421  0.9968131254178728  0.8836984642508698  1.0000
  O   O3        1.0  0.3224811983745539  0.0896224847294391  0.04763705989197581  1.0000
  O   O4        1.0  0.322480621598352  0.9103739378330359  0.9523588378528985  1.0000
  O   O5        1.0  0.030357995074439308  0.09868304666559169  0.0268305053259681  1.0000
  O   O6        1.0  0.030363556625211195  0.901313750312312  0.9731704765536906  1.0000
  O   O7        1.0  0.4638332940955578  0.16400323164847214  0.14431177241474566  1.0000
  O   O8        1.0  0.4638399826462489  0.8359962542511495  0.8556853121229936  1.0000
  O   O9        1.0  0.3412394913345125  0.2987382291431047  0.06894722620327802  1.0000
  O   O10       1.0  0.341237155379595  0.701265112464995  0.9310449745155228  1.0000
  O   O11       1.0  0.5568348101392004  0.15266472808285408  0.9783974173833844  1.0000
  O   O12       1.0  0.556841507893175  0.8473393903580873  0.021604110324737684  1.0000
  O   O13       1.0  0.8405475450371185  0.9854414065850462  0.11060377524532328  1.0000
  O   O14       1.0  0.8405455227512847  0.014563689258722  0.8893967479497749  1.0000
  O   O15       1.0  0.1532899368662584  0.24823334476916872  0.10996546680303253  1.0000
  O   O16       1.0  0.15328234103677832  0.7517588352548472  0.8900202340159995  1.0000
  O   O17       1.0  0.1755290112286119  0.39497059019071656  0.020295378175596564  1.0000
  O   O18       1.0  0.1755365198999428  0.60503369034236  0.9796996924509005  1.0000
  O   O19       1.0  0.7568635693785809  0.8715033926769918  0.9716496604789457  1.0000
  O   O20       1.0  0.7568545234462434  0.1285060192408807  0.028352148352091384  1.0000
