data_image0
_chemical_formula_structural       Cu2H18C12N6Cl2O12
_chemical_formula_sum              "Cu2 H18 C12 N6 Cl2 O12"
_cell_length_a       7.494522496205013
_cell_length_b       7.479657616681404
_cell_length_c       9.518701940047835
_cell_angle_alpha    85.12786333317624
_cell_angle_beta     88.68623574674824
_cell_angle_gamma    76.74581848883643

_space_group_name_H-M_alt    "P 1"
_space_group_IT_number       1

loop_
  _space_group_symop_operation_xyz
  'x, y, z'

loop_
  _atom_site_type_symbol
  _atom_site_label
  _atom_site_symmetry_multiplicity
  _atom_site_fract_x
  _atom_site_fract_y
  _atom_site_fract_z
  _atom_site_occupancy
  Cu  Cu1       1.0  0.14914032414075257  0.23873914348568087  0.3364986908877724  1.0000
  Cu  Cu2       1.0  0.8508651933772811  0.7612413359213901  0.6634502291431872  1.0000
  H   H1        1.0  0.297447930508575  0.9434999451330764  0.47209462328448387  1.0000
  H   H2        1.0  0.7025217474269354  0.0566672743157994  0.5279274220494016  1.0000
  H   H3        1.0  0.10465464469885423  0.9217723813804423  0.40326650401064507  1.0000
  H   H4        1.0  0.8952913352947646  0.07830548948038539  0.5967279044483575  1.0000
  H   H5        1.0  0.25953048527871664  0.3961162161525564  0.8242137614698278  1.0000
  H   H6        1.0  0.7404630019450734  0.6039230645249701  0.17578741435189468  1.0000
  H   H7        1.0  0.3512962236933176  0.7076557271032795  0.30967833503386527  1.0000
  H   H8        1.0  0.6487062017003283  0.29233876510301116  0.6904084500687871  1.0000
  H   H9        1.0  0.4618598553748753  0.8898996553311135  0.261922605795867  1.0000
  H   H10       1.0  0.5381431062689613  0.11012155007310297  0.7380994770655888  1.0000
  H   H11       1.0  0.2953101425678567  0.7875972201294559  0.06066886936139329  1.0000
  H   H12       1.0  0.7046988496686808  0.21239760935203825  0.9393778510172481  1.0000
  H   H13       1.0  0.08674937424599691  0.8709114273466126  0.1492109871307576  1.0000
  H   H14       1.0  0.9132961145461137  0.1290520054681679  0.8508044371664739  1.0000
  H   H15       1.0  0.27361514067411713  0.050730841567300886  0.830997625237508  1.0000
  H   H16       1.0  0.7263791021652465  0.9492641981121462  0.1690220400008684  1.0000
  H   H17       1.0  0.19492064338283643  0.51637373097779  0.0690666034456626  1.0000
  H   H18       1.0  0.8050660844801028  0.48362512324248275  0.9309907853312039  1.0000
  C   C1        1.0  0.32785557335412824  0.8545226720719085  0.27273078987766297  1.0000
  C   C2        1.0  0.672138653476246  0.14548393428889736  0.7272230218416097  1.0000
  C   C3        1.0  0.22731597928512304  0.8902726282096863  0.1320269077615208  1.0000
  C   C4        1.0  0.7726650520810664  0.10971583519013707  0.8679534878692577  1.0000
  C   C5        1.0  0.22427185710585457  0.07710639746208157  0.0620844396274336  1.0000
  C   C6        1.0  0.7757300844471402  0.9228665860351054  0.9379375019779486  1.0000
  C   C7        1.0  0.2524182468544253  0.12935718238070848  0.9226995619470272  1.0000
  C   C8        1.0  0.7475729852919244  0.8705867198618903  0.07733909028804929  1.0000
  C   C9        1.0  0.20644783591383492  0.3760327719428884  0.043771848967026  1.0000
  C   C10       1.0  0.7935383882556125  0.6239331198307525  0.9562728858907048  1.0000
  C   C11       1.0  0.005942637656467329  0.5723921204060642  0.4396420331723974  1.0000
  C   C12       1.0  0.9941113316488239  0.42753372342008317  0.5602547488479103  1.0000
  N   N1        1.0  0.22290308563835737  0.9665374325695594  0.3805607734529843  1.0000
  N   N2        1.0  0.7770455615873643  0.033610708988959494  0.6194334284769667  1.0000
  N   N3        1.0  0.24047377370464315  0.31666144572351135  0.9140668565438971  1.0000
  N   N4        1.0  0.759520545286435  0.6833156911459992  0.08595181677706881  1.0000
  N   N5        1.0  0.19454417772868027  0.23386730313243476  0.13556756073875678  1.0000
  N   N6        1.0  0.8054553249720013  0.7660753859052816  0.8644521031055065  1.0000
  Cl  Cl1       1.0  0.647258993335363  0.30229026078688986  0.2943453084052691  1.0000
  Cl  Cl2       1.0  0.35273638051923234  0.6977173254995248  0.7056567481686357  1.0000
  O   O1        1.0  0.08037021489303695  0.5169992333863647  0.3260016688950031  1.0000
  O   O2        1.0  0.919664734704014  0.4829280468096257  0.6738859209193748  1.0000
  O   O3        1.0  0.9400369844746735  0.7395248201223126  0.4625309949618313  1.0000
  O   O4        1.0  0.0600386980341909  0.2603995119947839  0.5373843893264477  1.0000
  O   O5        1.0  0.5132908244488449  0.23090748813414305  0.3838554570032002  1.0000
  O   O6        1.0  0.48670588098109857  0.7691001082665991  0.6161455237036222  1.0000
  O   O7        1.0  0.8213282022473577  0.1636045078741688  0.3004814957536937  1.0000
  O   O8        1.0  0.17866274378452118  0.8363990425226856  0.6995082861711666  1.0000
  O   O9        1.0  0.6753050739264239  0.4727869884627935  0.3473017556291467  1.0000
  O   O10       1.0  0.3247001329626044  0.5272067626725557  0.6527083312804577  1.0000
  O   O11       1.0  0.5833616133502701  0.34106004196501527  0.14956398596361709  1.0000
  O   O12       1.0  0.4166149399580731  0.658959869709598  0.850445008531068  1.0000
