data_image0
_chemical_formula_structural       Na4H28C8S8O16
_chemical_formula_sum              "Na4 H28 C8 S8 O16"
_cell_length_a       4.940973257007241
_cell_length_b       6.072069426004924
_cell_length_c       23.453742180029646
_cell_angle_alpha    90.00008938717804
_cell_angle_beta     90.00015890125859
_cell_angle_gamma    90.00011512661479

_space_group_name_H-M_alt    "P 1"
_space_group_IT_number       1

loop_
  _space_group_symop_operation_xyz
  'x, y, z'

loop_
  _atom_site_type_symbol
  _atom_site_label
  _atom_site_symmetry_multiplicity
  _atom_site_fract_x
  _atom_site_fract_y
  _atom_site_fract_z
  _atom_site_occupancy
  Na  Na1       1.0  0.3342464291661146  0.659394061388504  0.2657953415983556  1.0000
  Na  Na2       1.0  0.6657564530688377  0.15939487286001258  0.7342037440479956  1.0000
  Na  Na3       1.0  0.834246285084639  0.15939844397453132  0.2342051189040859  1.0000
  Na  Na4       1.0  0.16575457327615348  0.6593987247011416  0.765795245856914  1.0000
  H   H1        1.0  0.9072495931218048  0.6592682340039674  0.9832042650838418  1.0000
  H   H2        1.0  0.09275126490375382  0.15926707995305384  0.0167943941395308  1.0000
  H   H3        1.0  0.40725129662445186  0.15926719659379532  0.516796145111357  1.0000
  H   H4        1.0  0.5927515853099267  0.6592697642562867  0.4832046459688968  1.0000
  H   H5        1.0  0.8000540366929769  0.7904932717400045  0.3313547650567799  1.0000
  H   H6        1.0  0.19994512220334576  0.2904896343331914  0.6686452262643598  1.0000
  H   H7        1.0  0.30005368955107775  0.2904947965526149  0.1686461547545264  1.0000
  H   H8        1.0  0.6999434454626725  0.790496343943886  0.8313538365676862  1.0000
  H   H9        1.0  0.802757637730011  0.5351075229881986  0.3307961680273764  1.0000
  H   H10       1.0  0.1972388652449553  0.03510553142169931  0.6692041465465124  1.0000
  H   H11       1.0  0.30275729793338974  0.03511069805139751  0.1692042238761715  1.0000
  H   H12       1.0  0.6972432528344824  0.5351105907854788  0.830795664329372  1.0000
  H   H13       1.0  0.02631015200044121  0.8642525562976574  0.0761227892320449  1.0000
  H   H14       1.0  0.9736871655466717  0.3642533665822967  0.9238768055003064  1.0000
  H   H15       1.0  0.5263064308217978  0.36425149467437024  0.42387800027144346  1.0000
  H   H16       1.0  0.47368886283739925  0.864256075090211  0.5761220208318463  1.0000
  H   H17       1.0  0.7135704899890173  0.004404601224493401  0.0825153998739054  1.0000
  H   H18       1.0  0.2864279609007739  0.5044076400797196  0.9174849023045369  1.0000
  H   H19       1.0  0.2135685813161885  0.5043994861261752  0.4174849274728771  1.0000
  H   H20       1.0  0.7864258217840004  0.004409461404762301  0.5825153747037177  1.0000
  H   H21       1.0  0.7808655372825231  0.49830711256619514  0.0828011879620689  1.0000
  H   H22       1.0  0.2191361598114199  0.9983083930289782  0.9171984608993426  1.0000
  H   H23       1.0  0.2808656487501652  0.9983036426338077  0.4171998045364518  1.0000
  H   H24       1.0  0.7191320005610607  0.49831186295934776  0.5828002706949674  1.0000
  H   H25       1.0  0.4688219953430847  0.6422891021609588  0.0927713897305296  1.0000
  H   H26       1.0  0.5311788206789033  0.14229238394845115  0.907228968122766  1.0000
  H   H27       1.0  0.9688241268669844  0.14228629329625161  0.4072278634522561  1.0000
  H   H28       1.0  0.031172641362609006  0.6422918990385897  0.5927720680279975  1.0000
  C   C1        1.0  0.8083989124308887  0.8509726887392974  0.0678462976672591  1.0000
  C   C2        1.0  0.19159837225632265  0.35097556678231717  0.9321537180746375  1.0000
  C   C3        1.0  0.3083979831847757  0.35097250819301  0.4321550778148834  1.0000
  C   C4        1.0  0.6915952537273712  0.8509773942141552  0.5678462170397296  1.0000
  C   C5        1.0  0.6892077728197493  0.6522644802497908  0.0980571798482686  1.0000
  C   C6        1.0  0.3107910439886012  0.1522657237474405  0.9019423292894402  1.0000
  C   C7        1.0  0.18921251790757765  0.15226247071107935  0.4019431929554145  1.0000
  C   C8        1.0  0.8107883227955741  0.6522693801727969  0.598056316183218  1.0000
  S   S1        1.0  0.7495602878759585  0.8390289200709874  0.9912311193183925  1.0000
  S   S2        1.0  0.2504369672506642  0.33902797489219694  0.0087693179713355  1.0000
  S   S3        1.0  0.24955986190473575  0.33902783426857747  0.5087675657556119  1.0000
  S   S4        1.0  0.7504373932134741  0.8390290606907487  0.4912315924205402  1.0000
  S   S5        1.0  0.7476137722257336  0.6591652022375172  0.17311942022390533  1.0000
  S   S6        1.0  0.2523931572338185  0.15916589798946756  0.8268805180735868  1.0000
  S   S7        1.0  0.2476134822884859  0.15915450579746704  0.3268801367769569  1.0000
  S   S8        1.0  0.752387375468338  0.6591568318046725  0.6731198015147726  1.0000
  O   O1        1.0  0.6123751393783722  0.4602000449538013  0.1961485013099065  1.0000
  O   O2        1.0  0.3876325350901055  0.9602025639341393  0.8038515585380707  1.0000
  O   O3        1.0  0.11237983177175442  0.9601893042392009  0.3038536563804469  1.0000
  O   O4        1.0  0.8876217709863425  0.46019189513634035  0.696145550719052  1.0000
  O   O5        1.0  0.0401358114682822  0.6604475771370987  0.1826029880264812  1.0000
  O   O6        1.0  0.9598751689372662  0.1604444292498286  0.8173956716756335  1.0000
  O   O7        1.0  0.5401428332050957  0.16043928612865702  0.3173981536442199  1.0000
  O   O8        1.0  0.4598600516263645  0.6604411920618746  0.6826022115379686  1.0000
  O   O9        1.0  0.68267622867144  0.6617693677368875  0.3367905110685214  1.0000
  O   O10       1.0  0.31732261165878844  0.16176753593901344  0.6632094282775896  1.0000
  O   O11       1.0  0.18267783392253992  0.16176921289687132  0.1632094353815319  1.0000
  O   O12       1.0  0.8173230302989155  0.661770984548092  0.8367896512234481  1.0000
  O   O13       1.0  0.6121529972701865  0.8605989538392224  0.19472492867154761  1.0000
  O   O14       1.0  0.3878503829243912  0.3605997403472046  0.8052763700721145  1.0000
  O   O15       1.0  0.11215444707946184  0.36059471470539267  0.3052750568170168  1.0000
  O   O16       1.0  0.8878469092073261  0.8605940981681574  0.6947258155528645  1.0000
