data_image0
_chemical_formula_structural       Co2H44C28N4Cl4O2
_chemical_formula_sum              "Co2 H44 C28 N4 Cl4 O2"
_cell_length_a       7.340511906029502
_cell_length_b       9.336011706674542
_cell_length_c       13.016214696492373
_cell_angle_alpha    110.0182834874689
_cell_angle_beta     90.00032549850424
_cell_angle_gamma    89.99988260954865

_space_group_name_H-M_alt    "P 1"
_space_group_IT_number       1

loop_
  _space_group_symop_operation_xyz
  'x, y, z'

loop_
  _atom_site_type_symbol
  _atom_site_label
  _atom_site_symmetry_multiplicity
  _atom_site_fract_x
  _atom_site_fract_y
  _atom_site_fract_z
  _atom_site_occupancy
  Co  Co1       1.0  0.6396370389091501  0.4622556908317534  0.7476887705249455  1.0000
  Co  Co2       1.0  0.13963525152637155  0.5377424540932483  0.2523096140590156  1.0000
  H   H1        1.0  0.17660019508148392  0.6536535324225597  0.5954130106714077  1.0000
  H   H2        1.0  0.6766029065847051  0.3463491762382633  0.40458813890759165  1.0000
  H   H3        1.0  0.8834788263020174  0.5202352374131536  0.5883352536405866  1.0000
  H   H4        1.0  0.38347198653723785  0.47975375846448287  0.4116609163820258  1.0000
  H   H5        1.0  0.9480685665614247  0.5172503904950221  0.9048975318892617  1.0000
  H   H6        1.0  0.4480653348885255  0.48275227854826847  0.0951021710416668  1.0000
  H   H7        1.0  0.2512833062013371  0.6412377439378647  0.923287886137601  1.0000
  H   H8        1.0  0.7512826756121316  0.3587683807439745  0.07671510151299542  1.0000
  H   H9        1.0  0.13748347956619267  0.9075515947136242  0.7493202037314648  1.0000
  H   H10       1.0  0.637481209390188  0.09244769804139714  0.2506799897661196  1.0000
  H   H11       1.0  0.27441356900015285  0.03931826478578421  0.7137437593437782  1.0000
  H   H12       1.0  0.7744148539441442  0.96067986614225  0.2862550526934768  1.0000
  H   H13       1.0  0.36889011298160324  0.15602943487579074  0.9109748045864805  1.0000
  H   H14       1.0  0.8688910720861074  0.8439709700280534  0.08902563096486925  1.0000
  H   H15       1.0  0.3064973149847959  0.933636612483568  0.973865527235333  1.0000
  H   H16       1.0  0.806496932633003  0.06636379128309501  0.026133172026334306  1.0000
  H   H17       1.0  0.07021665815004502  0.9502526679323114  0.9518314380245132  1.0000
  H   H18       1.0  0.5702179036557028  0.04974662419144951  0.048167003732956515  1.0000
  H   H19       1.0  0.18700617414756243  0.09889055026788182  0.05370322442147572  1.0000
  H   H20       1.0  0.6870074652482431  0.9011087335354876  0.9462963569413677  1.0000
  H   H21       1.0  0.08056292518703861  0.2971483577967008  0.970064391577161  1.0000
  H   H22       1.0  0.5805663785974817  0.7028520580081906  0.029931283521897063  1.0000
  H   H23       1.0  0.9575818109886995  0.15346465229285408  0.867622531647193  1.0000
  H   H24       1.0  0.45758346070878997  0.8465334405705961  0.13237301529843395  1.0000
  H   H25       1.0  0.12370911436890002  0.2650836521868741  0.8299864351828818  1.0000
  H   H26       1.0  0.6237084494370536  0.7349133429774428  0.17000931393909732  1.0000
  H   H27       1.0  0.7042315179251093  0.8776634218999889  0.7611576959283611  1.0000
  H   H28       1.0  0.2042293103370981  0.12233586011468131  0.23884194005970738  1.0000
  H   H29       1.0  0.6046579929811389  0.06314780754954802  0.804243312533828  1.0000
  H   H30       1.0  0.10465459893136142  0.9368526286039939  0.19575705419264017  1.0000
  H   H31       1.0  0.5181672054571749  0.03478052567766102  0.6173177953526763  1.0000
  H   H32       1.0  0.018168349394336807  0.965221059447352  0.38268257441030346  1.0000
  H   H33       1.0  0.8233376315853606  0.026551603026007307  0.5381828878164256  1.0000
  H   H34       1.0  0.32334091533263637  0.9734499465979027  0.46181768060517925  1.0000
  H   H35       1.0  0.9131303592614516  0.934233014287614  0.6254205884081758  1.0000
  H   H36       1.0  0.4131296687350173  0.06576851839447072  0.3745787263812233  1.0000
  H   H37       1.0  0.8298459456846744  0.12546996758749884  0.6812109148875012  1.0000
  H   H38       1.0  0.32984667997834555  0.8745292975732684  0.3187883502924152  1.0000
  H   H39       1.0  0.6067423368724932  0.8020671236849639  0.45848630618867514  1.0000
  H   H40       1.0  0.10674435085139322  0.197933312251827  0.541514067156939  1.0000
  H   H41       1.0  0.44342995911513583  0.757116834239959  0.54265470863745  1.0000
  H   H42       1.0  0.943432109414516  0.24288242293324913  0.45734568598365405  1.0000
  H   H43       1.0  0.6772924939970439  0.7101776175834477  0.5500653567122671  1.0000
  H   H44       1.0  0.17729062042014482  0.2898239548246766  0.449936286920604  1.0000
  C   C1        1.0  0.23798638803747713  0.6617065001943561  0.7615883365964538  1.0000
  C   C2        1.0  0.7379874429265885  0.3382996372936092  0.23841691649514737  1.0000
  C   C3        1.0  0.1336376453534669  0.624453484649216  0.6659665429054088  1.0000
  C   C4        1.0  0.6336354819461221  0.3755503798883738  0.33403705535645406  1.0000
  C   C5        1.0  0.9684132865217309  0.5505651332753346  0.6613525751567125  1.0000
  C   C6        1.0  0.4684139621928837  0.4494307051434064  0.33864783588735753  1.0000
  C   C7        1.0  0.005554902618229101  0.5473923505467866  0.8378375185635465  1.0000
  C   C8        1.0  0.5055562534056222  0.4526092473133334  0.1621651188093766  1.0000
  C   C9        1.0  0.17470110238892292  0.6178234286730203  0.8476652548421414  1.0000
  C   C10       1.0  0.6746984498417349  0.38218271157900574  0.15233902832878246  1.0000
  C   C11       1.0  0.41618778810328655  0.7417234724870173  0.7686329667900723  1.0000
  C   C12       1.0  0.9161889795161501  0.25827920367536455  0.23136740424020275  1.0000
  C   C13       1.0  0.2600825816363895  0.9784327325581406  0.7720875792059021  1.0000
  C   C14       1.0  0.7600843524853147  0.021567687453973906  0.22791328046321274  1.0000
  C   C15       1.0  0.23965931327971657  0.09299936674011633  0.8887299270830982  1.0000
  C   C16       1.0  0.7396589710574661  0.9069999039783314  0.11126828286176504  1.0000
  C   C17       1.0  0.1989760212024479  0.014022525725451405  0.9712614950546271  1.0000
  C   C18       1.0  0.6989773654745053  0.9859778892074192  0.0287368632022763  1.0000
  C   C19       1.0  0.0916980949733599  0.20827696253743272  0.8890919952975341  1.0000
  C   C20       1.0  0.591698048252809  0.7917223159302013  0.11090420697703961  1.0000
  C   C21       1.0  0.5956789677414777  0.9471162788202397  0.7442752601563928  1.0000
  C   C22       1.0  0.09567847312857941  0.05288415826563411  0.25572507809739164  1.0000
  C   C23       1.0  0.6171196585687682  0.952202163131496  0.628076874825702  1.0000
  C   C24       1.0  0.11712035016629592  0.04780054789815581  0.3719233169021977  1.0000
  C   C25       1.0  0.8069372890277509  0.013433613849315403  0.6182143197505995  1.0000
  C   C26       1.0  0.3069383685161143  0.9865679374779154  0.38178619665325214  1.0000
  C   C27       1.0  0.5838043026656906  0.7967467427820126  0.5404308718077077  1.0000
  C   C28       1.0  0.0838054756077895  0.20325369172855556  0.459568659584484  1.0000
  N   N1        1.0  0.9025219005886316  0.5153797168700933  0.7466920838555213  1.0000
  N   N2        1.0  0.40251889884330444  0.484618408370736  0.25330867288158043  1.0000
  N   N3        1.0  0.42070768347846876  0.8802700098237326  0.7596040921329605  1.0000
  N   N4        1.0  0.920707963296657  0.11972925351775392  0.24039699962401076  1.0000
  Cl  Cl1       1.0  0.5387673967356791  0.32990135364486417  0.5838604427657829  1.0000
  Cl  Cl2       1.0  0.038768282010337905  0.6700956655744864  0.41613811377634863  1.0000
  Cl  Cl3       1.0  0.586599290941308  0.3728530912573903  0.8806950286181279  1.0000
  Cl  Cl4       1.0  0.08660001575607623  0.6271450553671233  0.11930241855544219  1.0000
  O   O1        1.0  0.5629569875467126  0.6762652699117881  0.7803049639205996  1.0000
  O   O2        1.0  0.06295678862522182  0.3237329058271286  0.21969779269238643  1.0000
