data_image0
_chemical_formula_structural       Zn4H24C64N4O32
_chemical_formula_sum              "Zn4 H24 C64 N4 O32"
_cell_length_a       14.866722737395195
_cell_length_b       22.652221463723592
_cell_length_c       22.617520966995958
_cell_angle_alpha    89.9945037353225
_cell_angle_beta     89.9998694287944
_cell_angle_gamma    90.00373859687622

_space_group_name_H-M_alt    "P 1"
_space_group_IT_number       1

loop_
  _space_group_symop_operation_xyz
  'x, y, z'

loop_
  _atom_site_type_symbol
  _atom_site_label
  _atom_site_symmetry_multiplicity
  _atom_site_fract_x
  _atom_site_fract_y
  _atom_site_fract_z
  _atom_site_occupancy
  Zn  Zn1       1.0  0.5956098762576475  7.003345665199995e-06  0.5000006747162332  1.0000
  Zn  Zn2       1.0  0.40438998831772477  0.9999925702813993  0.49999954783205425  1.0000
  Zn  Zn3       1.0  0.5955907299670714  0.5000056968166006  0.9999954884194012  1.0000
  Zn  Zn4       1.0  0.4044057715144903  0.4999960841842608  1.1969340220999938e-06  1.0000
  H   H1        1.0  0.08393614287501092  0.9933149483407531  0.404590091147341  1.0000
  H   H2        1.0  0.9160657397202671  0.006687273700222799  0.5954185318337154  1.0000
  H   H3        1.0  0.08394219576834423  0.006680843412432599  0.5954124298126902  1.0000
  H   H4        1.0  0.9160617047415514  0.9933204960355441  0.4045900033227738  1.0000
  H   H5        1.0  0.08391542300327612  0.4982620148170085  0.9043699366507596  1.0000
  H   H6        1.0  0.9160844415732614  0.5017362350921815  0.09561569550657371  1.0000
  H   H7        1.0  0.08391381272440411  0.5017328937522194  0.0956144567940811  1.0000
  H   H8        1.0  0.9160833612560567  0.49826491461996614  0.904371617519736  1.0000
  H   H9        1.0  0.6500444342420694  0.7995852808951298  0.3457436309724288  1.0000
  H   H10       1.0  0.34995005098031123  0.2004487276533169  0.6542269667650871  1.0000
  H   H11       1.0  0.6500330072784877  0.20058337490949896  0.6540692455388497  1.0000
  H   H12       1.0  0.34995676563106315  0.7993777899970382  0.3459681183130954  1.0000
  H   H13       1.0  0.3499124113569466  0.20043212641497385  0.3457417884608134  1.0000
  H   H14       1.0  0.6500733252607989  0.7995100605837353  0.6541872532566729  1.0000
  H   H15       1.0  0.34992916479534136  0.7994910818498155  0.6541685566499424  1.0000
  H   H16       1.0  0.6500666663731068  0.2005658780249817  0.3459024045863259  1.0000
  H   H17       1.0  0.6499794824736965  0.34551316756532197  0.7997020409185964  1.0000
  H   H18       1.0  0.3500223976421353  0.654440051486837  0.20033267053317869  1.0000
  H   H19       1.0  0.6499614130496739  0.6546669633298733  0.2001064135981352  1.0000
  H   H20       1.0  0.35004450761064027  0.345377199139392  0.7998610886805935  1.0000
  H   H21       1.0  0.350008969739136  0.6545486461055176  0.7997705978001765  1.0000
  H   H22       1.0  0.6499942609764845  0.3455184672832559  0.2003043421372865  1.0000
  H   H23       1.0  0.35004381668674983  0.34538118856479366  0.20014239987321505  1.0000
  H   H24       1.0  0.6499600814544169  0.6545640891185299  0.7997848731539395  1.0000
  C   C1        1.0  0.5000075214013721  0.0853955502152317  0.4233357990587692  1.0000
  C   C2        1.0  0.5000078139310206  0.914603140896972  0.5766630971358141  1.0000
  C   C3        1.0  0.5000118606632357  0.9146082651873397  0.42331207274811083  1.0000
  C   C4        1.0  0.5000034747058281  0.08539130878088488  0.5766881498067491  1.0000
  C   C5        1.0  0.4999900053858823  0.5765376736305824  0.914474656222723  1.0000
  C   C6        1.0  0.499992370497715  0.42346189992866096  0.08551849215643871  1.0000
  C   C7        1.0  0.4999987663568816  0.4234555573199046  0.9144736218455095  1.0000
  C   C8        1.0  0.5000105152505442  0.5765444580322238  0.08552527427894323  1.0000
  C   C9        1.0  0.9533254224949063  0.9962458846379363  0.4459197753413591  1.0000
  C   C10       1.0  0.0466798234464889  0.003758545004629399  0.5540835419072679  1.0000
  C   C11       1.0  0.9533295435708314  0.0037608798841758996  0.5540874652194887  1.0000
  C   C12       1.0  0.0466757023587334  0.9962435496392031  0.4459185048397742  1.0000
  C   C13       1.0  0.9533328478976557  0.4990094969651365  0.9457987704926369  1.0000
  C   C14       1.0  0.04666163565902081  0.500991401552369  0.0541873036624168  1.0000
  C   C15       1.0  0.9533335529803185  0.5009928541448403  0.054188132083361  1.0000
  C   C16       1.0  0.046665639034230794  0.49900716154101604  0.945798384253834  1.0000
  C   C17       1.0  0.9069078052718283  2.8314529671999947e-06  0.5000043446631963  1.0000
  C   C18       1.0  0.0930934045043941  0.9999954176118209  0.5000007414393792  1.0000
  C   C19       1.0  0.9069041297832287  0.5000010841052358  0.9999925263688639  1.0000
  C   C20       1.0  0.09309464241032832  0.4999968232700738  0.9999917376626115  1.0000
  C   C21       1.0  0.5835317295786595  0.2525233646535056  0.7038182627147905  1.0000
  C   C22       1.0  0.41646477064525567  0.7474541352938148  0.2961978778217755  1.0000
  C   C23       1.0  0.5835432945494717  0.7475681889524707  0.29609094650589185  1.0000
  C   C24       1.0  0.4164532077537046  0.25244948508573367  0.7038933582539215  1.0000
  C   C25       1.0  0.41644950402462655  0.7475073354700257  0.7038482105574532  1.0000
  C   C26       1.0  0.5835328733614987  0.2525271114483941  0.2961851703374663  1.0000
  C   C27       1.0  0.4164516615431638  0.25245103144529674  0.2961064029711197  1.0000
  C   C28       1.0  0.5835448383250964  0.7475141101069198  0.7038557977129899  1.0000
  C   C29       1.0  0.5835319709794218  0.7040035605599186  0.2524685820681967  1.0000
  C   C30       1.0  0.4164652039614438  0.2960136721942277  0.7475121856335748  1.0000
  C   C31       1.0  0.5835383439397858  0.2960734247948054  0.7474415121637747  1.0000
  C   C32       1.0  0.4164601739365851  0.7038987774847882  0.2525794921300175  1.0000
  C   C33       1.0  0.41646673714210186  0.2960178138006739  0.25248799476470657  1.0000
  C   C34       1.0  0.5835344713176837  0.7039490937263294  0.7474733215611168  1.0000
  C   C35       1.0  0.41645864378802605  0.7039449681671216  0.7474679449543019  1.0000
  C   C36       1.0  0.5835452578597115  0.2960824160996581  0.2525610149589923  1.0000
  C   C37       1.0  0.49998844856108354  0.2300045583764216  0.6834342945839255  1.0000
  C   C38       1.0  0.5000046895183773  0.7699936907288814  0.316565928029057  1.0000
  C   C39       1.0  0.49999969180108655  0.7699961899048942  0.6834359319350228  1.0000
  C   C40       1.0  0.4999900831605261  0.23000470757512656  0.3165709225680118  1.0000
  C   C41       1.0  0.4999961973162783  0.6835407155163508  0.23003565499419665  1.0000
  C   C42       1.0  0.500001648926947  0.3164504703877141  0.7699641258459665  1.0000
  C   C43       1.0  0.5000080911025649  0.3164636927625252  0.2300402303214355  1.0000
  C   C44       1.0  0.49999513706967497  0.6835442683986912  0.7699652974217203  1.0000
  C   C45       1.0  0.8113272245209304  1.3526015671100003e-05  0.500003861252857  1.0000
  C   C46       1.0  0.18868609305177836  0.9999891379537897  0.49999989822437396  1.0000
  C   C47       1.0  0.8113356562342844  0.5000042740131293  0.9999951382922136  1.0000
  C   C48       1.0  0.1886637886040603  0.49999407463617024  0.9999935470680938  1.0000
  C   C49       1.0  0.499992345660047  0.18167904232084447  0.644419220788521  1.0000
  C   C50       1.0  0.49999541138022613  0.818321413954841  0.35558100170958806  1.0000
  C   C51       1.0  0.49999614235642303  0.8183207975508537  0.6444146018593457  1.0000
  C   C52       1.0  0.4999882510716063  0.18167082979247343  0.355578989061094  1.0000
  C   C53       1.0  0.49999049268740253  0.6444751937458121  0.18173969301009413  1.0000
  C   C54       1.0  0.5000140803888159  0.3555239387259306  0.8182561082116565  1.0000
  C   C55       1.0  0.500021625295645  0.35553090615363186  0.1817367459168011  1.0000
  C   C56       1.0  0.49998496579928553  0.6444699922335744  0.8182581709455192  1.0000
  C   C57       1.0  0.5000101764985772  0.8623726407316497  0.3868894365160856  1.0000
  C   C58       1.0  0.499992378868413  0.13763134759243198  0.6131094594028498  1.0000
  C   C59       1.0  0.4999886778974415  0.13762385271235186  0.38690076022415104  1.0000
  C   C60       1.0  0.5000031148845636  0.8623735137655115  0.6130923882715962  1.0000
  C   C61       1.0  0.5000032928842302  0.38696170385044576  0.8622526953635514  1.0000
  C   C62       1.0  0.5000073336551766  0.613031248067358  0.1377492960675042  1.0000
  C   C63       1.0  0.49998190765933265  0.6130167956373285  0.8622491233032151  1.0000
  C   C64       1.0  0.49999912252940965  0.38697439015415813  0.1377449097734171  1.0000
  N   N1        1.0  0.2666999243107001  0.9999868851670186  0.5000003737184073  1.0000
  N   N2        1.0  0.7333053213093733  1.0922588558099995e-05  0.5000033860030868  1.0000
  N   N3        1.0  0.2666836736360453  0.4999918218239685  0.99999755964555  1.0000
  N   N4        1.0  0.7333124079685334  0.5000065265723777  0.9999951049292833  1.0000
  O   O1        1.0  0.5769097752507123  0.06508336089000719  0.43770537454713593  1.0000
  O   O2        1.0  0.4230793277316138  0.934931221806977  0.5623005949873631  1.0000
  O   O3        1.0  0.5769067746257691  0.9349319656253524  0.5622922599328817  1.0000
  O   O4        1.0  0.4230816545554177  0.06505701327863278  0.4376964676382117  1.0000
  O   O5        1.0  0.4230879543535124  0.9349235775838094  0.4376768575725977  1.0000
  O   O6        1.0  0.5769018199788789  0.0650645175005593  0.5623326503940902  1.0000
  O   O7        1.0  0.4230824444325664  0.06505494526022909  0.5623286061193796  1.0000
  O   O8        1.0  0.5769113666993279  0.9349508091194209  0.43766100486854503  1.0000
  O   O9        1.0  0.5769059719834004  0.5621650316378465  0.9348039099729919  1.0000
  O   O10       1.0  0.42307236744920135  0.43782173981419686  0.06518349130108451  1.0000
  O   O11       1.0  0.57691057778073  0.43784808752887727  0.0651950510249364  1.0000
  O   O12       1.0  0.423079870218345  0.5621616388043051  0.9348188771897341  1.0000
  O   O13       1.0  0.42308396395436904  0.4378290215736341  0.9347969224286318  1.0000
  O   O14       1.0  0.5769206098563302  0.5621842380843489  0.065186940424681  1.0000
  O   O15       1.0  0.42309719730314316  0.5621530332695386  0.065206330412245  1.0000
  O   O16       1.0  0.5769073752822466  0.43783726939047807  0.9348040617183602  1.0000
  O   O17       1.0  0.6633782305857993  0.7687929945982006  0.3166089459969826  1.0000
  O   O18       1.0  0.3366122185912773  0.23123748203985162  0.6833651889998152  1.0000
  O   O19       1.0  0.6633587529973611  0.23140141318836532  0.6831818338059322  1.0000
  O   O20       1.0  0.33663774595866164  0.7685522468453736  0.3168608360529533  1.0000
  O   O21       1.0  0.3366037634690287  0.23124733762494995  0.31662340363840974  1.0000
  O   O22       1.0  0.6633900446353423  0.7686895522964289  0.6833003327314486  1.0000
  O   O23       1.0  0.3366065228179735  0.7686721933632298  0.6832825089604739  1.0000
  O   O24       1.0  0.6633650942560793  0.2314086038053205  0.31680834712932443  1.0000
  O   O25       1.0  0.6633611401596939  0.31669031331091446  0.7686152290188488  1.0000
  O   O26       1.0  0.33663266781702833  0.6832549589452555  0.2314278834018282  1.0000
  O   O27       1.0  0.6633516268220135  0.6834767222861515  0.231203848816655  1.0000
  O   O28       1.0  0.33665362090255974  0.316561701057843  0.7687671908353693  1.0000
  O   O29       1.0  0.3366417148170982  0.6833765013695086  0.7686848131049048  1.0000
  O   O30       1.0  0.663374969210878  0.31670076542835796  0.23139941115759652  1.0000
  O   O31       1.0  0.33665063488781044  0.3165642206482531  0.23123789958204818  1.0000
  O   O32       1.0  0.6633532637150382  0.683391651525852  0.7687004262823436  1.0000
