data_image0
_chemical_formula_structural       Cu8H32C24I8N8
_chemical_formula_sum              "Cu8 H32 C24 I8 N8"
_cell_length_a       4.276064236232486
_cell_length_b       12.684849568724655
_cell_length_c       17.68276382805475
_cell_angle_alpha    90.00012478664098
_cell_angle_beta     89.99974688511361
_cell_angle_gamma    91.1656983702813

_space_group_name_H-M_alt    "P 1"
_space_group_IT_number       1

loop_
  _space_group_symop_operation_xyz
  'x, y, z'

loop_
  _atom_site_type_symbol
  _atom_site_label
  _atom_site_symmetry_multiplicity
  _atom_site_fract_x
  _atom_site_fract_y
  _atom_site_fract_z
  _atom_site_occupancy
  Cu  Cu1       1.0  0.8522116109608361  0.29286508669791544  0.558151199267499  1.0000
  Cu  Cu2       1.0  0.6477894481035378  0.20713532781698527  0.0581507870622104  1.0000
  Cu  Cu3       1.0  0.1477798490711351  0.7071326339157052  0.4418487912345697  1.0000
  Cu  Cu4       1.0  0.3522140189910771  0.7928654925329467  0.9418497689582354  1.0000
  Cu  Cu5       1.0  0.5271058106625759  0.23387077270263032  0.6752518004381897  1.0000
  Cu  Cu6       1.0  0.9728978665049508  0.2661307699645192  0.17525226200772437  1.0000
  Cu  Cu7       1.0  0.4728974175911631  0.7661276823569666  0.32475101767045794  1.0000
  Cu  Cu8       1.0  0.027103501686887917  0.7338724264762961  0.8247477284931293  1.0000
  H   H1        1.0  0.24790504613336134  0.3961718445803087  0.2980027833247334  1.0000
  H   H2        1.0  0.25210212720651265  0.10383298443713332  0.7980035886716833  1.0000
  H   H3        1.0  0.7520846334176524  0.6038314058501727  0.7019972071823446  1.0000
  H   H4        1.0  0.7479057764880747  0.8961654490292119  0.2020009260018369  1.0000
  H   H5        1.0  0.1881242207395672  0.4088260159048717  0.4386086721109876  1.0000
  H   H6        1.0  0.31188232640928243  0.0911752939977646  0.9386082644967217  1.0000
  H   H7        1.0  0.8118720739622205  0.5911732599754345  0.5613913183896599  1.0000
  H   H8        1.0  0.6881236375857043  0.9088270924237565  0.061396815703190596  1.0000
  H   H9        1.0  0.6569237608718622  0.04985533531328909  0.45671449211627657  1.0000
  H   H10       1.0  0.8430718849568989  0.4501415675883679  0.9567140145419656  1.0000
  H   H11       1.0  0.3430654410644891  0.9501431845251815  0.5432826707752979  1.0000
  H   H12       1.0  0.156931184129796  0.5498553106008258  0.0432837138635165  1.0000
  H   H13       1.0  0.31382499463295943  0.10480860919383872  0.4196475448970816  1.0000
  H   H14       1.0  0.1861798791869873  0.39519580673488985  0.9196522421934076  1.0000
  H   H15       1.0  0.6861738766636662  0.8951930211745065  0.5803473559018499  1.0000
  H   H16       1.0  0.8138237470798303  0.6048065904845644  0.0803528380077481  1.0000
  H   H17       1.0  0.47803682081865867  0.1558104456896316  0.5052687261706267  1.0000
  H   H18       1.0  0.0219568335467883  0.3441919896133356  0.00526921449881  1.0000
  H   H19       1.0  0.5219523811228584  0.8441880741479653  0.49472787119849926  1.0000
  H   H20       1.0  0.9780470315763807  0.6558127728938385  0.9947319070467842  1.0000
  H   H21       1.0  0.42331710400338807  0.1466760985962239  0.2461384425018167  1.0000
  H   H22       1.0  0.0766816648836368  0.3533286135856812  0.7461398009189961  1.0000
  H   H23       1.0  0.5766795091511766  0.8533263310048227  0.7538587203887204  1.0000
  H   H24       1.0  0.9233243787542166  0.6466745612610156  0.2538613206242744  1.0000
  H   H25       1.0  0.4971631881367528  0.04805312202438472  0.31518240173678436  1.0000
  H   H26       1.0  0.002838837023006126  0.45195020473464365  0.8151834180212203  1.0000
  H   H27       1.0  0.5028310076932243  0.9519485299415749  0.6848136301095522  1.0000
  H   H28       1.0  0.9971571392466457  0.5480459174214333  0.1848171379997297  1.0000
  H   H29       1.0  0.7713287061261411  0.07574897667376491  0.24135275507964585  1.0000
  H   H30       1.0  0.7286738443737022  0.42425355838134493  0.7413540570473884  1.0000
  H   H31       1.0  0.22867040397007796  0.924255018991893  0.7586444078107133  1.0000
  H   H32       1.0  0.2713292246768688  0.5757433198139595  0.2586476300152753  1.0000
  C   C1        1.0  0.7324442777236656  0.2011112281902925  0.406087296825774  1.0000
  C   C2        1.0  0.7675568878391844  0.2988847084739845  0.9060872419867252  1.0000
  C   C3        1.0  0.26755427512018304  0.7988872484573192  0.5939104315832751  1.0000
  C   C4        1.0  0.23244376387647495  0.7011113920879738  0.09391444507664909  1.0000
  C   C5        1.0  0.768835143329504  0.19333268798060746  0.3269271352432028  1.0000
  C   C6        1.0  0.731173097511217  0.30667244402039984  0.8269316545621378  1.0000
  C   C7        1.0  0.23116622488297617  0.806670508456719  0.6730705931678358  1.0000
  C   C8        1.0  0.2688320704472886  0.6933220580831406  0.1730700324976695  1.0000
  C   C9        1.0  0.09925326490220951  0.34017620578249114  0.32896178201689  1.0000
  C   C10       1.0  0.4007510853609587  0.1598295179867151  0.8289613814204841  1.0000
  C   C11       1.0  0.900738752371815  0.6598270338509309  0.6710387740113928  1.0000
  C   C12       1.0  0.5992452889372543  0.840170546326611  0.1710397401256145  1.0000
  C   C13       1.0  0.0656414640578902  0.3472651176339241  0.4065390442710637  1.0000
  C   C14       1.0  0.4343652702864347  0.15273215116188513  0.9065391631715513  1.0000
  C   C15       1.0  0.9343547510268307  0.6527333698168506  0.5934620772739548  1.0000
  C   C16       1.0  0.5656356202494593  0.8472663146938973  0.0934625238934359  1.0000
  C   C17       1.0  0.5328183474806635  0.12436584840278901  0.4491320875923464  1.0000
  C   C18       1.0  0.9671871060343377  0.37563414164061026  0.9491341965389495  1.0000
  C   C19       1.0  0.467177947257248  0.8756334274714065  0.5508639442511267  1.0000
  C   C20       1.0  0.032813545701962724  0.6243619589178595  0.0508652284346027  1.0000
  C   C21       1.0  0.6057278363470643  0.1107217897054298  0.281158297472011  1.0000
  C   C22       1.0  0.8942716500262546  0.389280878966929  0.7811588071253295  1.0000
  C   C23       1.0  0.3942711145253455  0.8892806290994245  0.7188399964621864  1.0000
  C   C24       1.0  0.10572900170488708  0.6107152215924144  0.21884118337067798  1.0000
  I   I1        1.0  0.0050369388274447025  0.12010782719517721  0.6347402264554559  1.0000
  I   I2        1.0  0.49496814036867665  0.3798925775143617  0.1347419632242008  1.0000
  I   I3        1.0  0.9949617732092477  0.8798922263184681  0.3652597640444881  1.0000
  I   I4        1.0  0.5050424991187582  0.6201097873051895  0.8652591583160358  1.0000
  I   I5        1.0  0.3795893890889133  0.4067342308079276  0.5992192083636707  1.0000
  I   I6        1.0  0.12040932516151058  0.09326609669129482  0.0992186574670129  1.0000
  I   I7        1.0  0.6204044882676456  0.5932642674407803  0.4007819131825983  1.0000
  I   I8        1.0  0.879596559257692  0.906735501293717  0.9007830295976333  1.0000
  N   N1        1.0  0.8843126422537821  0.27808363386798624  0.4456653620861103  1.0000
  N   N2        1.0  0.6157047223831283  0.22191786835102084  0.945667051226998  1.0000
  N   N3        1.0  0.1156836524583227  0.7219156420105721  0.5543334973696332  1.0000
  N   N4        1.0  0.3843035793555032  0.7780845072699523  0.0543363324043042  1.0000
  N   N5        1.0  0.9526076085810825  0.2636295118832237  0.2886344333037059  1.0000
  N   N6        1.0  0.5473968148603844  0.2363771004158438  0.7886339539424795  1.0000
  N   N7        1.0  0.04738448832031851  0.7363745161779818  0.7113638606353021  1.0000
  N   N8        1.0  0.4525969032775236  0.7636198209711935  0.2113677331251651  1.0000
