data_image0
_chemical_formula_structural       Cu12H36C60N24
_chemical_formula_sum              "Cu12 H36 C60 N24"
_cell_length_a       16.244052346019483
_cell_length_b       21.82221688025664
_cell_length_c       22.819275557780443
_cell_angle_alpha    89.9301899525839
_cell_angle_beta     89.27303212308068
_cell_angle_gamma    89.9656129975593

_space_group_name_H-M_alt    "P 1"
_space_group_IT_number       1

loop_
  _space_group_symop_operation_xyz
  'x, y, z'

loop_
  _atom_site_type_symbol
  _atom_site_label
  _atom_site_symmetry_multiplicity
  _atom_site_fract_x
  _atom_site_fract_y
  _atom_site_fract_z
  _atom_site_occupancy
  Cu  Cu1       1.0  0.7660774931080921  0.10980214648432714  0.20390058111057388  1.0000
  Cu  Cu2       1.0  0.7924459558829398  0.1353973941910454  0.0710999753915118  1.0000
  Cu  Cu3       1.0  0.8610711305498526  0.22828190080590366  0.16874649189647067  1.0000
  Cu  Cu4       1.0  0.23576453235450145  0.3872794741297625  0.7008548332494015  1.0000
  Cu  Cu5       1.0  0.21134536596611037  0.3629797568747862  0.5679589433445358  1.0000
  Cu  Cu6       1.0  0.13654723946611108  0.2717348467642537  0.6670072573389945  1.0000
  Cu  Cu7       1.0  0.2656797382943594  0.8882454542522426  0.2984180083156645  1.0000
  Cu  Cu8       1.0  0.2905834465786086  0.8661033677796015  0.43238473702204056  1.0000
  Cu  Cu9       1.0  0.3641235527549113  0.7734552466154054  0.3348051933588748  1.0000
  Cu  Cu10      1.0  0.7312841017403002  0.6085995756018434  0.7971161448198245  1.0000
  Cu  Cu11      1.0  0.7103230423030951  0.6375072821041244  0.9285931287366082  1.0000
  Cu  Cu12      1.0  0.6382463255086677  0.7291732259203628  0.8297022659227692  1.0000
  H   H1        1.0  0.33306654321321366  0.5994789130289251  0.5191102005617196  1.0000
  H   H2        1.0  0.5056512464446499  0.7304181706366253  0.5867172173411247  1.0000
  H   H3        1.0  0.4834205214023655  0.5523133033121327  0.6665948344240462  1.0000
  H   H4        1.0  0.6670483583149077  0.9026151931462962  0.0169652126052  1.0000
  H   H5        1.0  0.49103223457620976  0.7709011793227561  0.0820118029957015  1.0000
  H   H6        1.0  0.519724850112148  0.943397305310036  0.17040577942007218  1.0000
  H   H7        1.0  0.8323460600559542  0.4020376861009611  0.9822735137618891  1.0000
  H   H8        1.0  0.008799383883612701  0.27096276646684464  0.9165432963783784  1.0000
  H   H9        1.0  0.9833046366534006  0.44587861609547014  0.831413243678874  1.0000
  H   H10       1.0  0.017654449738046196  0.05527543719885842  0.33096792016631577  1.0000
  H   H11       1.0  0.9890714300143556  0.23008569039313193  0.4159541554111072  1.0000
  H   H12       1.0  0.16479939060975107  0.0996890902805063  0.48081069353047207  1.0000
  H   H13       1.0  0.6311721389109977  0.005042122750843701  0.20082232790491614  1.0000
  H   H14       1.0  0.7006220994061252  0.016959382531922508  0.01721986693922869  1.0000
  H   H15       1.0  0.9736342149888558  0.24815978314459394  0.2814333724429047  1.0000
  H   H16       1.0  0.851127509875468  0.0771541259339656  0.3229838318889122  1.0000
  H   H17       1.0  0.8626744361882289  0.2012570632777155  0.9572028781977548  1.0000
  H   H18       1.0  0.9017685139802579  0.342867847776276  0.0864999872490841  1.0000
  H   H19       1.0  0.3694290693357232  0.49146214354120593  0.6979493180933216  1.0000
  H   H20       1.0  0.3069340627652366  0.48144839556536595  0.5142129172134418  1.0000
  H   H21       1.0  0.0233018099270055  0.25296753596285276  0.7817270408444016  1.0000
  H   H22       1.0  0.1510661831341125  0.4216480000002178  0.8213016732999562  1.0000
  H   H23       1.0  0.1403105677650984  0.29870037061881766  0.45503526867322813  1.0000
  H   H24       1.0  0.0903233707599611  0.15900237829861655  0.5854335901647544  1.0000
  H   H25       1.0  0.12989915764590876  0.9916891506642145  0.30065368544031656  1.0000
  H   H26       1.0  0.19771557000169082  0.9862408312211529  0.48358956239892587  1.0000
  H   H27       1.0  0.4802458360165005  0.753466792258401  0.22138084251724874  1.0000
  H   H28       1.0  0.3488808902299141  0.9193196556754518  0.17656266592804562  1.0000
  H   H29       1.0  0.3570995439434482  0.8001449155349007  0.5469671593313307  1.0000
  H   H30       1.0  0.4057998640129981  0.6604169852474514  0.41663911580246793  1.0000
  H   H31       1.0  0.8646149315412544  0.5027320438376109  0.7994110544068747  1.0000
  H   H32       1.0  0.8070377896605336  0.5212425590344766  0.9844563793481312  1.0000
  H   H33       1.0  0.5287557888022859  0.749252286855203  0.7152077568191402  1.0000
  H   H34       1.0  0.642177135017576  0.573152791151948  0.680782434357134  1.0000
  H   H35       1.0  0.6398171999783672  0.7031440779166759  0.04135709633399639  1.0000
  H   H36       1.0  0.594627585846851  0.8435607442223161  0.9115906121604309  1.0000
  C   C1        1.0  0.4040570628437409  0.5680667339340886  0.5929184624348735  1.0000
  C   C2        1.0  0.38211660991695595  0.6104935767915762  0.5495562180837082  1.0000
  C   C3        1.0  0.41805043926424185  0.6689488543082335  0.5471514252272698  1.0000
  C   C4        1.0  0.4769024513493961  0.6852654079691264  0.588913797218474  1.0000
  C   C5        1.0  0.5013735918021638  0.6430075352503551  0.631693420128812  1.0000
  C   C6        1.0  0.4651911091469358  0.584695346631193  0.6326765443419546  1.0000
  C   C7        1.0  0.5979567212931228  0.9308997237407513  0.0940451968374205  1.0000
  C   C8        1.0  0.6179602960671815  0.8907301557230555  0.04801193973241169  1.0000
  C   C9        1.0  0.5801945808798549  0.8331548583007163  0.043509066784565696  1.0000
  C   C10       1.0  0.5210805109590098  0.8154183119476742  0.0857358074757713  1.0000
  C   C11       1.0  0.4985316923133851  0.8554703150026199  0.13119879052548808  1.0000
  C   C12       1.0  0.5367126268008633  0.9129453220480813  0.134365750675812  1.0000
  C   C13       1.0  0.9035172305519339  0.4317360735658157  0.9066640572997854  1.0000
  C   C14       1.0  0.8821338659798812  0.39059915136341766  0.9516592946478112  1.0000
  C   C15       1.0  0.9193923577187562  0.33270862985197885  0.9554241419114077  1.0000
  C   C16       1.0  0.9791146170820896  0.315707561055497  0.9134031759490495  1.0000
  C   C17       1.0  0.0029380139113755004  0.35670071694664784  0.8689573903732253  1.0000
  C   C18       1.0  0.965447397481583  0.4145156817563346  0.8666038222126884  1.0000
  C   C19       1.0  0.0957218659651318  0.06957031684385133  0.40570245476699535  1.0000
  C   C20       1.0  0.0345843993612505  0.08661153979544882  0.36602826571930075  1.0000
  C   C21       1.0  0.9964914715134725  0.14425894075520063  0.3685832905256277  1.0000
  C   C22       1.0  0.0191407446150791  0.1854572541901263  0.4126894459324361  1.0000
  C   C23       1.0  0.07819522145405948  0.16868136258863595  0.45422960960752323  1.0000
  C   C24       1.0  0.11579600476564882  0.11091324545132152  0.4503555259755457  1.0000
  C   C25       1.0  0.6551053657220436  0.017003413694467905  0.15769343387940177  1.0000
  C   C26       1.0  0.6439880693647096  0.9875425081659377  0.10365865811716896  1.0000
  C   C27       1.0  0.6915903031387742  0.022454313444228505  0.06411338497705539  1.0000
  C   C28       1.0  0.9339664160765012  0.20822623229226883  0.2841491979347239  1.0000
  C   C29       1.0  0.935844659044882  0.15876777254436555  0.3234190388957997  1.0000
  C   C30       1.0  0.8723306899791581  0.12032429153984482  0.3045602837095416  1.0000
  C   C31       1.0  0.8690022238405177  0.22882492341088326  0.9964468918182304  1.0000
  C   C32       1.0  0.8939769523985389  0.29002301374976014  0.002048681310128599  1.0000
  C   C33       1.0  0.8871450975208148  0.3015355081726839  0.062362316978123986  1.0000
  C   C34       1.0  0.34739556223603774  0.4797862825535832  0.6546786397790355  1.0000
  C   C35       1.0  0.3596241410826195  0.5102943995130503  0.6010585521410972  1.0000
  C   C36       1.0  0.31424223282059666  0.4754140991443877  0.5610719418483185  1.0000
  C   C37       1.0  0.0642725070165469  0.29214410016374615  0.7837898849823404  1.0000
  C   C38       1.0  0.06376171561609567  0.3415273433392302  0.8230635168139315  1.0000
  C   C39       1.0  0.12860088202835132  0.3788837167818714  0.8032601933451247  1.0000
  C   C40       1.0  0.13145588229290442  0.27157810502619384  0.4945149989444743  1.0000
  C   C41       1.0  0.1031192880852601  0.21120705510443835  0.500603730783915  1.0000
  C   C42       1.0  0.1077196234407367  0.199775654185423  0.5609611496177463  1.0000
  C   C43       1.0  0.15343301245602697  0.9812727386095195  0.3438376239702449  1.0000
  C   C44       1.0  0.1417299509031977  0.012570928917028802  0.3970445839619146  1.0000
  C   C45       1.0  0.18913882032375542  0.9790840359026449  0.43701703384249396  1.0000
  C   C46       1.0  0.43837738722600506  0.7920602629901267  0.21802888698330486  1.0000
  C   C47       1.0  0.4378398433623687  0.8402209777097841  0.17728053458728968  1.0000
  C   C48       1.0  0.37211684466942785  0.8773631918375391  0.19589857614634806  1.0000
  C   C49       1.0  0.3659055597670715  0.773049916551031  0.5075160470435378  1.0000
  C   C50       1.0  0.3928967306331614  0.7122962329380159  0.5014468963264064  1.0000
  C   C51       1.0  0.3889190441750969  0.7012995192453603  0.4410326474379218  1.0000
  C   C52       1.0  0.8436007172483427  0.5164077409817552  0.8427964588360196  1.0000
  C   C53       1.0  0.8577067473963568  0.4886024379104159  0.8972973370677122  1.0000
  C   C54       1.0  0.812962134498953  0.5250759727787795  0.9371705277114301  1.0000
  C   C55       1.0  0.5661641686451516  0.7080373067965128  0.7142331633625502  1.0000
  C   C56       1.0  0.5618657597040908  0.6571873888258609  0.6768564139969441  1.0000
  C   C57       1.0  0.6231545297380804  0.6176126372779366  0.697427221426146  1.0000
  C   C58       1.0  0.6321179341673114  0.7303957203396296  0.001989049956463897  1.0000
  C   C59       1.0  0.6052201370854818  0.7911290988161638  0.9962973532646087  1.0000
  C   C60       1.0  0.6108286671337524  0.8025786288954753  0.9358846512362644  1.0000
  N   N1        1.0  0.7282146998019527  0.06902774630253111  0.09261771786129457  1.0000
  N   N2        1.0  0.7057822287201105  0.06538939988382  0.15081440186272485  1.0000
  N   N3        1.0  0.8355006900157917  0.1450126310771651  0.2574239761020607  1.0000
  N   N4        1.0  0.8741551009646712  0.19940564302756775  0.24431163593504118  1.0000
  N   N5        1.0  0.8604775018206327  0.2507429549272757  0.09065417307937199  1.0000
  N   N6        1.0  0.848441332106745  0.2057062278405866  0.0495637512839124  1.0000
  N   N7        1.0  0.27763123480558954  0.4279399360018417  0.5890470472764234  1.0000
  N   N8        1.0  0.2980400544126737  0.43091225628099755  0.6472471883964842  1.0000
  N   N9        1.0  0.16492070506752302  0.35359896163862464  0.7555969064616261  1.0000
  N   N10       1.0  0.12458252079773757  0.2999703727784961  0.7430609258501377  1.0000
  N   N11       1.0  0.1363821958725708  0.24986258583074783  0.588814343762145  1.0000
  N   N12       1.0  0.1518867412344633  0.2943233199088057  0.5473985099493247  1.0000
  N   N13       1.0  0.22621493520433233  0.931587874373719  0.4095226482446463  1.0000
  N   N14       1.0  0.2042639684327341  0.9331949202820555  0.3515472434183947  1.0000
  N   N15       1.0  0.3362231577191039  0.8531510269834114  0.24426455009350426  1.0000
  N   N16       1.0  0.3777153640507434  0.8004115994962009  0.2584172207665674  1.0000
  N   N17       1.0  0.361978780224625  0.7519168117194114  0.4130943248745849  1.0000
  N   N18       1.0  0.3469244827117563  0.7963875061110528  0.4544908830088374  1.0000
  N   N19       1.0  0.7750653536035088  0.5709905712894995  0.9083459402790267  1.0000
  N   N20       1.0  0.7938647357398948  0.5653317711945292  0.8497125926257709  1.0000
  N   N21       1.0  0.6609173678120258  0.6429705784673703  0.7437390667798808  1.0000
  N   N22       1.0  0.6251214272258281  0.6989412922834292  0.7546728250991279  1.0000
  N   N23       1.0  0.6387301088278575  0.7521099953577778  0.907652682481199  1.0000
  N   N24       1.0  0.6526887334929015  0.7074356499535244  0.9488842935383346  1.0000
