data_image0
_chemical_formula_structural       Zn2H12C36Br6N2O10
_chemical_formula_sum              "Zn2 H12 C36 Br6 N2 O10"
_cell_length_a       11.752387640283374
_cell_length_b       13.143597023587017
_cell_length_c       16.168374399849608
_cell_angle_alpha    89.89697662264383
_cell_angle_beta     85.16371136450539
_cell_angle_gamma    85.83822132075366

_space_group_name_H-M_alt    "P 1"
_space_group_IT_number       1

loop_
  _space_group_symop_operation_xyz
  'x, y, z'

loop_
  _atom_site_type_symbol
  _atom_site_label
  _atom_site_symmetry_multiplicity
  _atom_site_fract_x
  _atom_site_fract_y
  _atom_site_fract_z
  _atom_site_occupancy
  Zn  Zn1       1.0  0.6167941231692852  0.5017571347000854  0.49074099252061404  1.0000
  Zn  Zn2       1.0  0.3831952158250472  0.49774593877118906  0.5088401795982451  1.0000
  H   H1        1.0  0.3579322716848665  0.17960306394056147  0.5055186709905259  1.0000
  H   H2        1.0  0.2197418377488916  0.36664341944842965  0.606895391371609  1.0000
  H   H3        1.0  0.907467451213556  0.31322910249816976  0.640161227856048  1.0000
  H   H4        1.0  0.09435200262973355  0.6688999587888702  0.3448678816093179  1.0000
  H   H5        1.0  0.6418250749627816  0.8198823154245078  0.49384980394232525  1.0000
  H   H6        1.0  0.7247080048041143  0.17326083333297504  0.4931520283044366  1.0000
  H   H7        1.0  0.27509011031738595  0.8261754545438225  0.5064029740891984  1.0000
  H   H8        1.0  0.2613922698740012  0.0166471364632272  0.5075218610670833  1.0000
  H   H9        1.0  0.7382880402813895  0.9827719445126989  0.4919442186160554  1.0000
  H   H10       1.0  0.8072588983431926  0.40672432290939753  0.5693629710395032  1.0000
  H   H11       1.0  0.19255059794138424  0.5922268822516301  0.4298536833165089  1.0000
  H   H12       1.0  0.780662697849756  0.6312192345865244  0.3914674720938438  1.0000
  C   C1        1.0  0.46836943998091835  0.6987473997872801  0.4993767038669222  1.0000
  C   C2        1.0  0.4449745625383913  0.027786739927705598  0.5017027026686379  1.0000
  C   C3        1.0  0.04554018338543389  0.3998784984022309  0.5765194040999122  1.0000
  C   C4        1.0  0.9551643899105642  0.5967375776837684  0.4209666946747533  1.0000
  C   C5        1.0  0.1618977279834795  0.4124578800708535  0.5699252222567853  1.0000
  C   C6        1.0  0.8385445713878495  0.5853952516244265  0.42840965227283345  1.0000
  C   C7        1.0  0.14619035281239687  0.53964484011685  0.46996736449868604  1.0000
  C   C8        1.0  0.8540094263611806  0.4582312608182521  0.5285041757733284  1.0000
  C   C9        1.0  0.026157414024893893  0.5340242743719444  0.4709276540684543  1.0000
  C   C10       1.0  0.9743607610921644  0.4624556012121276  0.5265321017566296  1.0000
  C   C11       1.0  0.4945142941689937  0.5004084818774502  0.3374803739417161  1.0000
  C   C12       1.0  0.5315177594264712  0.3007001689012584  0.5000436230120473  1.0000
  C   C13       1.0  0.5054906616673165  0.49920950367994993  0.6620045676044131  1.0000
  C   C14       1.0  0.5025028329974293  0.5968377771051153  0.9704717852808575  1.0000
  C   C15       1.0  0.4975508690499667  0.4029238191521146  0.029023358311612003  1.0000
  C   C16       1.0  0.4042135527492405  0.5561975573283604  0.030749436156966722  1.0000
  C   C17       1.0  0.5958423386790556  0.4435449603156699  0.968744995076428  1.0000
  C   C18       1.0  0.4934417009881572  0.5014219073832109  0.24807040977813707  1.0000
  C   C19       1.0  0.5065293309632254  0.49836639147461886  0.7514080986751283  1.0000
  C   C20       1.0  0.5945071251501802  0.5421615515048473  0.023576235120209815  1.0000
  C   C21       1.0  0.4055226965047681  0.457600272793549  0.9759170945178544  1.0000
  C   C22       1.0  0.49618533464938963  0.5018109550362198  0.08570015913649343  1.0000
  C   C23       1.0  0.3445215299982962  0.9733876579459706  0.5044396932412172  1.0000
  C   C24       1.0  0.5038847308841383  0.497950479994991  0.9137854489043848  1.0000
  C   C25       1.0  0.4933013020555777  0.5020838149525917  0.17286860895426778  1.0000
  C   C26       1.0  0.5066979449703837  0.4977034516356157  0.8266108637622411  1.0000
  C   C27       1.0  0.5395808924216469  0.18671577350061605  0.49982348118861375  1.0000
  C   C28       1.0  0.46017556679748134  0.8127498654844345  0.4996984601106364  1.0000
  C   C29       1.0  0.0014253403397219962  0.3210460467971786  0.6349542655669185  1.0000
  C   C30       1.0  5.709008115670086e-05  0.6729896374046476  0.3604291889278103  1.0000
  C   C31       1.0  0.6552053661266798  0.026075185165837005  0.4950170339218689  1.0000
  C   C32       1.0  0.3516584752377624  0.8684534315885631  0.5036685878425474  1.0000
  C   C33       1.0  0.6480888442038834  0.13100620201703353  0.4958649838067617  1.0000
  C   C34       1.0  0.5593358416222645  0.8639411522411538  0.4966722058601223  1.0000
  C   C35       1.0  0.44041238528163973  0.1355138538682183  0.5027635956636092  1.0000
  C   C36       1.0  0.5547771439087512  0.9716575552495217  0.4977211736463191  1.0000
  Br  Br1       1.0  0.27137457431179973  0.6345811729085327  0.07383516221506883  1.0000
  Br  Br2       1.0  0.7287225455964476  0.36527378283589235  0.9256897048149502  1.0000
  Br  Br3       1.0  0.5059244585672431  0.7310553087062747  0.92915934767224  1.0000
  Br  Br4       1.0  0.49414228058508053  0.2688007676578153  0.0705112617824355  1.0000
  Br  Br5       1.0  0.2750091063370661  0.3990809368330802  0.9419099086666312  1.0000
  Br  Br6       1.0  0.7250960410445514  0.6006557392677865  0.057511998236648834  1.0000
  N   N1        1.0  0.7904090098285367  0.5171785092655342  0.4810322643956655  1.0000
  N   N2        1.0  0.2098049291455908  0.48143405530265687  0.517928104934562  1.0000
  O   O1        1.0  0.5687105580958516  0.6537660642415165  0.49372087842363777  1.0000
  O   O2        1.0  0.9375842346065328  0.7369321424282873  0.3280583952370223  1.0000
  O   O3        1.0  0.43120972967824395  0.34569871521934203  0.5056889958431656  1.0000
  O   O4        1.0  0.37522055111085717  0.6539952555932588  0.5051527455466955  1.0000
  O   O5        1.0  0.6247031177854653  0.345451971210288  0.49428418435958593  1.0000
  O   O6        1.0  0.5925634871375607  0.4990494884549293  0.3656077697265304  1.0000
  O   O7        1.0  0.4074671132233902  0.500618559082085  0.6338695516493902  1.0000
  O   O8        1.0  0.3976500904613971  0.500838453833346  0.3791359176253766  1.0000
  O   O9        1.0  0.6023930433107196  0.4986457686842701  0.6203576584116849  1.0000
  O   O10       1.0  0.0640465347065842  0.2662472951762496  0.6755169587454548  1.0000
