data_image0
_chemical_formula_structural       Sm4P4H24C8S4O28
_chemical_formula_sum              "Sm4 P4 H24 C8 S4 O28"
_cell_length_a       7.101370532755048
_cell_length_b       8.32615308801429
_cell_length_c       13.093887140042721
_cell_angle_alpha    90.00014277987839
_cell_angle_beta     89.99971780869627
_cell_angle_gamma    103.28194237479444

_space_group_name_H-M_alt    "P 1"
_space_group_IT_number       1

loop_
  _space_group_symop_operation_xyz
  'x, y, z'

loop_
  _atom_site_type_symbol
  _atom_site_label
  _atom_site_symmetry_multiplicity
  _atom_site_fract_x
  _atom_site_fract_y
  _atom_site_fract_z
  _atom_site_occupancy
  Sm  Sm1       1.0  0.24399047055112538  0.49669085566467436  0.922673362224344  1.0000
  Sm  Sm2       1.0  0.2560087912077691  0.5033084442834834  0.42267133287325703  1.0000
  Sm  Sm3       1.0  0.7560097363040158  0.5033080332673094  0.07732707278665166  1.0000
  Sm  Sm4       1.0  0.7439917494216389  0.4966916786909437  0.5773283384231147  1.0000
  P   P1        1.0  0.2782646212242099  0.6386151762607993  0.6471990824435065  1.0000
  P   P2        1.0  0.22173696772814114  0.3613834994681469  0.14719462896879776  1.0000
  P   P3        1.0  0.721735919405191  0.36138494671362764  0.35280058885286525  1.0000
  P   P4        1.0  0.7782639066723007  0.6386178575495832  0.852805042328107  1.0000
  H   H1        1.0  0.27949709517578464  0.22828978897372562  0.7886265824928668  1.0000
  H   H2        1.0  0.2205025586622895  0.7717116765129928  0.28862965556734105  1.0000
  H   H3        1.0  0.7205027779083225  0.7717078659149549  0.21137385251759602  1.0000
  H   H4        1.0  0.7794983157349263  0.22828968050560408  0.7113707794447135  1.0000
  H   H5        1.0  0.48285970029621694  0.25195000954960284  0.8420558409304773  1.0000
  H   H6        1.0  0.017138094323250617  0.74805157819722  0.34205789369082124  1.0000
  H   H7        1.0  0.5171376908447343  0.7480488817666925  0.1579445940842915  1.0000
  H   H8        1.0  0.9828624463029244  0.2519485447780738  0.6579425413207076  1.0000
  H   H9        1.0  0.11120904079315613  0.8935238711933948  0.5513448555918001  1.0000
  H   H10       1.0  0.38879228381603065  0.1064758225750282  0.051346424514470385  1.0000
  H   H11       1.0  0.8887900919791535  0.10647625297318801  0.4486548157064617  1.0000
  H   H12       1.0  0.6112082568101515  0.8935243004002658  0.9486540104970512  1.0000
  H   H13       1.0  0.3392579065400484  0.9329192293029251  0.49050703247751654  1.0000
  H   H14       1.0  0.1607446719540491  0.06707898673773371  0.9905078406914779  1.0000
  H   H15       1.0  0.6607415600032953  0.0670821289069607  0.5094926388212712  1.0000
  H   H16       1.0  0.8392558686753521  0.9329211362366865  0.009491830604893897  1.0000
  H   H17       1.0  0.2842722024439866  0.8980173503418031  0.7246598527489422  1.0000
  H   H18       1.0  0.21572799179043764  0.10198397019530596  0.2246603505723072  1.0000
  H   H19       1.0  0.7157283381821883  0.10198277263348392  0.27534058226258645  1.0000
  H   H20       1.0  0.7842711409818719  0.8980161539712768  0.7753393207259475  1.0000
  H   H21       1.0  0.5031142504060429  0.9043825307083964  0.658622643057164  1.0000
  H   H22       1.0  0.9968865485480336  0.0956173654614503  0.15862237788815034  1.0000
  H   H23       1.0  0.4968866239943921  0.09561882630934092  0.34137702823973354  1.0000
  H   H24       1.0  0.0031125842210500414  0.9043827587059993  0.8413780571252613  1.0000
  C   C1        1.0  0.266347838521348  0.9451601444888809  0.5629119184396811  1.0000
  C   C2        1.0  0.23365479622918173  0.054839574297510296  0.06291305731697608  1.0000
  C   C3        1.0  0.733652702104827  0.05483997848640601  0.4370885165718405  1.0000
  C   C4        1.0  0.7663457443969932  0.9451605486777767  0.9370873776945456  1.0000
  C   C5        1.0  0.3448646204693659  0.8639343597322195  0.6527590179843937  1.0000
  C   C6        1.0  0.15513725526233207  0.13606556264453226  0.15275973203946336  1.0000
  C   C7        1.0  0.6551359201600351  0.13606576324220043  0.34724065331197795  1.0000
  C   C8        1.0  0.8448629515960422  0.8639333262865919  0.8472399392563756  1.0000
  S   S1        1.0  0.28610757883919996  0.15881362918362638  0.585340819620171  1.0000
  S   S2        1.0  0.21388823370628535  0.8411824430609727  0.08533867441681757  1.0000
  S   S3        1.0  0.7138929617869822  0.8411864937916677  0.4146596153913506  1.0000
  S   S4        1.0  0.7861123069198895  0.15881767991431422  0.9146617605947039  1.0000
  O   O1        1.0  0.25297585966922764  0.5791310951792996  0.7569120967128169  1.0000
  O   O2        1.0  0.24702083984425374  0.42087400414642673  0.2569122520214647  1.0000
  O   O3        1.0  0.7470246809601732  0.42086902779512764  0.24308757458355496  1.0000
  O   O4        1.0  0.7529782929280557  0.5791261200201488  0.74308741927679  1.0000
  O   O5        1.0  0.09391256871906961  0.5899955831629596  0.579574605268746  1.0000
  O   O6        1.0  0.40608603547228483  0.41000541099874244  0.07957431741203178  1.0000
  O   O7        1.0  0.9060879719103384  0.4100045398114673  0.4204250660276258  1.0000
  O   O8        1.0  0.5939130972967988  0.5899947131687  0.9204261176013727  1.0000
  O   O9        1.0  0.43310575342798785  0.5737596404915166  0.5862108229176213  1.0000
  O   O10       1.0  0.066894942882243  0.4262388982343309  0.08620841422975185  1.0000
  O   O11       1.0  0.5668947872014131  0.4262404824829104  0.41378884837875046  1.0000
  O   O12       1.0  0.9331055977471577  0.5737612247400957  0.9137912570666199  1.0000
  O   O13       1.0  0.1692772450063771  0.16693454848781641  0.6778711827974956  1.0000
  O   O14       1.0  0.33073105131546754  0.8330691281552233  0.17787329415487105  1.0000
  O   O15       1.0  0.8307257047899982  0.8330692754252311  0.3221292522137346  1.0000
  O   O16       1.0  0.6692694893139334  0.1669309948192037  0.8221263771415008  1.0000
  O   O17       1.0  0.49161037986817036  0.23585906153870434  0.6020621487099189  1.0000
  O   O18       1.0  0.008395073628939495  0.7641419776201558  0.10206348666005029  1.0000
  O   O19       1.0  0.5083901607612306  0.7641410614357228  0.3979375225864529  1.0000
  O   O20       1.0  0.9916040591401442  0.2358581465472867  0.8979369483533615  1.0000
  O   O21       1.0  0.20252905584683137  0.22355310486470611  0.4948323364775219  1.0000
  O   O22       1.0  0.2974730795570438  0.7764488243007647  0.9948346656456192  1.0000
  O   O23       1.0  0.7974718185503775  0.7764482521538837  0.5051680985345326  1.0000
  O   O24       1.0  0.702527461072357  0.2235512986736623  0.0051650056507526  1.0000
  O   O25       1.0  0.3519486903781868  0.27218902688787244  0.8512450529408964  1.0000
  O   O26       1.0  0.14805391772657123  0.7278150461911324  0.35124672308005944  1.0000
  O   O27       1.0  0.6480463643526306  0.72780122612874  0.14875843693076254  1.0000
  O   O28       1.0  0.8519469566738636  0.2721863108265978  0.6487529482168451  1.0000
