data_image0
_chemical_formula_structural       Al2H10C28Cl4O10F2
_chemical_formula_sum              "Al2 H10 C28 Cl4 O10 F2"
_cell_length_a       6.606545259243214
_cell_length_b       11.154809606295563
_cell_length_c       17.735170003017117
_cell_angle_alpha    85.03473662370257
_cell_angle_beta     79.76880277151693
_cell_angle_gamma    71.85071039844809

_space_group_name_H-M_alt    "P 1"
_space_group_IT_number       1

loop_
  _space_group_symop_operation_xyz
  'x, y, z'

loop_
  _atom_site_type_symbol
  _atom_site_label
  _atom_site_symmetry_multiplicity
  _atom_site_fract_x
  _atom_site_fract_y
  _atom_site_fract_z
  _atom_site_occupancy
  Al  Al1       1.0  0.5020236799423043  0.49933913575538474  0.5007949427883603  1.0000
  Al  Al2       1.0  0.004182346840174469  0.49562141433607837  0.5012324677763261  1.0000
  H   H1        1.0  0.31106672973462673  0.34925701599794223  0.5507990796880334  1.0000
  H   H2        1.0  0.7026816878619754  0.649614804387234  0.4593522010613356  1.0000
  H   H3        1.0  0.6467906413374748  0.5477260874809318  0.27156289599480493  1.0000
  H   H4        1.0  0.7213253367282205  0.552128190170805  0.12802069658663132  1.0000
  H   H5        1.0  0.06276592842480266  0.4549435898234647  0.2672256725347495  1.0000
  H   H6        1.0  0.9293677312640012  0.5546643854358138  0.7344346612964685  1.0000
  H   H7        1.0  0.3491809802669009  0.45810537469819235  0.7296450079758046  1.0000
  H   H8        1.0  0.2663532175564285  0.4617684169011511  0.8731277832032731  1.0000
  H   H9        1.0  0.2014961253272316  0.22943277434226428  0.3892804996013197  1.0000
  H   H10       1.0  0.4249561740387335  0.7597490891714571  0.3979783261675465  1.0000
  C   C1        1.0  0.862031748277225  0.2727742575994369  0.4923480143031965  1.0000
  C   C2        1.0  0.6949674903606818  0.5000598952122104  0.6386089399989173  1.0000
  C   C3        1.0  0.1391495109749528  0.7234372268773156  0.5069361905115527  1.0000
  C   C4        1.0  0.30702240226852945  0.4987712776945089  0.3630216192847016  1.0000
  C   C5        1.0  0.3515783024602753  0.5011776805265029  0.2778514852065896  1.0000
  C   C6        1.0  0.5367429306689573  0.5286484643095761  0.2385545760509657  1.0000
  C   C7        1.0  0.5775306938895354  0.5316511076485783  0.1590660495871106  1.0000
  C   C8        1.0  0.4342804115403777  0.506888382650189  0.11635999174599483  1.0000
  C   C9        1.0  0.2501072755659308  0.4795403041473065  0.1578759289880551  1.0000
  C   C10       1.0  0.20647265643501805  0.47644610749572547  0.23697594747563502  1.0000
  C   C11       1.0  0.4734775975474434  0.5086434207798264  0.035593231487951  1.0000
  C   C12       1.0  0.509808527638107  0.5095851587772273  0.9656926732237848  1.0000
  C   C13       1.0  0.5514657025950528  0.5089636334369416  0.8849674138380407  1.0000
  C   C14       1.0  0.7364489200452766  0.5355533380247337  0.8435954890690454  1.0000
  C   C15       1.0  0.7848076663469145  0.5339679084043424  0.7645764888805716  1.0000
  C   C16       1.0  0.6435847809522884  0.5051679508215728  0.7236678570366877  1.0000
  C   C17       1.0  0.4565805715264517  0.47962134914263993  0.7628179779616104  1.0000
  C   C18       1.0  0.41117333058866007  0.4812059293688833  0.8422014740780241  1.0000
  C   C19       1.0  0.9319475829621098  0.1313328628612496  0.49399768958238616  1.0000
  C   C20       1.0  0.12305403095261619  0.0639623583340665  0.44530499365264825  1.0000
  C   C21       1.0  0.8134979726171989  0.0668217824269277  0.5446034624852345  1.0000
  C   C22       1.0  0.24855067301620432  0.1267511652485709  0.3930325247746112  1.0000
  C   C23       1.0  0.43419015223036433  0.0598042298560699  0.347069977324999  1.0000
  C   C24       1.0  0.06579950416326605  0.8648608241392637  0.5020726416731662  1.0000
  C   C25       1.0  0.8814068557174152  0.9324145125770471  0.5490593171774236  1.0000
  C   C26       1.0  0.18957985683219636  0.9287151053328204  0.4488987619340535  1.0000
  C   C27       1.0  0.376271612958824  0.8623117842893323  0.3988840559097823  1.0000
  C   C28       1.0  0.4987413288475649  0.9253929139117931  0.3499621282962763  1.0000
  Cl  Cl1       1.0  0.7386985430228067  0.8555179725705101  0.6157470799594833  1.0000
  Cl  Cl2       1.0  0.5902288068583912  0.14686472414050664  0.6072341703178594  1.0000
  Cl  Cl3       1.0  0.5851607675565517  0.13989983980988538  0.286348318091477  1.0000
  Cl  Cl4       1.0  0.729399749356503  0.839783797738839  0.293010189250765  1.0000
  O   O1        1.0  0.6762998709499684  0.32982818771144923  0.4759338032200091  1.0000
  O   O2        1.0  0.8714553678624026  0.519114458458013  0.6065079769380546  1.0000
  O   O3        1.0  0.01096668382904648  0.6677676867814669  0.4919636840976622  1.0000
  O   O4        1.0  0.4382034605410396  0.527951351725214  0.39759257319916935  1.0000
  O   O5        1.0  0.32705131161463186  0.6702588309049134  0.5230285272773401  1.0000
  O   O6        1.0  0.1390495651570659  0.47007294006042616  0.39561064231887844  1.0000
  O   O7        1.0  0.9950349211661444  0.32437262877412826  0.5083819697848854  1.0000
  O   O8        1.0  0.5602441968275825  0.47462962655705354  0.6041098158425129  1.0000
  O   O9        1.0  0.27042421543426093  0.437266428883383  0.5335137544339617  1.0000
  O   O10       1.0  0.7373520669043  0.5588766282153088  0.46816064717566525  1.0000
  F   F1        1.0  0.11042684634755057  0.4551685512002948  0.11782035568049311  1.0000
  F   F2        1.0  0.8728553176624699  0.5632501452711907  0.883712229140137  1.0000
