data_image0
_chemical_formula_structural       Mn2H28C40N2O14
_chemical_formula_sum              "Mn2 H28 C40 N2 O14"
_cell_length_a       6.773263718680247
_cell_length_b       9.860221901887
_cell_length_c       13.184883945133343
_cell_angle_alpha    94.38019211649588
_cell_angle_beta     100.25832023847013
_cell_angle_gamma    96.35571950921309

_space_group_name_H-M_alt    "P 1"
_space_group_IT_number       1

loop_
  _space_group_symop_operation_xyz
  'x, y, z'

loop_
  _atom_site_type_symbol
  _atom_site_label
  _atom_site_symmetry_multiplicity
  _atom_site_fract_x
  _atom_site_fract_y
  _atom_site_fract_z
  _atom_site_occupancy
  Mn  Mn1       1.0  0.6859286671281668  0.9607503501591451  0.5950754177677382  1.0000
  Mn  Mn2       1.0  0.314072690591594  0.0392477919050549  0.40492213697822177  1.0000
  H   H1        1.0  0.6900258567922039  0.5088848078989017  0.9615056407876638  1.0000
  H   H2        1.0  0.30998264957173655  0.4911194900679659  0.03849746877776278  1.0000
  H   H3        1.0  0.9783246093748517  0.15666643155953613  0.04609192963889798  1.0000
  H   H4        1.0  0.02168200929402526  0.8433358180585696  0.9539086144492117  1.0000
  H   H5        1.0  0.9478636911928149  0.21109279092615907  0.22962835602859852  1.0000
  H   H6        1.0  0.052143490791038985  0.7889043403390587  0.7703704192938687  1.0000
  H   H7        1.0  0.6521678769347474  0.5617631196000372  0.14344455748448579  1.0000
  H   H8        1.0  0.3478380153646441  0.4382350217723853  0.8565579542096486  1.0000
  H   H9        1.0  0.8170712524913953  0.6456874007536442  0.30443735884046674  1.0000
  H   H10       1.0  0.18292714449741965  0.3543107151630096  0.6955659967018518  1.0000
  H   H11       1.0  0.7219501539647055  0.5078504321822876  0.5949648078616719  1.0000
  H   H12       1.0  0.27802778519227905  0.4921425087401303  0.4050341337042838  1.0000
  H   H13       1.0  0.7458385966530728  0.21252562271354944  0.3421721405152311  1.0000
  H   H14       1.0  0.25416261193377215  0.7874714784305252  0.6578306485428982  1.0000
  H   H15       1.0  0.4154551824610096  0.12562722282890357  0.7132133705314274  1.0000
  H   H16       1.0  0.5845473089578235  0.8743770627559684  0.28678768248400394  1.0000
  H   H17       1.0  0.7268455010039717  0.795764424960133  0.7800968493156971  1.0000
  H   H18       1.0  0.2731667340084912  0.20424398966081006  0.21990456213300294  1.0000
  H   H19       1.0  0.6811699177980515  0.8150823533803333  0.962494403432686  1.0000
  H   H20       1.0  0.3188383874978555  0.18492092584034478  0.0375063525878474  1.0000
  H   H21       1.0  0.3440282948660355  0.1556892675954558  0.8905693057131288  1.0000
  H   H22       1.0  0.6559717731692702  0.8443098845759566  0.10943198540449121  1.0000
  H   H23       1.0  0.7614927298949753  0.33720814333801025  0.7427168024391122  1.0000
  H   H24       1.0  0.23849494766212592  0.6627889288378698  0.2572817387743953  1.0000
  H   H25       1.0  0.9729518787520137  0.11234412299821632  0.7383877344603462  1.0000
  H   H26       1.0  0.027042141518158803  0.8876632224261839  0.2616097065077199  1.0000
  H   H27       1.0  0.06486885643472111  0.0973942221061392  0.6347214717619424  1.0000
  H   H28       1.0  0.9351201039543684  0.9026100345105444  0.3652753334088743  1.0000
  C   C1        1.0  0.8629301960720925  0.29744729839450196  0.8838367295214908  1.0000
  C   C2        1.0  0.13707190359767912  0.702554945263202  0.1161611339755737  1.0000
  C   C3        1.0  0.8403176439167982  0.33080588394034993  0.9925810242709616  1.0000
  C   C4        1.0  0.15969233761910573  0.6691984293176888  0.007418426110582714  1.0000
  C   C5        1.0  0.7469504533202523  0.4444544708405971  0.020673766234779116  1.0000
  C   C6        1.0  0.2530563560296386  0.555548801958487  0.9793276138268183  1.0000
  C   C7        1.0  0.9106630378068488  0.24679127209427074  0.0687006673036876  1.0000
  C   C8        1.0  0.08934676343506  0.7532120135479942  0.9312994646757816  1.0000
  C   C9        1.0  0.8918149540509861  0.27695959775287093  0.17101271732313714  1.0000
  C   C10       1.0  0.10819411562793844  0.7230395818611155  0.828988623476647  1.0000
  C   C11       1.0  0.7281646839490605  0.4745708227227681  0.12294737299250613  1.0000
  C   C12       1.0  0.2718428845903347  0.5254283526870154  0.8770538330626323  1.0000
  C   C13       1.0  0.8020710858465138  0.39232978399169127  0.20014833099213553  1.0000
  C   C14       1.0  0.19793330011984983  0.6076683553939332  0.7998532871716435  1.0000
  C   C15       1.0  0.7827342700560466  0.425015967668429  0.3088088904083151  1.0000
  C   C16       1.0  0.21726824379578602  0.5749801167162544  0.6911924386352695  1.0000
  C   C17       1.0  0.7908977716120802  0.5611375667716559  0.3510338305477063  1.0000
  C   C18       1.0  0.2091006253767347  0.438860549145005  0.6489695249946125  1.0000
  C   C19       1.0  0.7712762425446942  0.5907387465401684  0.4540318717781275  1.0000
  C   C20       1.0  0.22872158759458475  0.409256297616153  0.545969734629459  1.0000
  C   C21       1.0  0.7739644359887734  0.734303069692011  0.49933524680212577  1.0000
  C   C22       1.0  0.22603075765295702  0.26569401907006096  0.5006654857060155  1.0000
  C   C23       1.0  0.7406906909492933  0.48398913807119476  0.5155758052374112  1.0000
  C   C24       1.0  0.2592994480048745  0.5160048596657774  0.48442505025917626  1.0000
  C   C25       1.0  0.7537692842511987  0.3193262413395458  0.372049466056616  1.0000
  C   C26       1.0  0.24623210462963394  0.6806718874202958  0.6279526414035814  1.0000
  C   C27       1.0  0.4712100167713872  0.05945369645193208  0.7716002555117996  1.0000
  C   C28       1.0  0.5287952862454759  0.9405495743603606  0.2284002310194495  1.0000
  C   C29       1.0  0.6472788755649931  0.8761168463923495  0.8093022714068141  1.0000
  C   C30       1.0  0.35272961002490194  0.12388746044409517  0.19069780301578731  1.0000
  C   C31       1.0  0.6195981981742735  0.887550234221159  0.911113376642632  1.0000
  C   C32       1.0  0.38040730071710993  0.11245405755471437  0.0888887046478004  1.0000
  C   C33       1.0  0.43499762784031054  0.0762859097478596  0.8718918860550744  1.0000
  C   C34       1.0  0.5650058082555348  0.9237153038460874  0.1281090701416758  1.0000
  C   C35       1.0  0.5138878724138749  0.9912622027378714  0.9456468346189267  1.0000
  C   C36       1.0  0.48611687414047117  0.008737991879286299  0.054353420348995506  1.0000
  C   C37       1.0  0.7306752408420182  0.3482751386692086  0.4743353142614026  1.0000
  C   C38       1.0  0.2693210777707193  0.6517199057177122  0.5256646398301257  1.0000
  C   C39       1.0  0.6909114643556009  0.23462879829877173  0.5385616262744506  1.0000
  C   C40       1.0  0.30907565673898324  0.7653651976819872  0.46143668337573024  1.0000
  N   N1        1.0  0.5783007263516993  0.9622247570213387  0.7405947022400737  1.0000
  N   N2        1.0  0.42170495283367876  0.03778056237030819  0.2594066974524267  1.0000
  O   O1        1.0  0.9633776420395463  0.2065114177625986  0.8585262692472  1.0000
  O   O2        1.0  0.03662126467017395  0.7934897943057279  0.1414704887870926  1.0000
  O   O3        1.0  0.7647803325766064  0.3733709337957762  0.8176030604928856  1.0000
  O   O4        1.0  0.23521708857413165  0.626630267416175  0.1823958391538767  1.0000
  O   O5        1.0  0.7405730312925058  0.7522718558086509  0.591841192629154  1.0000
  O   O6        1.0  0.25942536050279597  0.24772626232540065  0.4081614041274619  1.0000
  O   O7        1.0  0.79764144142262  0.8360844801818315  0.4465316804696187  1.0000
  O   O8        1.0  0.2023531957566007  0.1639095323851194  0.5534688204751887  1.0000
  O   O9        1.0  0.6410158882599363  0.1116260601702663  0.4911290664447563  1.0000
  O   O10       1.0  0.35897872814523885  0.8883679612662546  0.5088683993572332  1.0000
  O   O11       1.0  0.7031332367308638  0.2560022709867837  0.6348707962822147  1.0000
  O   O12       1.0  0.2968354997144615  0.7439896237468773  0.3651257420566765  1.0000
  O   O13       1.0  0.9826112869610953  0.046661891429387516  0.6790212469903453  1.0000
  O   O14       1.0  0.0173850144121488  0.9533413519403239  0.3209791898587397  1.0000
