data_image0
_chemical_formula_structural       Hf6H46C96O32
_chemical_formula_sum              "Hf6 H46 C96 O32"
_cell_length_a       17.95619934544748
_cell_length_b       22.51382542788899
_cell_length_c       22.629040454096316
_cell_angle_alpha    65.14733028781886
_cell_angle_beta     89.26858109839543
_cell_angle_gamma    88.63169217882005

_space_group_name_H-M_alt    "P 1"
_space_group_IT_number       1

loop_
  _space_group_symop_operation_xyz
  'x, y, z'

loop_
  _atom_site_type_symbol
  _atom_site_label
  _atom_site_symmetry_multiplicity
  _atom_site_fract_x
  _atom_site_fract_y
  _atom_site_fract_z
  _atom_site_occupancy
  Hf  Hf1       1.0  0.2119754359671049  0.9717619942413335  0.03929949532953705  1.0000
  Hf  Hf2       1.0  0.9460985370064209  0.9466871769493893  0.030819189958506847  1.0000
  Hf  Hf3       1.0  0.08581371175996819  0.8582442163201661  0.13638845969941818  1.0000
  Hf  Hf4       1.0  0.07319390492025953  0.0611239595400335  0.933943010542073  1.0000
  Hf  Hf5       1.0  0.1034426418758585  0.8951654272489481  0.9641461786342799  1.0000
  Hf  Hf6       1.0  0.0545973742101324  0.029189665335188405  0.0997273084541632  1.0000
  H   H1        1.0  0.7366232905616386  0.017126055820810403  0.7430321719681316  1.0000
  H   H2        1.0  0.6069820304016318  0.17326588317191494  0.5982817631136967  1.0000
  H   H3        1.0  0.7452541264625127  0.2135014073872625  0.7311155201174983  1.0000
  H   H4        1.0  0.45769080386663313  0.725658382578587  0.9766221102268343  1.0000
  H   H5        1.0  0.5713558913484819  0.7309927327973967  0.805232823785161  1.0000
  H   H6        1.0  0.4544754901149021  0.9034066788170779  0.7991170094133935  1.0000
  H   H7        1.0  0.7042528652832161  0.193228309730479  0.09631519347883001  1.0000
  H   H8        1.0  0.5717507345117667  0.18427621184688556  0.2603451439478022  1.0000
  H   H9        1.0  0.6995943023538018  0.014531141755618602  0.2726891058428436  1.0000
  H   H10       1.0  0.626987960502568  0.06621237262805832  0.487056195312519  1.0000
  H   H11       1.0  0.5138727631783694  0.8467351136923896  0.5791647943609987  1.0000
  H   H12       1.0  0.41012739877778165  0.8910276795173857  0.31978829678620696  1.0000
  H   H13       1.0  0.5409556575071975  0.7411624364053894  0.4699347698654819  1.0000
  H   H14       1.0  0.4137842438036401  0.6926323020243077  0.3364352933605373  1.0000
  H   H15       1.0  0.4056834065976674  0.25639311485354455  0.9643332153357563  1.0000
  H   H16       1.0  0.5538057263227432  0.3894700036539049  0.8202219840125478  1.0000
  H   H17       1.0  0.4085529573988609  0.269141343910043  0.7683835538887323  1.0000
  H   H18       1.0  0.7205107915081754  0.6634705778998511  0.29467589911654796  1.0000
  H   H19       1.0  0.6060389468919568  0.5213569878986917  0.2495657035558096  1.0000
  H   H20       1.0  0.7199912886634935  0.6801437471321778  0.0975132570096732  1.0000
  H   H21       1.0  0.6560387553705668  0.4011495848110231  0.47959712381721414  1.0000
  H   H22       1.0  0.5013775160942373  0.5106451963803025  0.5901633807007869  1.0000
  H   H23       1.0  0.5216716683810178  0.5043059254249656  0.9235810001082569  1.0000
  H   H24       1.0  0.6293076925781591  0.41268396017400044  0.14568575160195238  1.0000
  H   H25       1.0  0.1922095423027628  0.9986369588905862  0.9000903721687548  1.0000
  H   H26       1.0  0.9975935712210884  0.8119459612579686  0.07113378271560589  1.0000
  H   H27       1.0  0.9489487639081773  0.08508847864769112  0.9931288184083086  1.0000
  H   H28       1.0  0.17426164092604074  0.9507931738016565  0.17072607780507815  1.0000
  H   H29       1.0  0.08113807810385511  0.7812287682007694  0.9843189682050947  1.0000
  H   H30       1.0  0.0055143628040497  0.8368058054578288  0.2382878246895997  1.0000
  H   H31       1.0  0.9963395059343368  0.9805774644884906  0.22300633248074306  1.0000
  H   H32       1.0  0.09920212344516702  0.9188442552366356  0.8437228593269737  1.0000
  H   H33       1.0  0.042483707736174395  0.11015925362559645  0.8049950717671948  1.0000
  H   H34       1.0  0.08547908507321011  0.188291660463527  0.8974300806070303  1.0000
  H   H35       1.0  0.0721698303482938  0.15510182865926941  0.05965696253825569  1.0000
  H   H36       1.0  0.9736144376259408  0.8512773904858407  0.9423867702932822  1.0000
  H   H37       1.0  0.8519127401690127  0.9205891560666047  0.9432475690541932  1.0000
  H   H38       1.0  0.31658750286354836  0.050763364386668314  0.056021299132339684  1.0000
  H   H39       1.0  0.1330825813982557  0.0621383072335959  0.1792863559033151  1.0000
  H   H40       1.0  0.1263481270799645  0.13117771134859174  0.8080022535342266  1.0000
  H   H41       1.0  0.8577044805069249  0.8620777044039017  0.013275470846728768  1.0000
  H   H42       1.0  0.0716436602705954  0.7307418935688119  0.20706096007334904  1.0000
  H   H43       1.0  0.1702494060372999  0.7708657377123701  0.9969413925982308  1.0000
  H   H44       1.0  0.04228483234649621  0.1532943357170353  0.9913241361681385  1.0000
  H   H45       1.0  0.046762172628156407  0.9164708498080146  0.22069832450668495  1.0000
  H   H46       1.0  0.3264135147376521  0.9799565246497725  0.11465170046697874  1.0000
  C   C1        1.0  0.7464537301215161  0.11299467495259564  0.7427270338074905  1.0000
  C   C2        1.0  0.718468581892175  0.06827637834367549  0.7204662346212132  1.0000
  C   C3        1.0  0.6684059420255437  0.09002693035209572  0.6679968810856919  1.0000
  C   C4        1.0  0.6457301294423063  0.15632938652183279  0.6389418543554513  1.0000
  C   C5        1.0  0.6725204198031989  0.20094524783885256  0.6617807055354348  1.0000
  C   C6        1.0  0.7233254852952343  0.17913296102828724  0.7136725243200887  1.0000
  C   C7        1.0  0.45120576019132147  0.8181165761667798  0.8914574562122652  1.0000
  C   C8        1.0  0.4747161654025689  0.7525733292417344  0.9260970718331477  1.0000
  C   C9        1.0  0.518171637382416  0.7208680349500584  0.8953163944689206  1.0000
  C   C10       1.0  0.5383761261071812  0.7554791462523412  0.8294560124673538  1.0000
  C   C11       1.0  0.5161160504615695  0.8215034916137968  0.7946332441116937  1.0000
  C   C12       1.0  0.47285814241170965  0.8527289302721003  0.8260759513394615  1.0000
  C   C13       1.0  0.7072277631580732  0.10040371245523261  0.18122298094813513  1.0000
  C   C14       1.0  0.683328867136055  0.16568428945360844  0.14551539185760728  1.0000
  C   C15       1.0  0.6343005510814379  0.19622355279279458  0.17376228555716713  1.0000
  C   C16       1.0  0.6089872165954661  0.1606280335751009  0.23804828583477186  1.0000
  C   C17       1.0  0.631881211102545  0.09493160902000143  0.27382014684970096  1.0000
  C   C18       1.0  0.6808012430903148  0.0649608366951995  0.24495013527963752  1.0000
  C   C19       1.0  0.5929524357535103  0.9850662429725291  0.5748644143991226  1.0000
  C   C20       1.0  0.5605860316848209  0.9218118378215582  0.601841715265209  1.0000
  C   C21       1.0  0.5390617734493616  0.8947716738195196  0.5591689147565687  1.0000
  C   C22       1.0  0.5477945461377801  0.9279217505967601  0.49129963946851485  1.0000
  C   C23       1.0  0.5802131746633635  0.9911517271144633  0.46440678176951866  1.0000
  C   C24       1.0  0.6016806094084899  0.018211697484197507  0.5070615419029494  1.0000
  C   C25       1.0  0.40667344304469577  0.7938132093101302  0.32223577470443826  1.0000
  C   C26       1.0  0.43019301559162665  0.840492890684743  0.34387363102213436  1.0000
  C   C27       1.0  0.47829096087895806  0.8214871860150126  0.3975785598313379  1.0000
  C   C28       1.0  0.5035750741803398  0.7559489395897004  0.42845764729044306  1.0000
  C   C29       1.0  0.48124331624066485  0.7095065060063137  0.406309021739652  1.0000
  C   C30       1.0  0.4323269819716701  0.7285276187386035  0.35328482779130593  1.0000
  C   C31       1.0  0.401301615107883  0.2573602265376849  0.8682551354854908  1.0000
  C   C32       1.0  0.4282211366353934  0.27730067150848475  0.9150495786615807  1.0000
  C   C33       1.0  0.4829303262761043  0.3254002235148549  0.8977228986644334  1.0000
  C   C34       1.0  0.5113945252216042  0.35223872387400956  0.8337753423332613  1.0000
  C   C35       1.0  0.4852711220877736  0.331907322441289  0.7871449805778568  1.0000
  C   C36       1.0  0.4297873409051293  0.2845418377528547  0.8044706674089709  1.0000
  C   C37       1.0  0.7250371247569304  0.6781609740190933  0.19393854195993743  1.0000
  C   C38       1.0  0.7030756186319564  0.6453386269800632  0.2594770645637752  1.0000
  C   C39       1.0  0.6599628470846923  0.5888798246400173  0.2797608053800572  1.0000
  C   C40       1.0  0.6390074530922761  0.5653547460056956  0.2340478766837464  1.0000
  C   C41       1.0  0.6601083902980277  0.5980761129440425  0.16822287591143237  1.0000
  C   C42       1.0  0.7028693546063636  0.6548290587051043  0.14821899074313175  1.0000
  C   C43       1.0  0.6025618974828859  0.38994746035115924  0.5693307980426993  1.0000
  C   C44       1.0  0.5582339586096908  0.421333967421262  0.6010410801132692  1.0000
  C   C45       1.0  0.5356029513960223  0.4867769736682066  0.5660628599149716  1.0000
  C   C46       1.0  0.5548707219530585  0.5218601081652211  0.5004785501582915  1.0000
  C   C47       1.0  0.5990938692379544  0.4904641539138625  0.46859201015701035  1.0000
  C   C48       1.0  0.6219261091508131  0.425078459224416  0.5037078577747423  1.0000
  C   C49       1.0  0.5656043536302137  0.52760333089293  0.9991570192882192  1.0000
  C   C50       1.0  0.5962860521058175  0.5009065408721582  0.06327337771549675  1.0000
  C   C51       1.0  0.6052837712036239  0.43264527151150406  0.09706359879626077  1.0000
  C   C52       1.0  0.5855458809256577  0.3894215499176995  0.07002499191359843  1.0000
  C   C53       1.0  0.5545570591216702  0.4161803803397391  0.006082028812585261  1.0000
  C   C54       1.0  0.5457516998034749  0.4844013619013198  0.9721850327682657  1.0000
  C   C55       1.0  0.2893395608896299  0.8916617647303512  0.9700736645850153  1.0000
  C   C56       1.0  0.24542130244147128  0.11565655392193723  0.9228174233375767  1.0000
  C   C57       1.0  0.2584889679228297  0.847082663191316  0.1731614454552214  1.0000
  C   C58       1.0  0.8639562807451143  0.831748384370897  0.1517747974951859  1.0000
  C   C59       1.0  0.8754956233130714  0.025324077802473307  0.10948038010464237  1.0000
  C   C60       1.0  0.8998755254592156  0.05552134641946081  0.8883601868978204  1.0000
  C   C61       1.0  0.771037536794914  0.7334914847496635  0.17594354785052244  1.0000
  C   C62       1.0  0.8119495542130437  0.779409459856538  0.16481293506960523  1.0000
  C   C63       1.0  0.638571305065028  0.5706502420700091  0.1250477006388876  1.0000
  C   C64       1.0  0.6179897067256165  0.5408641313107411  0.09410469149628391  1.0000
  C   C65       1.0  0.6200310004771766  0.5249946296426415  0.4026605824310749  1.0000
  C   C66       1.0  0.6385251893761038  0.5549683388640291  0.3459137241775848  1.0000
  C   C67       1.0  0.3451793836452595  0.20973992801486224  0.8850766188149706  1.0000
  C   C68       1.0  0.2974153500588912  0.16848176513862972  0.8991490977484489  1.0000
  C   C69       1.0  0.508554510181213  0.3500358298463554  0.9419700950199114  1.0000
  C   C70       1.0  0.5316185583919549  0.37687957797966476  0.9748648485855683  1.0000
  C   C71       1.0  0.5130517203480808  0.36077262232843327  0.7225051626326432  1.0000
  C   C72       1.0  0.5356169841828874  0.3874223151960621  0.6666114418529644  1.0000
  C   C73       1.0  0.3116755332869374  0.8235798769234892  0.22566270446841213  1.0000
  C   C74       1.0  0.35608356357258225  0.811295417890811  0.26969758670801985  1.0000
  C   C75       1.0  0.5298875635494583  0.5874154826958106  0.466535908270771  1.0000
  C   C76       1.0  0.5072109972778165  0.6437681928155998  0.4382418689849103  1.0000
  C   C77       1.0  0.5240781272467103  0.8969879061168985  0.45204125934323947  1.0000
  C   C78       1.0  0.5014986098483974  0.8654464047015935  0.4235592137242605  1.0000
  C   C79       1.0  0.8108244537577108  0.04814027130471741  0.133175855063655  1.0000
  C   C80       1.0  0.76118058535058  0.07146959551087663  0.1544740030581764  1.0000
  C   C81       1.0  0.5932527757725694  0.026310497127681708  0.39666586155195915  1.0000
  C   C82       1.0  0.6088385103590285  0.058950338851190116  0.33952452011733664  1.0000
  C   C83       1.0  0.5984800390209982  0.3211438520129804  0.10563922676556099  1.0000
  C   C84       1.0  0.6132511063036716  0.26317340405284995  0.13771090604437566  1.0000
  C   C85       1.0  0.35479988842550375  0.8694779551742258  0.9465353475931122  1.0000
  C   C86       1.0  0.40174238287350766  0.8473600249695327  0.9214991105750056  1.0000
  C   C87       1.0  0.5529652247349048  0.5958035422907885  0.9633219889140746  1.0000
  C   C88       1.0  0.5386907929289039  0.6537813330436536  0.9308679180646491  1.0000
  C   C89       1.0  0.5348961687317981  0.8563456638980681  0.7276629941281811  1.0000
  C   C90       1.0  0.5483977074542921  0.8871651068030816  0.6697692491625559  1.0000
  C   C91       1.0  0.7992427177183005  0.09216415598466202  0.7938748022367506  1.0000
  C   C92       1.0  0.8455382778094531  0.07584888732645113  0.8369474580936824  1.0000
  C   C93       1.0  0.6414516054690722  0.04759627155634401  0.6416962708747889  1.0000
  C   C94       1.0  0.6174000356047032  0.015989437787524704  0.6138672153213847  1.0000
  C   C95       1.0  0.6487801086918239  0.2674913139908953  0.6313655110991689  1.0000
  C   C96       1.0  0.6269596362853065  0.324147238580423  0.6032935369122043  1.0000
  O   O1        1.0  0.2910369289490191  0.015990521988250395  0.09201949095227488  1.0000
  O   O2        1.0  0.29721348746708304  0.9343163183889021  0.9932398790754035  1.0000
  O   O3        1.0  0.27955396882892813  0.8959629194090867  0.12177379799241816  1.0000
  O   O4        1.0  0.18249514440075393  0.12386255514147852  0.8950223022785548  1.0000
  O   O5        1.0  0.19547552488530331  0.8201781081179861  0.18266320515590442  1.0000
  O   O6        1.0  0.2683264697637497  0.06445570665971452  0.9714657880947611  1.0000
  O   O7        1.0  0.22889853269911956  0.8670768353399584  0.9640386586886432  1.0000
  O   O8        1.0  0.14929951328264932  0.8961800528653756  0.051752216247699254  1.0000
  O   O9        1.0  0.16518795176384776  0.9926191103521732  0.9397584807036026  1.0000
  O   O10       1.0  0.14871570259208514  0.9524007558704642  0.1325070951432179  1.0000
  O   O11       1.0  0.12474400372148152  0.038118793940363105  0.0208929085695928  1.0000
  O   O12       1.0  0.0474455591292013  0.15682272028489316  0.9205336698881794  1.0000
  O   O13       1.0  0.12348587849155021  0.7815207993511281  0.012942580892541812  1.0000
  O   O14       1.0  0.027876825636063512  0.9682078045068395  0.9607383657195567  1.0000
  O   O15       1.0  0.01629435449507351  0.8562288122260141  0.05565558793509244  1.0000
  O   O16       1.0  0.014594545178887612  0.9404445681998086  0.10145541897375661  1.0000
  O   O17       1.0  0.9854928352999153  0.04940440239186472  0.006199994110211485  1.0000
  O   O18       1.0  0.056637843049173915  0.7656498310036286  0.1659073973029662  1.0000
  O   O19       1.0  0.8971265619451928  0.8374632380539709  0.1966257805430658  1.0000
  O   O20       1.0  0.8717416293355741  0.8691179411925136  0.08919689332874722  1.0000
  O   O21       1.0  0.1184344550112115  0.08064911463775101  0.1339426000679538  1.0000
  O   O22       1.0  0.8653184866968433  0.9936326414213643  0.07525925406956437  1.0000
  O   O23       1.0  0.055053071559768824  0.8558131391410766  0.22773636202410336  1.0000
  O   O24       1.0  0.04405566943412251  0.9708793848719566  0.20786287998055278  1.0000
  O   O25       1.0  0.0336720210815784  0.1386940129324188  0.040415187823839495  1.0000
  O   O26       1.0  0.9379365796714296  0.0407893001934525  0.12506017821613818  1.0000
  O   O27       1.0  0.8859904031981785  0.8872765585414942  0.9729274306608954  1.0000
  O   O28       1.0  0.0919286756559998  0.09485509047585343  0.8238237005860328  1.0000
  O   O29       1.0  0.8787603561813101  0.012687299481278601  0.9438497327630698  1.0000
  O   O30       1.0  0.9634448440013019  0.08168488465465631  0.8742923400485906  1.0000
  O   O31       1.0  0.13012715746312153  0.934470214584977  0.8689032576403547  1.0000
  O   O32       1.0  0.026389737670243104  0.8457277172753023  0.9352397423278163  1.0000
