data_image0
_chemical_formula_structural       Na2B2H8C12N24O12
_chemical_formula_sum              "Na2 B2 H8 C12 N24 O12"
_cell_length_a       9.486773867675122
_cell_length_b       9.486740546889742
_cell_length_c       9.486778533534949
_cell_angle_alpha    65.2655539786935
_cell_angle_beta     65.26579610022856
_cell_angle_gamma    65.26562601962944

_space_group_name_H-M_alt    "P 1"
_space_group_IT_number       1

loop_
  _space_group_symop_operation_xyz
  'x, y, z'

loop_
  _atom_site_type_symbol
  _atom_site_label
  _atom_site_symmetry_multiplicity
  _atom_site_fract_x
  _atom_site_fract_y
  _atom_site_fract_z
  _atom_site_occupancy
  Na  Na1       1.0  0.6807183641347266  0.6807200356858374  0.6807212074680109  1.0000
  Na  Na2       1.0  0.180720684326829  0.1807212191128187  0.18071862509142278  1.0000
  B   B1        1.0  0.8445339233606007  0.84452721734678  0.844530564770906  1.0000
  B   B2        1.0  0.3445319670927844  0.3445271849243667  0.3445324010721932  1.0000
  H   H1        1.0  0.6257472038376974  0.10094360158583271  0.9919187689858332  1.0000
  H   H2        1.0  0.9919229557282279  0.6257362785401456  0.10094944065249918  1.0000
  H   H3        1.0  0.10095029461938046  0.9919146788550466  0.6257427520751618  1.0000
  H   H4        1.0  0.49192151660152206  0.6009443539439587  0.125745625231481  1.0000
  H   H5        1.0  0.6009505758593789  0.12573514342394532  0.49192262021816885  1.0000
  H   H6        1.0  0.12574489011782217  0.4919162468578266  0.6009467859935994  1.0000
  H   H7        1.0  0.8986590658818515  0.8986549111403194  0.8986579543303677  1.0000
  H   H8        1.0  0.3986582675268053  0.39865487790783066  0.3986582497655247  1.0000
  C   C1        1.0  0.574313309469808  0.058686297889856597  0.9394923895367596  1.0000
  C   C2        1.0  0.9395008734541577  0.5743091897311884  0.058686593483955114  1.0000
  C   C3        1.0  0.05869169875894905  0.9394924713074034  0.574315604573229  1.0000
  C   C4        1.0  0.43949495115128195  0.5586858310387727  0.07431078150916191  1.0000
  C   C5        1.0  0.5586889889126282  0.07430927667815723  0.4394988927168414  1.0000
  C   C6        1.0  0.07430990368373354  0.43949159136147403  0.558691507107568  1.0000
  C   C7        1.0  0.42435137758170777  0.024663393319791307  0.8551778286232973  1.0000
  C   C8        1.0  0.8551781482322625  0.4243471252393506  0.024663235247515874  1.0000
  C   C9        1.0  0.024667127717791046  0.855171662602544  0.42435098998020476  1.0000
  C   C10       1.0  0.3551799546789454  0.5246617956570958  0.9243504978421697  1.0000
  C   C11       1.0  0.524664187046895  0.9243465682176789  0.355177316790467  1.0000
  C   C12       1.0  0.9243509943354127  0.3551738521395649  0.524667025515491  1.0000
  N   N1        1.0  0.6641532279985468  0.9438579770433508  0.8604448313226242  1.0000
  N   N2        1.0  0.8604493558992345  0.6641441301750463  0.9438632199224625  1.0000
  N   N3        1.0  0.9438646443634864  0.8604392272733463  0.664150989185586  1.0000
  N   N4        1.0  0.36044693811938083  0.44385929058766044  0.16415090006854166  1.0000
  N   N5        1.0  0.44386512951186324  0.16414415447902544  0.3604480194336546  1.0000
  N   N6        1.0  0.16415125246093248  0.36043900962736336  0.4438642928867295  1.0000
  N   N7        1.0  0.5677431881819075  0.920737526505299  0.8045504178020478  1.0000
  N   N8        1.0  0.8045529110614423  0.5677369384069593  0.9207422020025643  1.0000
  N   N9        1.0  0.9207453352977237  0.8045437213863522  0.5677410156194257  1.0000
  N   N10       1.0  0.30455169607525073  0.4207388659517761  0.06774124658412009  1.0000
  N   N11       1.0  0.4207428438040637  0.0677381981324885  0.3045516914634945  1.0000
  N   N12       1.0  0.06774262683187263  0.3045434570410351  0.42074450967270116  1.0000
  N   N13       1.0  0.4206419176497532  0.11148662830518671  0.9393097562818085  1.0000
  N   N14       1.0  0.9393135302707307  0.4206302070356927  0.11148918797353247  1.0000
  N   N15       1.0  0.11149173143434152  0.9393068829206827  0.42063734292356963  1.0000
  N   N16       1.0  0.4393130357681514  0.6114863072333989  0.9206409486386062  1.0000
  N   N17       1.0  0.6114901264922352  0.9206296511428039  0.43931240345484185  1.0000
  N   N18       1.0  0.9206401837983762  0.4393077963581646  0.6114888031148309  1.0000
  N   N19       1.0  0.28162203576889766  0.0497262472597271  0.8161038076422852  1.0000
  N   N20       1.0  0.8161065840238422  0.2816110378033443  0.04973432404433712  1.0000
  N   N21       1.0  0.049733289767459644  0.816103101053578  0.281617074705025  1.0000
  N   N22       1.0  0.31610830480195057  0.5497307966345348  0.7816176667991641  1.0000
  N   N23       1.0  0.5497330848219947  0.7816129445697867  0.3161027502416615  1.0000
  N   N24       1.0  0.7816183576049127  0.3161027476115025  0.549732132023358  1.0000
  O   O1        1.0  0.2958710345754484  0.971797988853979  0.7309727789650747  1.0000
  O   O2        1.0  0.7309769689910368  0.2958571084320952  0.9718055055109006  1.0000
  O   O3        1.0  0.9718025988023129  0.7309674894724836  0.29586658975610186  1.0000
  O   O4        1.0  0.23097180791031488  0.4717970652050099  0.7958706633842637  1.0000
  O   O5        1.0  0.4718054656875595  0.7958565583000238  0.23097661503368255  1.0000
  O   O6        1.0  0.795868253955959  0.2309677141716335  0.4718023099271562  1.0000
  O   O7        1.0  0.15527711295116828  0.15053298322631292  0.8679401063057808  1.0000
  O   O8        1.0  0.8679382618883196  0.15527248650359843  0.15054402587925622  1.0000
  O   O9        1.0  0.15053403248155917  0.8679384655254127  0.1552771208921939  1.0000
  O   O10       1.0  0.36794026993000273  0.6505303590495118  0.655279582426189  1.0000
  O   O11       1.0  0.6505451301481598  0.6552707898491195  0.3679380240071452  1.0000
  O   O12       1.0  0.6552774726473061  0.3679391765458746  0.6505332304305681  1.0000
