data_image0
_chemical_formula_structural       Hg2H12C14S2N4Cl4
_chemical_formula_sum              "Hg2 H12 C14 S2 N4 Cl4"
_cell_length_a       7.289523392689628
_cell_length_b       7.713062489625542
_cell_length_c       9.759255965168325
_cell_angle_alpha    68.34554261723798
_cell_angle_beta     91.01104130949608
_cell_angle_gamma    86.67998565615997

_space_group_name_H-M_alt    "P 1"
_space_group_IT_number       1

loop_
  _space_group_symop_operation_xyz
  'x, y, z'

loop_
  _atom_site_type_symbol
  _atom_site_label
  _atom_site_symmetry_multiplicity
  _atom_site_fract_x
  _atom_site_fract_y
  _atom_site_fract_z
  _atom_site_occupancy
  Hg  Hg1       1.0  0.24616732722614637  0.5549938625834231  0.4325949120735259  1.0000
  Hg  Hg2       1.0  0.7538055941624292  0.44498941918940477  0.5674059627535468  1.0000
  H   H1        1.0  0.15329328749518112  0.9036652979223377  0.4732570292461204  1.0000
  H   H2        1.0  0.8467110196907868  0.09632386072151891  0.5267501177635407  1.0000
  H   H3        1.0  0.11842695260950359  0.14467003973548037  0.37839615181715647  1.0000
  H   H4        1.0  0.8815674144195496  0.8553232463904623  0.6216087846465822  1.0000
  H   H5        1.0  0.27292527290105534  0.2059558014281038  0.7683069733868134  1.0000
  H   H6        1.0  0.7270670995135192  0.7940473047960385  0.23169810342651684  1.0000
  H   H7        1.0  0.3618649426461147  0.9408571937277164  0.6907937288670707  1.0000
  H   H8        1.0  0.6381289133332756  0.05915837795146221  0.3091973512001401  1.0000
  H   H9        1.0  0.37694283934511214  0.6143556389577897  0.8703755174933716  1.0000
  H   H10       1.0  0.6230633148052076  0.3856628653377784  0.1296197433334001  1.0000
  H   H11       1.0  0.3146095840519294  0.5455560613300607  0.13550028111626478  1.0000
  H   H12       1.0  0.685408410240548  0.45444701677695337  0.8644913437025817  1.0000
  C   C1        1.0  0.2572781550335606  0.8377307990927252  0.09973323613110804  1.0000
  C   C2        1.0  0.7427340904568778  0.1622554082624603  0.9002593787644596  1.0000
  C   C3        1.0  0.24367244363552482  0.023198055228021996  0.995675483126831  1.0000
  C   C4        1.0  0.7563318219993815  0.9767939668550912  0.004335930437719051  1.0000
  C   C5        1.0  0.28088125102072325  0.062646695549283  0.8479403265646607  1.0000
  C   C6        1.0  0.7191177502745417  0.9373549169113605  0.15205491303541394  1.0000
  C   C7        1.0  0.32974893071141753  0.9129157291854146  0.8052081359183059  1.0000
  C   C8        1.0  0.6702516603050056  0.08710703282527993  0.1947930524539457  1.0000
  C   C9        1.0  0.34066255355287467  0.7283873016474661  0.9074602236821714  1.0000
  C   C10       1.0  0.6593444856640358  0.27162813254719964  0.09251442767719448  1.0000
  C   C11       1.0  0.3057702566608356  0.6889861010563438  0.05540070201691798  1.0000
  C   C12       1.0  0.6942370571667309  0.31101991296664283  0.9446054739816457  1.0000
  C   C13       1.0  0.1764712097855465  0.9908508324248546  0.25040829862902564  1.0000
  C   C14       1.0  0.8235309751838998  0.009146654312203897  0.7495922616897415  1.0000
  S   S1        1.0  0.1779757423178268  0.1782255967214042  0.08173612495609456  1.0000
  S   S2        1.0  0.8220240345082601  0.8217705701924417  0.9182720190950489  1.0000
  N   N1        1.0  0.21851935147003584  0.8252234637646655  0.24182972994490348  1.0000
  N   N2        1.0  0.7814855383979308  0.17477546336634486  0.7581724341675622  1.0000
  N   N3        1.0  0.1338932633996635  0.0141132280226586  0.3755343172206479  1.0000
  N   N4        1.0  0.86610757847442  0.9858689700103582  0.6244790357980391  1.0000
  Cl  Cl1       1.0  0.44316049457889045  0.2763723619253754  0.4619782062495472  1.0000
  Cl  Cl2       1.0  0.5568369707721814  0.7236291758651704  0.5380119387021904  1.0000
  Cl  Cl3       1.0  0.0781461468687965  0.5739659167685364  0.6566054631528925  1.0000
  Cl  Cl4       1.0  0.921842946543549  0.4260231037384942  0.34339770537280845  1.0000
