data_image0
_chemical_formula_structural       Zn4H42C84N4O26F4
_chemical_formula_sum              "Zn4 H42 C84 N4 O26 F4"
_cell_length_a       16.60831866967505
_cell_length_b       17.911118228316145
_cell_length_c       28.936265435757782
_cell_angle_alpha    89.90154818180147
_cell_angle_beta     90.07283409462168
_cell_angle_gamma    89.9745455953653

_space_group_name_H-M_alt    "P 1"
_space_group_IT_number       1

loop_
  _space_group_symop_operation_xyz
  'x, y, z'

loop_
  _atom_site_type_symbol
  _atom_site_label
  _atom_site_symmetry_multiplicity
  _atom_site_fract_x
  _atom_site_fract_y
  _atom_site_fract_z
  _atom_site_occupancy
  Zn  Zn1       1.0  0.5838963992934794  0.5044043317842155  0.49622016042206235  1.0000
  Zn  Zn2       1.0  0.4100003311429603  0.5034069349075594  0.4995118401674077  1.0000
  Zn  Zn3       1.0  0.4158365572756608  0.5076223171733931  0.8818390779345151  1.0000
  Zn  Zn4       1.0  0.5902893938353486  0.5058931838438029  0.8808718156663459  1.0000
  H   H1        1.0  0.2810548792193829  0.5888547523000228  0.5410284960895168  1.0000
  H   H2        1.0  0.13095222805825557  0.5949686307610379  0.5410237007859635  1.0000
  H   H3        1.0  0.13178375537267334  0.3912565026037029  0.46000292403142845  1.0000
  H   H4        1.0  0.8671106249426047  0.5639089042961416  0.5623822179887839  1.0000
  H   H5        1.0  0.7083348042123844  0.4396595419366706  0.441371961586654  1.0000
  H   H6        1.0  0.8585843201986663  0.43244125360821073  0.4366609188796957  1.0000
  H   H7        1.0  0.6226465558955779  0.7357669771783437  0.4875351843713673  1.0000
  H   H8        1.0  0.6305897200358358  0.8753061767415462  0.4885004755168651  1.0000
  H   H9        1.0  0.3726959426659063  0.8846928271142789  0.5090336797624672  1.0000
  H   H10       1.0  0.6349130390386505  0.12727988967746745  0.5102673678290728  1.0000
  H   H11       1.0  0.3738220347257126  0.2599864564581297  0.49089169207530137  1.0000
  H   H12       1.0  0.3769295955499032  0.12160488667667123  0.4894527931409768  1.0000
  H   H13       1.0  0.597991492859876  0.4005342276078779  0.7764189319263577  1.0000
  H   H14       1.0  0.601553672828679  0.4013330182258842  0.6037898194231415  1.0000
  H   H15       1.0  0.3696431084200142  0.5016825907890593  0.027746737692751797  1.0000
  H   H16       1.0  0.3680279631224934  0.503699610793092  0.11417039438680379  1.0000
  H   H17       1.0  0.6285002187291086  0.5019411652007193  0.1143221795622722  1.0000
  H   H18       1.0  0.3684268449688233  0.5206126831628242  0.2654923537965175  1.0000
  H   H19       1.0  0.6238928483743038  0.48019127242838544  0.3518015682551193  1.0000
  H   H20       1.0  0.6256283366320831  0.4823765562935877  0.265404536684116  1.0000
  H   H21       1.0  0.7184353726974138  0.5942327839130358  0.8414366930197018  1.0000
  H   H22       1.0  0.8686399749202635  0.6017823670974213  0.8422594617066537  1.0000
  H   H23       1.0  0.8692541402711669  0.3916969626274068  0.9172127279031911  1.0000
  H   H24       1.0  0.13151012645764837  0.5725291367449474  0.8199924707362952  1.0000
  H   H25       1.0  0.2924468375681784  0.4425093093493189  0.9380169949190957  1.0000
  H   H26       1.0  0.1421997415919094  0.43529155531700076  0.9435775490557106  1.0000
  H   H27       1.0  0.3825686073525958  0.7364638182622445  0.8759772430079875  1.0000
  H   H28       1.0  0.3726479786656753  0.8758888227101951  0.8728765535235039  1.0000
  H   H29       1.0  0.6325989333380093  0.8891550057001184  0.8793535556044816  1.0000
  H   H30       1.0  0.36525264501568705  0.12984145090845806  0.8769715880177882  1.0000
  H   H31       1.0  0.6292285697804516  0.26127883236020477  0.8758099858324329  1.0000
  H   H32       1.0  0.6256511161024746  0.12275852691772121  0.8759639937134479  1.0000
  H   H33       1.0  0.34456289737522633  0.3784853065651532  0.47078996039751075  1.0000
  H   H34       1.0  0.6550184564529149  0.5548347720141252  0.5731764356935328  1.0000
  H   H35       1.0  0.36232665257230684  0.6872020477236163  0.509776341698135  1.0000
  H   H36       1.0  0.6318496597595029  0.324426839100397  0.5148337827073206  1.0000
  H   H37       1.0  0.631798079568199  0.5010844311961479  0.9921359129323903  1.0000
  H   H38       1.0  0.3656948696040061  0.5212735831421755  0.3877189408717356  1.0000
  H   H39       1.0  0.6571338739773651  0.3773492041000355  0.9030634508287108  1.0000
  H   H40       1.0  0.341987650516998  0.5590137182431435  0.8061604624417456  1.0000
  H   H41       1.0  0.6465690738681857  0.6917655185379917  0.8837590891450446  1.0000
  H   H42       1.0  0.3683667362929341  0.32721862625495396  0.8751029220862421  1.0000
  C   C1        1.0  0.49353856763926973  0.6496757821217259  0.49707173124556187  1.0000
  C   C2        1.0  0.4987864513872394  0.5078718842937208  0.588618100604016  1.0000
  C   C3        1.0  0.498802282575312  0.3545612777444021  0.5016443194302838  1.0000
  C   C4        1.0  0.4984937283113879  0.4976926969436589  0.4080994346061573  1.0000
  C   C5        1.0  0.5136729063408437  0.6525888406717189  0.8818218658647297  1.0000
  C   C6        1.0  0.4978090942274492  0.5116922959963618  0.7902093183768741  1.0000
  C   C7        1.0  0.5032160422665585  0.35635613665225924  0.8767751257334737  1.0000
  C   C8        1.0  0.49664320216572844  0.4992575081096434  0.971609110662335  1.0000
  C   C9        1.0  0.24516423656944403  0.5467586104330949  0.5232860702401254  1.0000
  C   C10       1.0  0.16228712922205799  0.5499982621032801  0.5233576208049655  1.0000
  C   C11       1.0  0.11905032749074  0.49372060399939255  0.4995490338419017  1.0000
  C   C12       1.0  0.16203115338831964  0.4364797131825072  0.4780758234744127  1.0000
  C   C13       1.0  0.2465568925084511  0.4363210899955305  0.4805816983262331  1.0000
  C   C14       1.0  0.033839719147266606  0.49513156244819373  0.49837180968785316  1.0000
  C   C15       1.0  0.9604946755391024  0.4971470149286646  0.4983565741341137  1.0000
  C   C16       1.0  0.8752636849824925  0.4988164689861279  0.4992078348967084  1.0000
  C   C17       1.0  0.8348008811011594  0.5356579990741895  0.5347671457849614  1.0000
  C   C18       1.0  0.750221188605181  0.5346444527029561  0.5358077825590826  1.0000
  C   C19       1.0  0.746564727575027  0.4656268658955371  0.467448312607054  1.0000
  C   C20       1.0  0.8293319903879136  0.4622339430098138  0.4647291065213039  1.0000
  C   C21       1.0  0.4950804902641651  0.7320227903711044  0.4979472729820741  1.0000
  C   C22       1.0  0.5688192919454522  0.7696107968254325  0.49227827491596793  1.0000
  C   C23       1.0  0.5732761537682975  0.8466434178796121  0.4927303792445699  1.0000
  C   C24       1.0  0.5019250905439491  0.8890689038623308  0.4985711821829212  1.0000
  C   C25       1.0  0.4278089572492121  0.8526405529795867  0.5043362935440499  1.0000
  C   C26       1.0  0.4237270659583956  0.7745908839250009  0.5044161312569955  1.0000
  C   C27       1.0  0.5050214041400523  0.9680436786797205  0.49869802624291987  1.0000
  C   C28       1.0  0.5072008880192767  0.03618063311201071  0.498988294236895  1.0000
  C   C29       1.0  0.5062646041012185  0.11515975883687456  0.49960980736530297  1.0000
  C   C30       1.0  0.5775138720143642  0.15585992395462264  0.5059163728782607  1.0000
  C   C31       1.0  0.5760118471318308  0.23399195789679794  0.5072274844609623  1.0000
  C   C32       1.0  0.5016519776705053  0.2726086973050386  0.5013802232960671  1.0000
  C   C33       1.0  0.43076815532396034  0.23056790895094537  0.4949922573020585  1.0000
  C   C34       1.0  0.4320525026880517  0.1535427100888711  0.49418738333127976  1.0000
  C   C35       1.0  0.5000963322394938  0.5086491109291489  0.7385042374141975  1.0000
  C   C36       1.0  0.550102970786014  0.45601348513302764  0.7147647382728621  1.0000
  C   C37       1.0  0.45301937357123023  0.5572247124570782  0.7130628427299114  1.0000
  C   C38       1.0  0.597307652836399  0.4023980552604414  0.7388440718571587  1.0000
  C   C39       1.0  0.6436256140250264  0.35242277338445405  0.714798554161291  1.0000
  C   C40       1.0  0.5013467354053986  0.507296397729192  0.6403706022342915  1.0000
  C   C41       1.0  0.45335910439322186  0.556360290988124  0.6644227534072442  1.0000
  C   C42       1.0  0.5510302942295696  0.45577860311087204  0.6650592071828285  1.0000
  C   C43       1.0  0.5997294879513717  0.4030335305834427  0.6414060458531737  1.0000
  C   C44       1.0  0.6453036862397993  0.3528948406317199  0.6659863987476697  1.0000
  C   C45       1.0  0.49839331489420136  0.5004595896578153  0.022520223493160095  1.0000
  C   C46       1.0  0.42557899347062284  0.5015546069900341  0.04741732382533569  1.0000
  C   C47       1.0  0.4245142736440357  0.5028036891903015  0.0951428228964843  1.0000
  C   C48       1.0  0.4983141438806982  0.5025354487192076  0.11986548911891498  1.0000
  C   C49       1.0  0.5714647577240584  0.5018040798589853  0.09572716350017167  1.0000
  C   C50       1.0  0.5724229577557196  0.5010730184434067  0.0473420517851579  1.0000
  C   C51       1.0  0.4980520700980336  0.5027303277428459  0.16875796886714053  1.0000
  C   C52       1.0  0.49714884873215226  0.5022957005497022  0.2109328899871983  1.0000
  C   C53       1.0  0.4969001289079387  0.5013231550948805  0.2598240464773056  1.0000
  C   C54       1.0  0.42469466920567106  0.511603593556444  0.284047822288251  1.0000
  C   C55       1.0  0.4238311642215677  0.5111163924406981  0.3324398390024398  1.0000
  C   C56       1.0  0.49680023588547334  0.4990724599426174  0.3572064885956792  1.0000
  C   C57       1.0  0.5686534193340834  0.488847780679521  0.3322004468769534  1.0000
  C   C58       1.0  0.5697829147746205  0.49002732158380996  0.284484212334668  1.0000
  C   C59       1.0  0.7547774514574213  0.5509478414333698  0.8578266679926188  1.0000
  C   C60       1.0  0.8375730233626798  0.5550721657891273  0.8583515501364116  1.0000
  C   C61       1.0  0.8810874584829804  0.49748709078906495  0.8808897285608167  1.0000
  C   C62       1.0  0.8386310198417632  0.4379621288083442  0.9002875792335843  1.0000
  C   C63       1.0  0.7542402873399752  0.4369426540866145  0.8970075995056702  1.0000
  C   C64       1.0  0.9661664769158591  0.4998359911686735  0.882703937722077  1.0000
  C   C65       1.0  0.0394454999553631  0.5024681633975165  0.8831225703695649  1.0000
  C   C66       1.0  0.12457027405918099  0.5044596637654238  0.882136849544814  1.0000
  C   C67       1.0  0.16432157317298393  0.5429182518782057  0.8469232481062858  1.0000
  C   C68       1.0  0.2487952786858756  0.5411986061409593  0.8451418377514911  1.0000
  C   C69       1.0  0.25370648692670267  0.4694961015566651  0.9125327222209731  1.0000
  C   C70       1.0  0.17099070466391453  0.4662736841413775  0.9157941542083705  1.0000
  C   C71       1.0  0.5113334748195086  0.7347943749104077  0.8794982532888012  1.0000
  C   C72       1.0  0.436354657772931  0.7711871301125869  0.876724368923682  1.0000
  C   C73       1.0  0.430832166399952  0.8480714089575233  0.8749989072592612  1.0000
  C   C74       1.0  0.5021654184903923  0.8914451289276643  0.8762783180913231  1.0000
  C   C75       1.0  0.5775529827034234  0.8561831002914461  0.8784693274066555  1.0000
  C   C76       1.0  0.5829076201966783  0.7782488713580804  0.8800304979746298  1.0000
  C   C77       1.0  0.49772127731758786  0.9702830651415016  0.8759054288619906  1.0000
  C   C78       1.0  0.49443162096875426  0.03834958375826861  0.8763140258821592  1.0000
  C   C79       1.0  0.49519481660976095  0.11723994240082901  0.8766353485340233  1.0000
  C   C80       1.0  0.4232468895056627  0.1581700944674225  0.8768630523023901  1.0000
  C   C81       1.0  0.4248337143106226  0.23630790472787325  0.8766281475276472  1.0000
  C   C82       1.0  0.5001076867983443  0.2744719467749094  0.8766572626884042  1.0000
  C   C83       1.0  0.5717173565306551  0.2321495190827392  0.8763901347703964  1.0000
  C   C84       1.0  0.5701952749541376  0.1551463660968437  0.8763678121566867  1.0000
  N   N1        1.0  0.2873673799290373  0.4920144697070725  0.5018003066834424  1.0000
  N   N2        1.0  0.7068617896734537  0.5012759218711056  0.5019941784955506  1.0000
  N   N3        1.0  0.7130110343340946  0.49398669746383217  0.8773439584735883  1.0000
  N   N4        1.0  0.2926876223995761  0.5061780163246539  0.8781147899084087  1.0000
  O   O1        1.0  0.5582783521110599  0.6147411430477021  0.4883834810051511  1.0000
  O   O2        1.0  0.42518175612134  0.6169176161551776  0.5053679551822015  1.0000
  O   O3        1.0  0.43257470186398456  0.4927543853901213  0.5695394342887778  1.0000
  O   O4        1.0  0.5644421805096229  0.5225458875571436  0.5673832238831478  1.0000
  O   O5        1.0  0.43281284405862414  0.3886486137313058  0.4923439566519291  1.0000
  O   O6        1.0  0.5638569094242173  0.3907030523918706  0.5114804472690722  1.0000
  O   O7        1.0  0.5645652582036647  0.4831554711986286  0.4287379315106179  1.0000
  O   O8        1.0  0.43167971289988577  0.5115253980217602  0.4295737268116467  1.0000
  O   O9        1.0  0.44759894684560214  0.6170817257636614  0.8830340137477677  1.0000
  O   O10       1.0  0.5838659989677879  0.6205552827467005  0.8824805776763115  1.0000
  O   O11       1.0  0.5645808741503444  0.5099943844411002  0.8112443463665568  1.0000
  O   O12       1.0  0.4288191251510654  0.5138909103265591  0.8095975425077881  1.0000
  O   O13       1.0  0.5716414059114854  0.3897462979580767  0.8785122112021071  1.0000
  O   O14       1.0  0.4364774617994271  0.39277962199801675  0.8745228018752583  1.0000
  O   O15       1.0  0.429001782048573  0.49645607754452226  0.9509842508833228  1.0000
  O   O16       1.0  0.5652674899052671  0.5010763239200388  0.950222690211433  1.0000
  O   O17       1.0  0.2859406257162717  0.37962320522259324  0.4613269343202546  1.0000
  O   O18       1.0  0.7139440445740347  0.5676845220868503  0.5713312656663518  1.0000
  O   O19       1.0  0.35105167989789976  0.7422414939265142  0.5105671421602977  1.0000
  O   O20       1.0  0.6463534689538405  0.27006906957025495  0.5138960890518973  1.0000
  O   O21       1.0  0.6446101933140937  0.5008484433257793  0.026029964827039  1.0000
  O   O22       1.0  0.3527376086846914  0.5222355470569158  0.3538457130224089  1.0000
  O   O23       1.0  0.7150675794889311  0.3781475966999397  0.9139631774589815  1.0000
  O   O24       1.0  0.2845471873486574  0.5753689849902559  0.8097979456287874  1.0000
  O   O25       1.0  0.6568529572138645  0.7469226688837693  0.8823579129456576  1.0000
  O   O26       1.0  0.3538130186166342  0.2728432895807345  0.8763712030679399  1.0000
  F   F1        1.0  0.406463947308353  0.6065595110073972  0.642019007898888  1.0000
  F   F2        1.0  0.40622656762966597  0.6091204557307892  0.7338570676794589  1.0000
  F   F3        1.0  0.6889359442342878  0.301205472350496  0.7375599383548276  1.0000
  F   F4        1.0  0.6924988040286664  0.30264596720381576  0.6439928543084077  1.0000
