data_image0
_chemical_formula_structural       Fe6H42C36O18
_chemical_formula_sum              "Fe6 H42 C36 O18"
_cell_length_a       6.8084412056475685
_cell_length_b       15.330810885521993
_cell_length_c       15.339353973494669
_cell_angle_alpha    117.98274068404093
_cell_angle_beta     97.74070584174342
_cell_angle_gamma    99.52164023458663

_space_group_name_H-M_alt    "P 1"
_space_group_IT_number       1

loop_
  _space_group_symop_operation_xyz
  'x, y, z'

loop_
  _atom_site_type_symbol
  _atom_site_label
  _atom_site_symmetry_multiplicity
  _atom_site_fract_x
  _atom_site_fract_y
  _atom_site_fract_z
  _atom_site_occupancy
  Fe  Fe1       1.0  0.4927386371342308  0.269800394169188  0.5903305524492877  1.0000
  Fe  Fe2       1.0  0.21077861340117462  0.3234353141359278  0.7349445175576076  1.0000
  Fe  Fe3       1.0  0.8717668696335397  0.39729549712547646  0.6707225407175057  1.0000
  Fe  Fe4       1.0  0.5182675669491347  0.7329242187501991  0.4099918739497283  1.0000
  Fe  Fe5       1.0  0.7919162349518344  0.6776944806309261  0.26545932800329547  1.0000
  Fe  Fe6       1.0  0.11571130969841893  0.5922158843181008  0.3226584933913797  1.0000
  H   H1        1.0  0.182250283909191  0.5549431846877438  0.5349592522366177  1.0000
  H   H2        1.0  0.6280472496948661  0.9750210869210252  0.4418032199286869  1.0000
  H   H3        1.0  0.6490160767045552  0.4671015422573817  0.02426384301382  1.0000
  H   H4        1.0  0.8167316253006974  0.4468462993430861  0.4652846693190538  1.0000
  H   H5        1.0  0.3726951237889438  0.02466043358089111  0.5583077103857546  1.0000
  H   H6        1.0  0.35021607688999973  0.5338851076839716  0.9756043195117097  1.0000
  H   H7        1.0  0.9191687787520664  0.7089524930640606  0.8233525170559868  1.0000
  H   H8        1.0  0.20758718496684744  0.11462788961196678  0.2916604031609608  1.0000
  H   H9        1.0  0.09200078150054479  0.1769139141777245  0.8846991382388224  1.0000
  H   H10       1.0  0.08036272163789702  0.29137838222601437  0.17685719642461348  1.0000
  H   H11       1.0  0.7936649636816426  0.8859479992355759  0.7092799324965496  1.0000
  H   H12       1.0  0.9081701894273166  0.8231424394198755  0.11547702197868404  1.0000
  H   H13       1.0  0.9326216784997213  0.5981466764516056  0.8297669302645044  1.0000
  H   H14       1.0  0.3347441952648182  0.23314530091269603  0.4015984680742759  1.0000
  H   H15       1.0  0.10352208440212957  0.16972579081095057  0.7676540156395216  1.0000
  H   H16       1.0  0.06767141861863019  0.4018523962576523  0.1699305988194836  1.0000
  H   H17       1.0  0.6653408541507916  0.7677026941741615  0.5992761714216638  1.0000
  H   H18       1.0  0.8965971421030545  0.8303189430874128  0.23250559521947164  1.0000
  H   H19       1.0  0.7961057571181201  0.5879389691814864  0.7159664256009104  1.0000
  H   H20       1.0  0.20370382159163114  0.1281540244043313  0.41192626280518124  1.0000
  H   H21       1.0  0.07995864391979517  0.2845721624432755  0.8724949899299544  1.0000
  H   H22       1.0  0.2048712064304253  0.4122974418242434  0.2840811804735919  1.0000
  H   H23       1.0  0.7967267189531172  0.872530747911547  0.5890068304944476  1.0000
  H   H24       1.0  0.919778832186509  0.715384308065232  0.12752864712395243  1.0000
  H   H25       1.0  0.5451512459111924  0.55526436134366  0.8137846324036954  1.0000
  H   H26       1.0  0.9901794046838219  0.2575459286909449  0.44391274204043885  1.0000
  H   H27       1.0  0.734189174884861  0.1857244724134048  0.7426188969985927  1.0000
  H   H28       1.0  0.4552173467375198  0.44437030214088225  0.18605633330053448  1.0000
  H   H29       1.0  0.009214933178633056  0.742611870949858  0.5561877583252721  1.0000
  H   H30       1.0  0.26541251394910853  0.8138616519601952  0.25741982071507846  1.0000
  H   H31       1.0  0.6686173937512834  0.6770494414612502  0.9213054891788984  1.0000
  H   H32       1.0  0.993260158785219  0.243663092479089  0.3230006937470832  1.0000
  H   H33       1.0  0.7457036905051382  0.07776122225847358  0.7555817431519072  1.0000
  H   H34       1.0  0.33109419203603363  0.32261290329178394  0.07849291769637284  1.0000
  H   H35       1.0  0.006882816882132524  0.75637561324514  0.6771497865336112  1.0000
  H   H36       1.0  0.2545142509450357  0.9219857411976021  0.24463202728122  1.0000
  H   H37       1.0  0.5334234633514541  0.6668257365037463  0.808071243599258  1.0000
  H   H38       1.0  0.8633085885478168  0.1392383826615742  0.3327108543510703  1.0000
  H   H39       1.0  0.723294534533004  0.19164527513430576  0.8596570077635304  1.0000
  H   H40       1.0  0.46621870350668354  0.33275841226279107  0.19174681371497818  1.0000
  H   H41       1.0  0.1372026531185425  0.8606579343307885  0.667348240621912  1.0000
  H   H42       1.0  0.2766429612750656  0.8080855875149099  0.14043033591413934  1.0000
  C   C1        1.0  0.25278340472437594  0.433723419565638  0.6075093320438609  1.0000
  C   C2        1.0  0.8183506371849777  0.16943555174460556  0.5631134289303715  1.0000
  C   C3        1.0  0.6423875636323615  0.3918764803986435  0.8314459867591635  1.0000
  C   C4        1.0  0.7462516573369272  0.5662526263050581  0.391932428818535  1.0000
  C   C5        1.0  0.1833750761894492  0.8300179359580823  0.4366411765515179  1.0000
  C   C6        1.0  0.35551619035531695  0.6061580347556657  0.16949921808357246  1.0000
  C   C7        1.0  0.38140330958353263  0.4661089146312348  0.5520485772461255  1.0000
  C   C8        1.0  0.9167370034325799  0.0853413124594624  0.5328445121286264  1.0000
  C   C9        1.0  0.829148668943397  0.4473831914946659  0.9150303717155166  1.0000
  C   C10       1.0  0.6166030333642851  0.5350020958383155  0.44690525810634774  1.0000
  C   C11       1.0  0.08436443545625132  0.9147397609204901  0.46701581798919256  1.0000
  C   C12       1.0  0.1702443582041013  0.5525927842833838  0.08498959242376708  1.0000
  C   C13       1.0  0.5652575045129068  0.43555200319065784  0.5323958990734282  1.0000
  C   C14       1.0  0.1328704684674591  0.10092729074924728  0.5674620273328725  1.0000
  C   C15       1.0  0.031233191772336966  0.4663601264508586  0.8997101027120987  1.0000
  C   C16       1.0  0.4340957115689079  0.567148487349563  0.4674253165058031  1.0000
  C   C17       1.0  0.8686960675668729  0.8997006604839085  0.4327709681673679  1.0000
  C   C18       1.0  0.9680530915359853  0.533735967293083  0.09972880356206558  1.0000
  C   C19       1.0  0.3215938183669634  0.531059697589299  0.5193110292916356  1.0000
  C   C20       1.0  0.7919640210708823  0.98582153916459  0.4669328180010054  1.0000
  C   C21       1.0  0.8035745908730122  0.4815341223849572  0.013746150531382303  1.0000
  C   C22       1.0  0.6768662928108143  0.47047733598815705  0.48009840952950344  1.0000
  C   C23       1.0  0.20903776389162235  0.014330965204109704  0.5330223717474992  1.0000
  C   C24       1.0  0.19555064140833167  0.5192169686477685  0.9859118381608024  1.0000
  C   C25       1.0  0.8301834216534728  0.6314070033972852  0.7996465055789056  1.0000
  C   C26       1.0  0.19686056539843116  0.16848920535890236  0.36860628110753857  1.0000
  C   C27       1.0  0.029404129487112064  0.20035735590060708  0.8314812774650375  1.0000
  C   C28       1.0  0.17010843262621478  0.36872021290368195  0.20034230106944742  1.0000
  C   C29       1.0  0.803674901557166  0.8320531133105931  0.6321919082533325  1.0000
  C   C30       1.0  0.9705886702028933  0.7995998773211496  0.16863393816049657  1.0000
  C   C31       1.0  0.6341678935937124  0.6327608158832304  0.837763081974472  1.0000
  C   C32       1.0  0.0005134342169910078  0.20409660601041682  0.36689070085245834  1.0000
  C   C33       1.0  0.7958115640171498  0.16174247634230446  0.7953899455533315  1.0000
  C   C34       1.0  0.36587140157807607  0.36693776425695285  0.16203074640264237  1.0000
  C   C35       1.0  0.9995878887308718  0.7960481065230239  0.6333608061904811  1.0000
  C   C36       1.0  0.2041756471828151  0.8379984813685725  0.20470137049707646  1.0000
  O   O1        1.0  0.30979714869011593  0.3739203032185046  0.6377010539238979  1.0000
  O   O2        1.0  0.932845467029921  0.2610961492309086  0.625287661228455  1.0000
  O   O3        1.0  0.6625123920420961  0.36050524654295657  0.7398342253542861  1.0000
  O   O4        1.0  0.6969872325272847  0.62930576886599  0.36507889780666847  1.0000
  O   O5        1.0  0.0707659195896539  0.7387909890822827  0.3714198163505599  1.0000
  O   O6        1.0  0.3348698796262113  0.6316717162686274  0.26056467799577376  1.0000
  O   O7        1.0  0.09214313728872267  0.4643336162787577  0.6245074412265834  1.0000
  O   O8        1.0  0.6254149157643242  0.1546702712819723  0.5308501104471899  1.0000
  O   O9        1.0  0.4661068769160153  0.3755791938064376  0.8488985546170155  1.0000
  O   O10       1.0  0.9034518573871609  0.531894655132021  0.37236389399078  1.0000
  O   O11       1.0  0.3742810606585892  0.8460862055033616  0.4728457374326636  1.0000
  O   O12       1.0  0.5318478575888719  0.6265411603691432  0.15376149085460603  1.0000
  O   O13       1.0  0.6384944760915588  0.37418895219353493  0.5616252380180454  1.0000
  O   O14       1.0  0.26655741100501734  0.193479726514191  0.6310614385908762  1.0000
  O   O15       1.0  0.07194083375494391  0.43568850321207725  0.8072436003596193  1.0000
  O   O16       1.0  0.3638029086662229  0.6301215739902659  0.43995369110493926  1.0000
  O   O17       1.0  0.7336164432350997  0.8071158870682068  0.36946940505134734  1.0000
  O   O18       1.0  0.9254043991819076  0.5637109191389554  0.19151002981876525  1.0000
