data_image0
_chemical_formula_structural       Zn4P4H36C32N8O12
_chemical_formula_sum              "Zn4 P4 H36 C32 N8 O12"
_cell_length_a       5.1596350946321285
_cell_length_b       10.494591112803317
_cell_length_c       17.767595926122507
_cell_angle_alpha    90.00045351380521
_cell_angle_beta     89.9999048250743
_cell_angle_gamma    90.00013252582148

_space_group_name_H-M_alt    "P 1"
_space_group_IT_number       1

loop_
  _space_group_symop_operation_xyz
  'x, y, z'

loop_
  _atom_site_type_symbol
  _atom_site_label
  _atom_site_symmetry_multiplicity
  _atom_site_fract_x
  _atom_site_fract_y
  _atom_site_fract_z
  _atom_site_occupancy
  Zn  Zn1       1.0  0.608187659214714  0.3171664234875564  0.4063951310039115  1.0000
  Zn  Zn2       1.0  0.891785458252123  0.6828398013226005  0.9063936073760528  1.0000
  Zn  Zn3       1.0  0.3917852803456939  0.8171680653917047  0.09360931492226138  1.0000
  Zn  Zn4       1.0  0.1082097229386179  0.1828361207012179  0.5936094383811505  1.0000
  P   P1        1.0  0.10784840187523773  0.15072889747268897  0.4061460668361292  1.0000
  P   P2        1.0  0.3921295602342525  0.8492708926116919  0.9061414941731201  1.0000
  P   P3        1.0  0.8921292114764086  0.6507322128722706  0.0938586114565325  1.0000
  P   P4        1.0  0.6078628852764183  0.3492745964747002  0.5938596307203241  1.0000
  H   H1        1.0  0.1825827351519393  0.034555238500359985  0.37272244551061107  1.0000
  H   H2        1.0  0.3173771919231783  0.9654448177957062  0.8727220826084758  1.0000
  H   H3        1.0  0.8173826353858191  0.5345604689216684  0.1272785723427745  1.0000
  H   H4        1.0  0.682608115129824  0.4654470270020994  0.6272815771565519  1.0000
  H   H5        1.0  0.7006491888436203  0.6949392991771999  0.2277989191082455  1.0000
  H   H6        1.0  0.7993394808579524  0.305053102737169  0.7278030603374289  1.0000
  H   H7        1.0  0.2993465641694968  0.1949454563563862  0.27220516977010323  1.0000
  H   H8        1.0  0.20065614437992005  0.8050544481957825  0.7721947140488936  1.0000
  H   H9        1.0  0.08007142165765661  0.47304689809773476  0.47920640389603625  1.0000
  H   H10       1.0  0.41990819521217304  0.5269513569760491  0.9792072853010649  1.0000
  H   H11       1.0  0.9199300881445682  0.9730662934188883  0.0207920533770292  1.0000
  H   H12       1.0  0.5801010540037553  0.026943004035260298  0.5207899296660088  1.0000
  H   H13       1.0  0.3963283651729768  0.6510332825056862  0.4961996164232119  1.0000
  H   H14       1.0  0.10366416689915071  0.34896102574151655  0.9962006628157025  1.0000
  H   H15       1.0  0.6036880015533798  0.15105767630191738  0.0037994373236998  1.0000
  H   H16       1.0  0.8963476685109415  0.848950803703303  0.5037948299398491  1.0000
  H   H17       1.0  0.39959991626690083  0.8356925694941066  0.4111363180059371  1.0000
  H   H18       1.0  0.10040555800350148  0.16429002921427127  0.9111435907075672  1.0000
  H   H19       1.0  0.6004306459850709  0.33572292606093157  0.0888599102728449  1.0000
  H   H20       1.0  0.8995901440106309  0.6642839232623032  0.5888564159093547  1.0000
  H   H21       1.0  0.09146527143221309  0.8482838111160685  0.3014822863009954  1.0000
  H   H22       1.0  0.4085667882514629  0.15169489703169595  0.8014933328168466  1.0000
  H   H23       1.0  0.9085726898061637  0.3483103691063222  0.1985146574838339  1.0000
  H   H24       1.0  0.5914312054880925  0.651697512199277  0.6985076467081157  1.0000
  H   H25       1.0  0.4709973030869392  0.38914744505340326  0.21713692741574417  1.0000
  H   H26       1.0  0.028989608638788397  0.6108500395151495  0.7171428249297236  1.0000
  H   H27       1.0  0.5289891196884966  0.8891469165852965  0.2828554466759883  1.0000
  H   H28       1.0  0.9710172844945931  0.11085362259267126  0.7828565334685605  1.0000
  H   H29       1.0  0.3309227703733911  0.5429279803581294  0.20518515382901364  1.0000
  H   H30       1.0  0.16905160763618446  0.4570667407938627  0.7051842168715297  1.0000
  H   H31       1.0  0.6690462416057202  0.0429306375772995  0.29482328224866444  1.0000
  H   H32       1.0  0.8309591301406913  0.9570669476598892  0.7948154014039801  1.0000
  H   H33       1.0  0.2436438285730986  0.4444956135037612  0.2839271004916526  1.0000
  H   H34       1.0  0.25634620112117557  0.5554927630830804  0.7839289673459717  1.0000
  H   H35       1.0  0.7563546068645197  0.9445148291894511  0.2160743873936823  1.0000
  H   H36       1.0  0.7436564322226858  0.05549005361268659  0.7160697195364989  1.0000
  C   C1        1.0  0.9096793670550057  0.5614908951554297  0.3802625379591973  1.0000
  C   C2        1.0  0.5903053394569824  0.43850410342992757  0.8802692712399389  1.0000
  C   C3        1.0  0.0903259472598137  0.06151066604233789  0.11973374116865897  1.0000
  C   C4        1.0  0.4097020434238985  0.9385009350327277  0.6197312475041342  1.0000
  C   C5        1.0  0.9164206717481419  0.6672246372714881  0.3307589894919473  1.0000
  C   C6        1.0  0.583581606687801  0.33276599146322633  0.8307661781196884  1.0000
  C   C7        1.0  0.0836010546677244  0.1672449055791532  0.1692385721471368  1.0000
  C   C8        1.0  0.41642486902434694  0.8327739240322315  0.6692330580735231  1.0000
  C   C9        1.0  0.6139947363041217  0.5300727673362501  0.2928379877408318  1.0000
  C   C10       1.0  0.8859911044092429  0.4699181634882024  0.7928401151028481  1.0000
  C   C11       1.0  0.38599595555864147  0.030084039472761503  0.2071618500383181  1.0000
  C   C12       1.0  0.11401539599435752  0.9699240063252286  0.7071551565336307  1.0000
  C   C13       1.0  0.08255156905786981  0.5539382554746481  0.4408837491163098  1.0000
  C   C14       1.0  0.4174232087147304  0.44605744629873106  0.9408864816350117  1.0000
  C   C15       1.0  0.9174539575054651  0.05395552320590719  0.0591158153148328  1.0000
  C   C16       1.0  0.5825781475584151  0.9460534689134259  0.5591101889932304  1.0000
  C   C17       1.0  0.25742140374718053  0.6540305717388505  0.4500346421595863  1.0000
  C   C18       1.0  0.24256957175354907  0.3459669629349803  0.9500385711962878  1.0000
  C   C19       1.0  0.7425910026662238  0.15405109209881118  0.049965573580699585  1.0000
  C   C20       1.0  0.7574365335881269  0.845953208541637  0.5499613878191596  1.0000
  C   C21       1.0  0.26057138819448517  0.7594384139065082  0.4009121356388476  1.0000
  C   C22       1.0  0.23943912651100166  0.24054903063413485  0.9009226885882526  1.0000
  C   C23       1.0  0.7394535630441439  0.2594604201400585  0.0990848561008875  1.0000
  C   C24       1.0  0.7605602484692255  0.7405453948159035  0.5990799315320173  1.0000
  C   C25       1.0  0.0900607906263104  0.7678345895172212  0.3402101718982209  1.0000
  C   C26       1.0  0.409958695657032  0.2321523858541283  0.8402193699405556  1.0000
  C   C27       1.0  0.9099678011850757  0.2678538457837263  0.1597886101255526  1.0000
  C   C28       1.0  0.5900447913243454  0.7321552969786254  0.6597848368186021  1.0000
  C   C29       1.0  0.4025679748557565  0.4745100371221724  0.2469413910257501  1.0000
  C   C30       1.0  0.0974095642826001  0.5254843513298579  0.7469434989392738  1.0000
  C   C31       1.0  0.5974141129037847  0.9745170362841974  0.2530593352810016  1.0000
  C   C32       1.0  0.9025997260621992  0.025483740356939694  0.7530548239242592  1.0000
  N   N1        1.0  0.7185691578047013  0.47772698235515065  0.3546053498932338  1.0000
  N   N2        1.0  0.7814097299678268  0.5222682206549506  0.8546066294624594  1.0000
  N   N3        1.0  0.2814225299778172  0.9777472217496309  0.1453937270136123  1.0000
  N   N4        1.0  0.2185996507799217  0.02226417484127549  0.6453927800123792  1.0000
  N   N5        1.0  0.7280626267729887  0.6436499492323761  0.277061221503736  1.0000
  N   N6        1.0  0.7719414009316098  0.35634301310945915  0.7770667491028788  1.0000
  N   N7        1.0  0.27195394744747864  0.14366577932769786  0.22293886827405623  1.0000
  N   N8        1.0  0.2280682891318406  0.8563430936753917  0.7229344614912632  1.0000
  O   O1        1.0  0.2735781007852793  0.2558811133461417  0.36717121109268896  1.0000
  O   O2        1.0  0.22639497283261534  0.7441170815068503  0.8671682692815137  1.0000
  O   O3        1.0  0.7263984977409592  0.7558873807248928  0.1328313658020335  1.0000
  O   O4        1.0  0.773598487373171  0.24411816525598334  0.6328304544137778  1.0000
  O   O5        1.0  0.16961773698411525  0.13716376288797963  0.4893348399196569  1.0000
  O   O6        1.0  0.3303781515525657  0.8628306000820201  0.9893331369164357  1.0000
  O   O7        1.0  0.8303738240060313  0.6371690871775753  0.010666859674792297  1.0000
  O   O8        1.0  0.6696061606178888  0.3628402907059111  0.5106681525247936  1.0000
  O   O9        1.0  0.8207544366229769  0.16510532683149381  0.38585435187105327  1.0000
  O   O10       1.0  0.6792171256786902  0.8348953444330576  0.8858455411986909  1.0000
  O   O11       1.0  0.1792169587387988  0.6651105960029611  0.11415331495659589  1.0000
  O   O12       1.0  0.3207737853861516  0.33489628499380325  0.6141542836610654  1.0000
