data_image0
_chemical_formula_structural       Li4H36C20I4N4O8
_chemical_formula_sum              "Li4 H36 C20 I4 N4 O8"
_cell_length_a       5.072300284022526
_cell_length_b       9.909132579029668
_cell_length_c       15.97574777102568
_cell_angle_alpha    90.00005764124373
_cell_angle_beta     89.99980082090504
_cell_angle_gamma    89.9997248015979

_space_group_name_H-M_alt    "P 1"
_space_group_IT_number       1

loop_
  _space_group_symop_operation_xyz
  'x, y, z'

loop_
  _atom_site_type_symbol
  _atom_site_label
  _atom_site_symmetry_multiplicity
  _atom_site_fract_x
  _atom_site_fract_y
  _atom_site_fract_z
  _atom_site_occupancy
  Li  Li1       1.0  0.8153255643838406  0.4923108438742147  0.4438337057275135  1.0000
  Li  Li2       1.0  0.3153347667944217  0.5076902910985126  0.5561673843027677  1.0000
  Li  Li3       1.0  0.3153231627803024  0.007689207399856499  0.9438329560101267  1.0000
  Li  Li4       1.0  0.8153233679625983  0.9923099092497835  0.056168134027160505  1.0000
  H   H1        1.0  0.644030044671382  0.303961481864981  0.32693467292903483  1.0000
  H   H2        1.0  0.14403621622032153  0.6960420946616208  0.6730647294695729  1.0000
  H   H3        1.0  0.1440278558778303  0.19603679340693958  0.8269340461540011  1.0000
  H   H4        1.0  0.6440285475700591  0.8039617372824709  0.17306660814601577  1.0000
  H   H5        1.0  0.0739963439540716  0.013746038273858098  0.2897835820698163  1.0000
  H   H6        1.0  0.5739914594057396  0.9862526654458676  0.7102171499986625  1.0000
  H   H7        1.0  0.5739953322643886  0.48625638922590025  0.7897863452067001  1.0000
  H   H8        1.0  0.07399641407362621  0.5137443328286081  0.21021376091145783  1.0000
  H   H9        1.0  0.42173152346314413  0.9892921386638779  0.2770412678550684  1.0000
  H   H10       1.0  0.9217277233254535  0.010707724261408199  0.7229578261789344  1.0000
  H   H11       1.0  0.921727066171826  0.5107081405572274  0.7770437205854891  1.0000
  H   H12       1.0  0.42173218060996476  0.4892917223690175  0.22295662534610025  1.0000
  H   H13       1.0  0.12800828241243783  0.2421494097002608  0.2832762629958765  1.0000
  H   H14       1.0  0.6280113742241085  0.7578491605635091  0.716722531245118  1.0000
  H   H15       1.0  0.6280133464168784  0.2578538834454421  0.7832744954002566  1.0000
  H   H16       1.0  0.1280122246831752  0.7421467051516402  0.21672492478690233  1.0000
  H   H17       1.0  0.4084830708759881  0.20345138762900214  0.2313642835711462  1.0000
  H   H18       1.0  0.9084832648987488  0.7965495171946768  0.7686360770700844  1.0000
  H   H19       1.0  0.9084858020467975  0.29655113224418267  0.7313637931338732  1.0000
  H   H20       1.0  0.4084844767202752  0.7034487634040829  0.2686359415560489  1.0000
  H   H21       1.0  0.3744289521209155  0.938623899724156  0.4236328508569472  1.0000
  H   H22       1.0  0.8744223311971381  0.06137507090269171  0.5763662957046803  1.0000
  H   H23       1.0  0.8744299361920935  0.5613767231740708  0.9236359626064045  1.0000
  H   H24       1.0  0.37443514755451446  0.4386242657768307  0.0763644358457967  1.0000
  H   H25       1.0  0.14353963960211757  0.0718853653439879  0.4399624482287194  1.0000
  H   H26       1.0  0.6435369322566302  0.9281151848959721  0.5600382066159711  1.0000
  H   H27       1.0  0.6435371993115454  0.4281130860252842  0.939964547466481  1.0000
  H   H28       1.0  0.14354528702826028  0.5718864550373013  0.0600361073746001  1.0000
  H   H29       1.0  0.7306717931504066  0.09750339787509427  0.3966345812511065  1.0000
  H   H30       1.0  0.23066890949304758  0.9024979462595867  0.6033628470955605  1.0000
  H   H31       1.0  0.23067359104836527  0.4024947711753767  0.896635341134733  1.0000
  H   H32       1.0  0.7306789405469657  0.5975045546060046  0.1033639650510807  1.0000
  H   H33       1.0  0.5628516326869714  0.17884984193424455  0.4807365545649418  1.0000
  H   H34       1.0  0.0628504238432086  0.8211498984842508  0.519262312030925  1.0000
  H   H35       1.0  0.06285419015353  0.32114786269718815  0.980736635401172  1.0000
  H   H36       1.0  0.5628557523382939  0.6788518777125319  0.019263483087897302  1.0000
  C   C1        1.0  0.46946235552846366  0.2586994335207605  0.3563211729632485  1.0000
  C   C2        1.0  0.969466396776859  0.7413013206396357  0.6436791199623713  1.0000
  C   C3        1.0  0.9694577166183151  0.24129909236397395  0.8563212724149809  1.0000
  C   C4        1.0  0.4694592067437569  0.7586996434709049  0.1436790205165508  1.0000
  C   C5        1.0  0.2694005174567309  0.04662861054748649  0.31067327330671196  1.0000
  C   C6        1.0  0.7693961672825438  0.9533706195656465  0.6893266158295788  1.0000
  C   C7        1.0  0.7693978413223731  0.45337235733018116  0.8106753890315019  1.0000
  C   C8        1.0  0.2694008149069163  0.5466258636114105  0.189325752000947  1.0000
  C   C9        1.0  0.31904417605889523  0.0409934161537464  0.404507349292814  1.0000
  C   C10       1.0  0.8190407944284529  0.9590067004756192  0.5954918587684759  1.0000
  C   C11       1.0  0.8190394757960036  0.4590085834319878  0.9045119724925429  1.0000
  C   C12       1.0  0.3190474661698275  0.5409915331968734  0.09548973936281163  1.0000
  C   C13       1.0  0.5427725053505554  0.14275886764078652  0.41616993615920717  1.0000
  C   C14       1.0  0.0427702568562296  0.8572409223875042  0.5838289527337822  1.0000
  C   C15       1.0  0.0427707828378203  0.35723878670312814  0.916170040555791  1.0000
  C   C16       1.0  0.5427759223510904  0.6427599941511986  0.0838301002322552  1.0000
  C   C17       1.0  0.30985354406337956  0.36832883699953095  0.4006541204715717  1.0000
  C   C18       1.0  0.8098571199290131  0.6316713023295292  0.5993469756378218  1.0000
  C   C19       1.0  0.8098657007445667  0.13166914262644266  0.9006541483543631  1.0000
  C   C20       1.0  0.309866649664464  0.868330996675347  0.09934632179419373  1.0000
  I   I1        1.0  0.793291483467513  0.7430481880214755  0.3546010439674846  1.0000
  I   I2        1.0  0.2933020560253823  0.25695501972628415  0.6453975667349213  1.0000
  I   I3        1.0  0.29330449782259654  0.7569545468508494  0.8545998309971736  1.0000
  I   I4        1.0  0.793308756600048  0.2430446241937362  0.14540065753933362  1.0000
  N   N1        1.0  0.3082344048428709  0.19311361763416096  0.288683092582808  1.0000
  N   N2        1.0  0.8082351261253536  0.8068855165282043  0.7113173793769931  1.0000
  N   N3        1.0  0.8082390109717819  0.30689024777323226  0.7886826088928061  1.0000
  N   N4        1.0  0.30823840596699636  0.6931098955484883  0.21131661116536551  1.0000
  O   O1        1.0  0.4432992846513102  0.4440336206947749  0.4491813770465854  1.0000
  O   O2        1.0  0.9433100100015466  0.5559661889251826  0.5508164411321986  1.0000
  O   O3        1.0  0.943284547308636  0.0559691502007666  0.9491807295815919  1.0000
  O   O4        1.0  0.44328728898177155  0.9440296502978214  0.05082021836161491  1.0000
  O   O5        1.0  0.06421552627001861  0.3737403007969178  0.3883086706182938  1.0000
  O   O6        1.0  0.5642269042836574  0.6262584270686702  0.6116933241996918  1.0000
  O   O7        1.0  0.5642001326197743  0.1262572574731351  0.8883036873936521  1.0000
  O   O8        1.0  0.0641989251129473  0.8737424796146482  0.1116964296023752  1.0000
