data_image0
_chemical_formula_structural       Zn4P4H28C36N8O12
_chemical_formula_sum              "Zn4 P4 H28 C36 N8 O12"
_cell_length_a       5.165910959000028
_cell_length_b       11.256432387960686
_cell_length_c       17.742394084324435
_cell_angle_alpha    102.55543937775408
_cell_angle_beta     89.9999949744597
_cell_angle_gamma    89.99999036389238

_space_group_name_H-M_alt    "P 1"
_space_group_IT_number       1

loop_
  _space_group_symop_operation_xyz
  'x, y, z'

loop_
  _atom_site_type_symbol
  _atom_site_label
  _atom_site_symmetry_multiplicity
  _atom_site_fract_x
  _atom_site_fract_y
  _atom_site_fract_z
  _atom_site_occupancy
  Zn  Zn1       1.0  0.9112602452589158  0.17749970014845218  0.6959849673646729  1.0000
  Zn  Zn2       1.0  0.41126126309133326  0.3225004909927947  0.8040151262620583  1.0000
  Zn  Zn3       1.0  0.0887392347940406  0.8225005532820332  0.3040148899979158  1.0000
  Zn  Zn4       1.0  0.588738216961623  0.6774997624376907  0.19598473110052336  1.0000
  P   P1        1.0  0.9230122226415957  0.46329876120322666  0.7744710237614072  1.0000
  P   P2        1.0  0.4230094971842177  0.03670142728729079  0.7255285055806127  1.0000
  P   P3        1.0  0.07698919317845569  0.5367014906381655  0.2255282697610568  1.0000
  P   P4        1.0  0.5769899828687385  0.9632988261431947  0.27447135178196896  1.0000
  H   H1        1.0  0.3504529427904259  0.8955265952884517  0.5834585174450807  1.0000
  H   H2        1.0  0.8504538205543142  0.6044733448866707  0.9165417758276888  1.0000
  H   H3        1.0  0.6495465372626299  0.10447274958637111  0.4165417792175674  1.0000
  H   H4        1.0  0.1495456594986422  0.39552690854381456  0.08345808153489287  1.0000
  H   H5        1.0  0.3193045368997929  0.6397774568713004  0.7530281302032122  1.0000
  H   H6        1.0  0.8193053725976538  0.8602233962630096  0.7469722887882355  1.0000
  H   H7        1.0  0.6806949431531635  0.36022279655918504  0.24697172715936938  1.0000
  H   H8        1.0  0.1806941074552171  0.139776858756484  0.2530281324144354  1.0000
  H   H9        1.0  0.3801514944651813  0.7595586141108085  0.6534339093493173  1.0000
  H   H10       1.0  0.8801523437490602  0.7404413202027983  0.8465652551194934  1.0000
  H   H11       1.0  0.6198479855878603  0.24044163773066876  0.3465653841731822  1.0000
  H   H12       1.0  0.11984907207090595  0.259558933227602  0.15343460224305966  1.0000
  H   H13       1.0  0.6946749658725366  0.5951032220179683  0.5352218209673012  1.0000
  H   H14       1.0  0.1946759048571849  0.9048976423776408  0.9647786027401183  1.0000
  H   H15       1.0  0.3053245141804267  0.4048970314125171  0.46477803639528054  1.0000
  H   H16       1.0  0.805325510962696  0.09510261264176728  0.0352218184625102  1.0000
  H   H17       1.0  0.6353262916296458  0.47624508118941816  0.6359568639110478  1.0000
  H   H18       1.0  0.1353274004483822  0.023755134884709202  0.8640432401570024  1.0000
  H   H19       1.0  0.3646731884233105  0.5237551722410669  0.36404299345153385  1.0000
  H   H20       1.0  0.8646720796044888  0.9762451201347839  0.1359571810456685  1.0000
  H   H21       1.0  0.35971946672199806  0.96359945892069  0.45345761177264876  1.0000
  H   H22       1.0  0.859718545759733  0.5363999237580898  0.0465424383719721  1.0000
  H   H23       1.0  0.6402819490980676  0.036399885954040194  0.5465426848899639  1.0000
  H   H24       1.0  0.14028093429340768  0.4635994195277247  0.9534572944505869  1.0000
  H   H25       1.0  0.8636151654069903  0.6610026391485276  0.4197687658923996  1.0000
  H   H26       1.0  0.3636162450483056  0.8389976517338197  0.08023084480470999  1.0000
  H   H27       1.0  0.1363843146459658  0.3389976142819576  0.5802310914701819  1.0000
  H   H28       1.0  0.6363832350046507  0.1610026016966657  0.9197690125578717  1.0000
  C   C1        1.0  0.9759051161117968  0.5479838587120299  0.7004305716940564  1.0000
  C   C2        1.0  0.4759060879571776  0.9520169802721342  0.7995698413716283  1.0000
  C   C3        1.0  0.0240943639411597  0.45201639471845567  0.2995692856685253  1.0000
  C   C4        1.0  0.5240953278627883  0.04798327315825901  0.2004300159909178  1.0000
  C   C5        1.0  0.1831388231439135  0.629671959401328  0.7050985651434657  1.0000
  C   C6        1.0  0.683139640619153  0.8703289044476673  0.7949012951604002  1.0000
  C   C7        1.0  0.816860656908858  0.37032920417383514  0.29490141675913867  1.0000
  C   C8        1.0  0.3168617752008132  0.1296713489827326  0.2050985622021457  1.0000
  C   C9        1.0  0.2162365635651256  0.697538772273596  0.6488707780523626  1.0000
  C   C10       1.0  0.7162373887990725  0.8024611784400691  0.8511289564590712  1.0000
  C   C11       1.0  0.783764852254926  0.3024614795677961  0.3511285154701014  1.0000
  C   C12       1.0  0.28376402702089354  0.19753907499033116  0.14887090090348207  1.0000
  C   C13       1.0  0.0433512880564209  0.6852612170277369  0.586278384834401  1.0000
  C   C14       1.0  0.5433520898289288  0.8147387493075302  0.9137213562189928  1.0000
  C   C15       1.0  0.9566481919965353  0.3147390364027487  0.4137214725281808  1.0000
  C   C16       1.0  0.456649325991222  0.1852605939781924  0.0862783766035307  1.0000
  C   C17       1.0  0.8346580125872267  0.6037710630769907  0.5821182476511167  1.0000
  C   C18       1.0  0.33465896895606306  0.8962297870809973  0.9178816069192733  1.0000
  C   C19       1.0  0.16534146746572986  0.3962291903534948  0.4178816097114648  1.0000
  C   C20       1.0  0.6653424468638106  0.10377046793841056  0.082118814283362  1.0000
  C   C21       1.0  0.8014267041047775  0.5365469410608056  0.6384796310476871  1.0000
  C   C22       1.0  0.30142765299058283  0.9634530035442382  0.8615206640802384  1.0000
  C   C23       1.0  0.19857277594809367  0.4634533139586878  0.3615207901549837  1.0000
  C   C24       1.0  0.6985737628294828  0.03654634133049229  0.13847963258237428  1.0000
  C   C25       1.0  0.08187885571150129  0.7524961637472171  0.525687367310212  1.0000
  C   C26       1.0  0.5818796636889232  0.7475037991067661  0.9743123722853042  1.0000
  C   C27       1.0  0.9181206243416398  0.24750317953859743  0.47431236551235395  1.0000
  C   C28       1.0  0.4181217521310431  0.25249645432363366  0.025687485077241896  1.0000
  C   C29       1.0  0.2505112470561953  0.8881952403105019  0.4661856124557957  1.0000
  C   C30       1.0  0.7505122381611213  0.61180415223604  0.0338144418212281  1.0000
  C   C31       1.0  0.7494901687638701  0.1118041045642286  0.533814684206817  1.0000
  C   C32       1.0  0.24948917765883746  0.38819610119436027  0.9661854155413252  1.0000
  C   C33       1.0  0.990328520375179  0.7318719373446642  0.4504425382843635  1.0000
  C   C34       1.0  0.4903276994488692  0.7681274335325129  0.04955750691802052  1.0000
  C   C35       1.0  0.009670959677777098  0.2681283160858214  0.5495573190782183  1.0000
  C   C36       1.0  0.509671780604087  0.23187281989797273  0.9504423504445682  1.0000
  N   N1        1.0  0.09909170118537958  0.8163885215517366  0.41408652244790994  1.0000
  N   N2        1.0  0.5990907144866001  0.6836108830878872  0.08591297371877002  1.0000
  N   N3        1.0  0.9009097146347711  0.1836108217339856  0.5859132103746134  1.0000
  N   N4        1.0  0.4009087655664557  0.3163884617869286  0.9140873229438782  1.0000
  N   N5        1.0  0.24523821414654634  0.8520130110310049  0.533428464349079  1.0000
  N   N6        1.0  0.7452390608412287  0.6479869386511297  0.9665718329050107  1.0000
  N   N7        1.0  0.7547612659063246  0.1479872439884815  0.46657195685359204  1.0000
  N   N8        1.0  0.25476235497873023  0.3520133147792706  0.0334280244575353  1.0000
  O   O1        1.0  0.07303050653112558  0.33670341385467845  0.7511130365581522  1.0000
  O   O2        1.0  0.5730294778526854  0.16329680784848216  0.7488870698672088  1.0000
  O   O3        1.0  0.9269709092888403  0.6632968395757217  0.24888682080440108  1.0000
  O   O4        1.0  0.4269700022003704  0.8367025370263405  0.2511132267954395  1.0000
  O   O5        1.0  0.03238322000676419  0.5325743607347846  0.8507396748748447  1.0000
  O   O6        1.0  0.532384046145374  0.9674256081805407  0.649260630433666  1.0000
  O   O7        1.0  0.9676162600461069  0.4674258942847087  0.1492607463278262  1.0000
  O   O8        1.0  0.46761736967469136  0.0325737366941894  0.35073966622894664  1.0000
  O   O9        1.0  0.631212773218884  0.43852607967357227  0.7706247130177103  1.0000
  O   O10       1.0  0.1312139090757185  0.061474136772247286  0.7293753912059983  1.0000
  O   O11       1.0  0.36878477106706237  0.5614741737569986  0.2293751443449139  1.0000
  O   O12       1.0  0.8687875067442475  0.9385261166581528  0.2706244661565477  1.0000
