data_image0
_chemical_formula_structural       Tb2Co2H36C32N16O12
_chemical_formula_sum              "Tb2 Co2 H36 C32 N16 O12"
_cell_length_a       9.08875506471847
_cell_length_b       9.083748090796284
_cell_length_c       16.034860474056373
_cell_angle_alpha    99.05493244181092
_cell_angle_beta     97.6922290555021
_cell_angle_gamma    119.20051775700699

_space_group_name_H-M_alt    "P 1"
_space_group_IT_number       1

loop_
  _space_group_symop_operation_xyz
  'x, y, z'

loop_
  _atom_site_type_symbol
  _atom_site_label
  _atom_site_symmetry_multiplicity
  _atom_site_fract_x
  _atom_site_fract_y
  _atom_site_fract_z
  _atom_site_occupancy
  Tb  Tb1       1.0  0.9024881141650241  0.15271620853749818  0.2500345077144104  1.0000
  Tb  Tb2       1.0  0.09751324239292104  0.8472858105466871  0.7499666193456136  1.0000
  Co  Co1       1.0  0.4999978028312597  0.49999125393576804  0.5000017050794199  1.0000
  Co  Co2       1.0  2.9291881285430455e-07  0.5000036605127748  0.999999242936994  1.0000
  H   H1        1.0  0.3735101499278032  0.2690196098218679  0.9987919377770211  1.0000
  H   H2        1.0  0.2714416479908408  0.8762667150249541  0.5011885674288621  1.0000
  H   H3        1.0  0.6264937395074599  0.7309915061308703  0.0012076541735623954  1.0000
  H   H4        1.0  0.7285626592209127  0.12374306539253152  0.4988096970236455  1.0000
  H   H5        1.0  0.4011953153128688  0.18538583432822262  0.2945913946850922  1.0000
  H   H6        1.0  0.8909412750646198  0.6070965857924621  0.205419305937852  1.0000
  H   H7        1.0  0.5988068812037355  0.8146135261146625  0.7054077024330638  1.0000
  H   H8        1.0  0.1090644026443854  0.3928987940713001  0.79457785320146  1.0000
  H   H9        1.0  0.0981282840138746  0.12795032298292602  0.046269577950674504  1.0000
  H   H10       1.0  0.08231537442556203  0.5531248428899788  0.4538129960984493  1.0000
  H   H11       1.0  0.9018762949678419  0.8720621228745743  0.9537314261742581  1.0000
  H   H12       1.0  0.9176900753544857  0.4468850313306874  0.5461903534646807  1.0000
  H   H13       1.0  0.6556624424109146  0.36047662624737603  0.10305280822752391  1.0000
  H   H14       1.0  0.25831832381660297  0.05396679867833851  0.396918194237756  1.0000
  H   H15       1.0  0.34434086583431167  0.6395227409942237  0.896946998621182  1.0000
  H   H16       1.0  0.741681209437921  0.9460338215563269  0.6030776856458928  1.0000
  H   H17       1.0  0.6941265439713431  0.7630306130600317  0.2501606785268748  1.0000
  H   H18       1.0  0.5130090897113676  0.9438668456192333  0.24989944510296877  1.0000
  H   H19       1.0  0.30587396381660886  0.23697403980704485  0.749841228366428  1.0000
  H   H20       1.0  0.48699106900551226  0.056128612113837996  0.7500997908722198  1.0000
  H   H21       1.0  0.7623172612846221  0.7683884999989347  0.16204350672322929  1.0000
  H   H22       1.0  0.6067655789031791  0.10077423789713438  0.3379672290768029  1.0000
  H   H23       1.0  0.23768392723846435  0.23161745791447436  0.8379585622358193  1.0000
  H   H24       1.0  0.3932305815153755  0.8992199441102856  0.6620322158581473  1.0000
  H   H25       1.0  0.7222392529396514  0.11059203747036152  0.0655735395831769  1.0000
  H   H26       1.0  0.045434673586584005  0.1570386146049003  0.4345183643448323  1.0000
  H   H27       1.0  0.2777667694347557  0.8894125250981874  0.9344256654199583  1.0000
  H   H28       1.0  0.9545516204704468  0.8429451744121792  0.5654806954676417  1.0000
  H   H29       1.0  0.5706671944899497  0.9680940955802626  0.0994825872694491  1.0000
  H   H30       1.0  0.8687825789559938  0.9716920086043573  0.4006043295340049  1.0000
  H   H31       1.0  0.4293372939736743  0.03191178329561949  0.900516610446914  1.0000
  H   H32       1.0  0.13120702385290167  0.028291726233611297  0.5993931091443656  1.0000
  H   H33       1.0  0.07026854508946215  0.9101614414625704  0.25856267177292847  1.0000
  H   H34       1.0  0.6507744636747361  0.31143645855251384  0.24143565187467428  1.0000
  H   H35       1.0  0.929732707733379  0.08983397335236991  0.7414347737156319  1.0000
  H   H36       1.0  0.3492274831002362  0.6885602985963999  0.758563830842526  1.0000
  C   C1        1.0  0.3187102321640012  0.4229824871949006  0.40258852734673667  1.0000
  C   C2        1.0  0.0199112662505172  0.41590212405542815  0.0973170488764836  1.0000
  C   C3        1.0  0.6812865801509107  0.5770066068861796  0.5974180240055276  1.0000
  C   C4        1.0  0.9800841094821496  0.5841011841412326  0.9026812319745475  1.0000
  C   C5        1.0  0.5589104841952732  0.342772507333713  0.4493522247248549  1.0000
  C   C6        1.0  0.8930115510832338  0.6091548844992193  0.0505567478559996  1.0000
  C   C7        1.0  0.44108613365077803  0.6572204510013366  0.5506515182006666  1.0000
  C   C8        1.0  0.10698655640126736  0.39085366874123667  0.9494434313666318  1.0000
  C   C9        1.0  0.5311153616044848  0.2986350713660785  0.1196625368439257  1.0000
  C   C10       1.0  0.1798433057306711  0.9126672592120998  0.3803094348011555  1.0000
  C   C11       1.0  0.46888887711750027  0.7013682042158395  0.8803370464714818  1.0000
  C   C12       1.0  0.8201593858635334  0.08733729538951711  0.6196882660645997  1.0000
  C   C13       1.0  0.3747271255408365  0.2464445458643425  0.0633845554983949  1.0000
  C   C14       1.0  0.18402970855079565  0.8126660010414427  0.43660856314294694  1.0000
  C   C15       1.0  0.6252755924873628  0.7535600833125286  0.9366168956931276  1.0000
  C   C16       1.0  0.8159721474904132  0.1873412246306856  0.5633917927189742  1.0000
  C   C17       1.0  0.2206927861046495  0.16696001113628978  0.08988442832040988  1.0000
  C   C18       1.0  0.07769957151710125  0.6319574358297759  0.4101603096476794  1.0000
  C   C19       1.0  0.7793130594235578  0.8330484654030672  0.910114468473161  1.0000
  C   C20       1.0  0.9223034006584002  0.36804980907027834  0.5898413809990899  1.0000
  C   C21       1.0  0.22124348528086568  0.13823365256477874  0.1741301439196903  1.0000
  C   C22       1.0  0.9644076745362685  0.5479244721160014  0.3259284072570239  1.0000
  C   C23       1.0  0.7787588017538383  0.8617722748597175  0.8258707596070353  1.0000
  C   C24       1.0  0.035599468378102024  0.4520801221096847  0.6740727575852575  1.0000
  C   C25       1.0  0.3847149066376899  0.1964664845812508  0.2281335132518407  1.0000
  C   C26       1.0  0.9686420863311014  0.6572762891420609  0.2718949205063836  1.0000
  C   C27       1.0  0.6152879706140411  0.803534180907981  0.771865745932061  1.0000
  C   C28       1.0  0.03135815409255121  0.34272571071419833  0.7281048717687852  1.0000
  C   C29       1.0  0.6532457258378416  0.6689625092024942  0.45116518838766245  1.0000
  C   C30       1.0  0.21775285263164798  0.7024194783040942  0.049107904578875185  1.0000
  C   C31       1.0  0.34673465810022464  0.3310057322895831  0.5488383465312552  1.0000
  C   C32       1.0  0.7822582022529545  0.2975968725996693  0.9508945495026496  1.0000
  N   N1        1.0  0.590560878210745  0.24052421682500122  0.4161772838797546  1.0000
  N   N2        1.0  0.8236837184076011  0.67359173996109  0.08374937080696297  1.0000
  N   N3        1.0  0.40943961657586686  0.7594633632496157  0.5838200682973707  1.0000
  N   N4        1.0  0.17631864592821242  0.32642071715739723  0.9162514639654518  1.0000
  N   N5        1.0  0.19768654056345983  0.36928582263301735  0.34453764792501573  1.0000
  N   N6        1.0  0.024043106155865177  0.3529084316490625  0.1553506257281825  1.0000
  N   N7        1.0  0.8023123868522718  0.6307137038518675  0.6554686958158982  1.0000
  N   N8        1.0  0.9759524376116531  0.6470909377183744  0.8446467132238168  1.0000
  N   N9        1.0  0.5308360795508804  0.27295508180618805  0.20003047337701932  1.0000
  N   N10       1.0  0.07340229287984816  0.8316793116536874  0.29997295731052276  1.0000
  N   N11       1.0  0.46916459186626736  0.7270456198024463  0.7999698665629538  1.0000
  N   N12       1.0  0.9265998860140883  0.16831999907235942  0.700023639590448  1.0000
  N   N13       1.0  0.7511432234112975  0.7774059766031629  0.4222013543650647  1.0000
  N   N14       1.0  0.3551047031698006  0.8294371808013281  0.0781738019951561  1.0000
  N   N15       1.0  0.2488524199013185  0.22258294909948262  0.5777963615508029  1.0000
  N   N16       1.0  0.644881668188333  0.17055313790973511  0.9218251890630073  1.0000
  O   O1        1.0  0.7378529877813875  0.8334925355712743  0.2095047701536714  1.0000
  O   O2        1.0  0.6242212120464999  0.0286180581941053  0.2905085840315849  1.0000
  O   O3        1.0  0.2621475156009012  0.16651210486659096  0.7904965116853333  1.0000
  O   O4        1.0  0.37577809349472363  0.9713800208926388  0.7094908067225917  1.0000
  O   O5        1.0  0.699520366669873  0.054550441170519486  0.1132563989599547  1.0000
  O   O6        1.0  0.9416802346559198  0.08662188682004061  0.3867689828359246  1.0000
  O   O7        1.0  0.3004836996115829  0.9454567608114106  0.8867435012001935  1.0000
  O   O8        1.0  0.058310475475941835  0.9133618423874313  0.6132285405187049  1.0000
  O   O9        1.0  0.0791764181808148  0.062070799374495805  0.20242138977113916  1.0000
  O   O10       1.0  0.859776674419486  0.37740255873147543  0.2976189326533715  1.0000
  O   O11       1.0  0.9208280790941431  0.9379351043598095  0.7975790580538131  1.0000
  O   O12       1.0  0.14022648341354232  0.6226007970561936  0.7023843163115516  1.0000
