data_image0
_chemical_formula_structural       Zr6H40C72O32
_chemical_formula_sum              "Zr6 H40 C72 O32"
_cell_length_a       17.000899186368233
_cell_length_b       17.14158198856942
_cell_length_c       16.918634156027178
_cell_angle_alpha    59.88337361815446
_cell_angle_beta     60.709043745046316
_cell_angle_gamma    59.40092202822302

_space_group_name_H-M_alt    "P 1"
_space_group_IT_number       1

loop_
  _space_group_symop_operation_xyz
  'x, y, z'

loop_
  _atom_site_type_symbol
  _atom_site_label
  _atom_site_symmetry_multiplicity
  _atom_site_fract_x
  _atom_site_fract_y
  _atom_site_fract_z
  _atom_site_occupancy
  Zr  Zr1       1.0  0.8957847322804535  0.3957754480679796  0.6042260579419503  1.0000
  Zr  Zr2       1.0  0.10424847954103461  0.6041567105804475  0.3957574172898716  1.0000
  Zr  Zr3       1.0  0.10332604907926406  0.39665138084521356  0.6033155744766957  1.0000
  Zr  Zr4       1.0  0.8966628532078713  0.603275745847988  0.39667698324470296  1.0000
  Zr  Zr5       1.0  0.8959983380785769  0.6040331761056238  0.6039973356656888  1.0000
  Zr  Zr6       1.0  0.1040593460154398  0.3959380508359872  0.3959299271129098  1.0000
  H   H1        1.0  0.920137576637671  0.4176157470580649  0.7454640130538833  1.0000
  H   H2        1.0  0.9168044468137994  0.7453767711834446  0.4176719552554503  1.0000
  H   H3        1.0  0.24553546233649823  0.4167502640970824  0.4200177118397477  1.0000
  H   H4        1.0  0.9176424659022752  0.42007508470807403  0.416781658964709  1.0000
  H   H5        1.0  0.6217022060700971  0.39491679039392846  0.8736025441400415  1.0000
  H   H6        1.0  0.6523203094810553  0.6432468279479694  0.8427172190168833  1.0000
  H   H7        1.0  0.5093868381348087  0.6636775237638802  0.9873109941178698  1.0000
  H   H8        1.0  0.3737856977993202  0.6098892342500123  0.1215678924532925  1.0000
  H   H9        1.0  0.34300634739155816  0.36164370404267027  0.15236022080432585  1.0000
  H   H10       1.0  0.48756392180114005  0.3395326691119748  0.009413759077808842  1.0000
  H   H11       1.0  0.8947660765531465  0.1215115361202166  0.6100456401409105  1.0000
  H   H12       1.0  0.1430350391619086  0.1523277893232944  0.36187907516649176  1.0000
  H   H13       1.0  0.16348343430916396  0.009471998247413226  0.33962950765258165  1.0000
  H   H14       1.0  0.10992442760063868  0.8737035391078437  0.3948356643472835  1.0000
  H   H15       1.0  0.861725225154231  0.8427876023425683  0.643039648681615  1.0000
  H   H16       1.0  0.8395011713152059  0.9873297404757935  0.663625220641137  1.0000
  H   H17       1.0  0.6243711710677003  0.8717076102817319  0.6105152015620872  1.0000
  H   H18       1.0  0.6532197599969929  0.8427329973193808  0.35902922565531964  1.0000
  H   H19       1.0  0.5074335130936941  0.989962935224881  0.33684367303149554  1.0000
  H   H20       1.0  0.3715199561745236  0.12430407686047577  0.393475606110357  1.0000
  H   H21       1.0  0.342594296676765  0.15315310247068933  0.6450656476897193  1.0000
  H   H22       1.0  0.489978667360333  0.007517813843172332  0.6656475845887468  1.0000
  H   H23       1.0  0.11065625690144305  0.3934644613214644  0.12426937970917616  1.0000
  H   H24       1.0  0.8591328569111523  0.6450711497998044  0.15314184742061354  1.0000
  H   H25       1.0  0.8368623558638715  0.6657734393658857  0.007417863968513086  1.0000
  H   H26       1.0  0.8934312226391228  0.610684158925679  0.8715580824169322  1.0000
  H   H27       1.0  0.14520524788613168  0.3592953937544577  0.8424974751736087  1.0000
  H   H28       1.0  0.16581080576521134  0.3369902186480473  0.9898238258894805  1.0000
  H   H29       1.0  0.8929660790343301  0.12362629503125083  0.871846951863368  1.0000
  H   H30       1.0  0.1432576557179316  0.15206434118233159  0.8429389481733337  1.0000
  H   H31       1.0  0.16495227099012047  0.007511697610418508  0.9893952924731478  1.0000
  H   H32       1.0  0.1115607962674189  0.8718600200785432  0.12360698349539939  1.0000
  H   H33       1.0  0.8615016408102462  0.8432676472659608  0.1522018077592266  1.0000
  H   H34       1.0  0.8379824203197609  0.9896136940689501  0.00758463283444414  1.0000
  H   H35       1.0  0.6234646093945029  0.3929654206012998  0.611738612325439  1.0000
  H   H36       1.0  0.6520325486777165  0.6430495930458378  0.3617479843128847  1.0000
  H   H37       1.0  0.5074482519855363  0.6648194298480874  0.3381826070738043  1.0000
  H   H38       1.0  0.37175363736537986  0.611460454880053  0.3931052195716163  1.0000
  H   H39       1.0  0.3429962232762023  0.36154027237630265  0.6433227809286846  1.0000
  H   H40       1.0  0.4893434209855126  0.33807122341626444  0.6651132853441338  1.0000
  C   C1        1.0  0.732244552007316  0.5086519639837023  0.7619272617179221  1.0000
  C   C2        1.0  0.9972876008445936  0.7619134708004084  0.5085831432104443  1.0000
  C   C3        1.0  0.2620267969013453  0.4971673713946742  0.23214162670763724  1.0000
  C   C4        1.0  0.008598271081382343  0.2321417417393619  0.4973450712806411  1.0000
  C   C5        1.0  0.007200890290157064  0.23285301790662055  0.7615972394053756  1.0000
  C   C6        1.0  0.7327894794421181  0.5071966548341821  0.498354572944713  1.0000
  C   C7        1.0  0.9982652890111011  0.7616595036367431  0.23289470381797656  1.0000
  C   C8        1.0  0.261625793172982  0.49808907111516026  0.5073471834187089  1.0000
  C   C9        1.0  0.008352242152142164  0.49620217922355186  0.7621723400841701  1.0000
  C   C10       1.0  0.26217612325450546  0.23324800428745368  0.508373486275616  1.0000
  C   C11       1.0  0.9962264894895579  0.5082995204066877  0.23322289830766613  1.0000
  C   C12       1.0  0.7333072317934608  0.7622543081212285  0.4961428455731324  1.0000
  C   C13       1.0  0.5965302610953244  0.45346334594886883  0.8989992207336072  1.0000
  C   C14       1.0  0.6127882290412147  0.5939244027094689  0.8825540080359744  1.0000
  C   C15       1.0  0.5336323273682454  0.604933433250217  0.9625104213578554  1.0000
  C   C16       1.0  0.48174305462672584  0.5407293678062504  0.014423258029836548  1.0000
  C   C17       1.0  0.3991276199809306  0.5511214406863942  0.09640121829308873  1.0000
  C   C18       1.0  0.3827906578375602  0.4107227210413953  0.11274609351908542  1.0000
  C   C19       1.0  0.4627601527048738  0.3988858952307908  0.03359490625754086  1.0000
  C   C20       1.0  0.5145468554310283  0.46318587026505725  0.9816235284638068  1.0000
  C   C21       1.0  0.6452631001165294  0.517560541518762  0.8495117050903787  1.0000
  C   C22       1.0  0.3496744595096714  0.487730160947244  0.14516684662653745  1.0000
  C   C23       1.0  0.9533041865252226  0.09640274015730924  0.5512174957689949  1.0000
  C   C24       1.0  0.09370301892118252  0.11278389014625394  0.4108492916983195  1.0000
  C   C25       1.0  0.10471091219429238  0.03368224177204839  0.39893617168086587  1.0000
  C   C26       1.0  0.04060519559581593  0.9817046725245787  0.46318268852881056  1.0000
  C   C27       1.0  0.051101817149579294  0.8990598199433107  0.4534028416635252  1.0000
  C   C28       1.0  0.910776921296275  0.882604369718216  0.5937980955712165  1.0000
  C   C29       1.0  0.8988555872851405  0.962584100050897  0.6048612579145853  1.0000
  C   C30       1.0  0.9630699543190814  0.01445274772073209  0.5407578167778126  1.0000
  C   C31       1.0  0.017395584203221418  0.1451542684108134  0.48789223585848157  1.0000
  C   C32       1.0  0.9877948411832161  0.8495198501288926  0.5174605083018947  1.0000
  C   C33       1.0  0.5978306031064021  0.8983747467474503  0.551254011286922  1.0000
  C   C34       1.0  0.6131028303767893  0.8830182309246127  0.4084698123274109  1.0000
  C   C35       1.0  0.5329830344810204  0.9638739308431427  0.39664813209329003  1.0000
  C   C36       1.0  0.4815829753999877  0.015056804740041254  0.46227559624712444  1.0000
  C   C37       1.0  0.39817766836821983  0.0977411924546558  0.45261914802484426  1.0000
  C   C38       1.0  0.3828723370049828  0.11300404859332497  0.5954822824262251  1.0000
  C   C39       1.0  0.46384097644832406  0.03300584079945436  0.6064270034989858  1.0000
  C   C40       1.0  0.515074628556526  0.9816994102142405  0.5409276105772918  1.0000
  C   C41       1.0  0.6458109390773216  0.8497343669126565  0.48659522495027113  1.0000
  C   C42       1.0  0.34955459974872116  0.14567822546487724  0.5179711355674141  1.0000
  C   C43       1.0  0.05139179375742485  0.4526020008646725  0.09772383291566916  1.0000
  C   C44       1.0  0.9085828741734471  0.595486399008827  0.11297993203465508  1.0000
  C   C45       1.0  0.8967461470497466  0.6065463415106294  0.03289250080317882  1.0000
  C   C46       1.0  0.9623242660165444  0.5410779323175133  0.9815576608256646  1.0000
  C   C47       1.0  0.9525635460589116  0.5514392475661368  0.898227199868167  1.0000
  C   C48       1.0  0.09556333367621768  0.408740714165674  0.8827987537457317  1.0000
  C   C49       1.0  0.10656898050588376  0.39684868648476607  0.9637086930398623  1.0000
  C   C50       1.0  0.04105257416911461  0.4623848765353388  0.014969310913542718  1.0000
  C   C51       1.0  0.9867203580155461  0.5179210302126692  0.14569442324013712  1.0000
  C   C52       1.0  0.017934784541452455  0.4867952026337505  0.8495673762945514  1.0000
  C   C53       1.0  0.9521397696735006  0.09748887238260559  0.8981589651757032  1.0000
  C   C54       1.0  0.09401918968154616  0.11242413320208307  0.8829186492204002  1.0000
  C   C55       1.0  0.10566806045355293  0.032728034964954134  0.9635708988501858  1.0000
  C   C56       1.0  0.04109426700007644  0.9814173579040641  0.014915346537719686  1.0000
  C   C57       1.0  0.05219614119999954  0.8982513629376073  0.09745472261019482  1.0000
  C   C58       1.0  0.9104766524575608  0.8831632371035881  0.11251982043371106  1.0000
  C   C59       1.0  0.8978777911677791  0.9637952039796363  0.03278606476219198  1.0000
  C   C60       1.0  0.962553792315617  0.014995268414793648  0.9813757014947129  1.0000
  C   C61       1.0  0.01664701134870233  0.14547190828456283  0.8493176298301746  1.0000
  C   C62       1.0  0.9884699994040816  0.8494628662276044  0.14552734866106218  1.0000
  C   C63       1.0  0.5973107624727872  0.4521229847687992  0.5523992377014649  1.0000
  C   C64       1.0  0.6123357882948781  0.5938801546672465  0.41071674268935265  1.0000
  C   C65       1.0  0.5326640673380681  0.6055230987769136  0.39805931323105886  1.0000
  C   C66       1.0  0.48129784956847016  0.5410258012759854  0.46269157657060594  1.0000
  C   C67       1.0  0.3980863882908068  0.5521202593167942  0.4522906065199166  1.0000
  C   C68       1.0  0.38288241014770813  0.4105144702068345  0.5941703844960029  1.0000
  C   C69       1.0  0.4635277311145811  0.3979496980443287  0.605826486382611  1.0000
  C   C70       1.0  0.5148073707248811  0.4625496310647679  0.5412539638941922  1.0000
  C   C71       1.0  0.645340286873903  0.5165946569767215  0.48870686610134556  1.0000
  C   C72       1.0  0.3492783528669533  0.4884417225577453  0.5167999426061343  1.0000
  O   O1        1.0  0.763575003667149  0.4403120076464477  0.7311769809349186  1.0000
  O   O2        1.0  0.06502614102426905  0.7310723263506774  0.44027655788640624  1.0000
  O   O3        1.0  0.23119487330835384  0.5649008629257539  0.2635541893823686  1.0000
  O   O4        1.0  0.9402769854695235  0.26356141811191247  0.5650733448331663  1.0000
  O   O5        1.0  0.07137351564108493  0.2699383978165386  0.7248329506773173  1.0000
  O   O6        1.0  0.7699053451965054  0.571337950851266  0.4337674014503178  1.0000
  O   O7        1.0  0.9338008662759586  0.7248629197770884  0.2699375757267432  1.0000
  O   O8        1.0  0.2249678345102453  0.43350869865995634  0.5714789657348688  1.0000
  O   O9        1.0  0.9389156323736922  0.5648621688674996  0.731017639148689  1.0000
  O   O10       1.0  0.2310182215019409  0.2652023740482008  0.4389374195605241  1.0000
  O   O11       1.0  0.0648759412678572  0.4388313108945924  0.26516364437083684  1.0000
  O   O12       1.0  0.765220954096058  0.7311369425718655  0.564804602365122  1.0000
  O   O13       1.0  0.22511376216989018  0.27141778813805933  0.5727197430226808  1.0000
  O   O14       1.0  0.9308330268506777  0.5726752283295512  0.27138054087475166  1.0000
  O   O15       1.0  0.771481401080237  0.7250595188474451  0.4308020177203317  1.0000
  O   O16       1.0  0.07271851740826919  0.4307490025758155  0.7251062518341198  1.0000
  O   O17       1.0  0.9375903218551468  0.2655593387820901  0.7299762527597835  1.0000
  O   O18       1.0  0.22993599418485652  0.5666248260448654  0.4377846427584445  1.0000
  O   O19       1.0  0.06683200690127933  0.7299537817686712  0.2655801888196622  1.0000
  O   O20       1.0  0.7655377519335076  0.437619321851237  0.5668678596207358  1.0000
  O   O21       1.0  0.07276567583827624  0.2700095026453937  0.43279727360806663  1.0000
  O   O22       1.0  0.7701691538925243  0.5727647664950836  0.724412364657688  1.0000
  O   O23       1.0  0.9327130851313825  0.7244471393203896  0.572719196999607  1.0000
  O   O24       1.0  0.2245424287662701  0.43262926566715987  0.27000777510154716  1.0000
  O   O25       1.0  0.9414040022156982  0.4410711698982938  0.4417916468396114  1.0000
  O   O26       1.0  0.17575838384440343  0.4417787534406445  0.44103180463284264  1.0000
  O   O27       1.0  0.9418422573459961  0.6756024100251423  0.4413821408337811  1.0000
  O   O28       1.0  0.9411113352376145  0.4413750383659904  0.6756987712009204  1.0000
  O   O29       1.0  0.04307640995086346  0.5440208597286542  0.542096280456782  1.0000
  O   O30       1.0  0.8707551526183931  0.5421163872991814  0.5440570430013452  1.0000
  O   O31       1.0  0.04408972375027525  0.5429781842508916  0.37075669959902047  1.0000
  O   O32       1.0  0.04212088690119487  0.37083156859922894  0.5429934507913359  1.0000
