data_image0
_chemical_formula_structural       Co2H38C44N10O8
_chemical_formula_sum              "Co2 H38 C44 N10 O8"
_cell_length_a       10.071930683944851
_cell_length_b       11.369543837749122
_cell_length_c       11.44064077275771
_cell_angle_alpha    114.01302978175339
_cell_angle_beta     98.80449971618422
_cell_angle_gamma    113.60264617682351

_space_group_name_H-M_alt    "P 1"
_space_group_IT_number       1

loop_
  _space_group_symop_operation_xyz
  'x, y, z'

loop_
  _atom_site_type_symbol
  _atom_site_label
  _atom_site_symmetry_multiplicity
  _atom_site_fract_x
  _atom_site_fract_y
  _atom_site_fract_z
  _atom_site_occupancy
  Co  Co1       1.0  0.8441906884826196  0.5368096082544297  0.40647940125407434  1.0000
  Co  Co2       1.0  0.15580834111333527  0.4631903934144005  0.5935175231498987  1.0000
  H   H1        1.0  0.10375700904700831  0.5860230423075449  0.14661898457978131  1.0000
  H   H2        1.0  0.8962469999685468  0.41398261617967336  0.8533834870522978  1.0000
  H   H3        1.0  0.5302965349498476  0.6049994054569721  0.10659412299082746  1.0000
  H   H4        1.0  0.4697039451332259  0.39499951797874633  0.8934043099482664  1.0000
  H   H5        1.0  0.37679136259185947  0.5106228042625744  0.40586365570797495  1.0000
  H   H6        1.0  0.6232104601828538  0.4893805976190392  0.5941376226436147  1.0000
  H   H7        1.0  0.5732774875902036  0.28705645354460774  0.39514566071962776  1.0000
  H   H8        1.0  0.4267207050856642  0.712945777411079  0.60485379377576  1.0000
  H   H9        1.0  0.4343609722141366  0.0074043103142358  0.2835654140689883  1.0000
  H   H10       1.0  0.5656386775779721  0.9925968498549053  0.7164364269209142  1.0000
  H   H11       1.0  0.5068535607629912  0.8618642124644326  0.10378654614419958  1.0000
  H   H12       1.0  0.49314971912796324  0.1381381186306427  0.8962171187019125  1.0000
  H   H13       1.0  0.855520340188434  0.28162249701272657  0.16711166406840045  1.0000
  H   H14       1.0  0.14447988339599493  0.7183797695307702  0.8328889477916376  1.0000
  H   H15       1.0  0.5491615533585515  0.7546212206849956  0.8897174432644304  1.0000
  H   H16       1.0  0.4508369157033202  0.245377689502604  0.11028246618820958  1.0000
  H   H17       1.0  0.685196055809726  0.7925395493676105  0.036446790969833456  1.0000
  H   H18       1.0  0.3148025818426703  0.2074615967309086  0.9635549103174482  1.0000
  H   H19       1.0  0.7354316238813682  0.7806410963484752  0.8894263785211719  1.0000
  H   H20       1.0  0.2645676008215858  0.21936117101753178  0.11057584955504038  1.0000
  H   H21       1.0  0.9020709489337548  0.24488872550805493  0.9069027341494686  1.0000
  H   H22       1.0  0.09793200703439453  0.7551091486583134  0.09309910294616942  1.0000
  H   H23       1.0  0.017954963141640627  0.2641467301125998  0.803601024777876  1.0000
  H   H24       1.0  0.9820459685470695  0.7358511159125172  0.19640053291251278  1.0000
  H   H25       1.0  0.10146244645531513  0.3049203666982764  0.9734148010836634  1.0000
  H   H26       1.0  0.8985400910527944  0.6950786221115165  0.026588301057685552  1.0000
  H   H27       1.0  0.8333935534748704  0.7703612009880344  0.6484042924580321  1.0000
  H   H28       1.0  0.1666041599459192  0.22963435202116506  0.35159329837104275  1.0000
  H   H29       1.0  0.12566188273628853  0.801659010837824  0.43073721219932537  1.0000
  H   H30       1.0  0.8743327810070982  0.19833648506637055  0.569258203603077  1.0000
  H   H31       1.0  0.2728986053863736  0.0834303239621192  0.5716783218220058  1.0000
  H   H32       1.0  0.7270996884558515  0.9165663428679952  0.42831891783659876  1.0000
  H   H33       1.0  0.18706254803337424  0.21018731350812914  0.7510170071716613  1.0000
  H   H34       1.0  0.812935759067095  0.789809368215117  0.2489819884057453  1.0000
  H   H35       1.0  0.179673341353265  0.6071521889090832  0.9654012638864841  1.0000
  H   H36       1.0  0.8203284946796857  0.3928512278656627  0.03460177038391526  1.0000
  H   H37       1.0  0.316322502720915  0.5712058268432401  0.9230170237177473  1.0000
  H   H38       1.0  0.683678139323554  0.42879532505683227  0.07698232309658698  1.0000
  C   C1        1.0  0.1093031789552228  0.5222360241093043  0.3464919984986636  1.0000
  C   C2        1.0  0.8906987648732071  0.47776183598643474  0.6535096988943535  1.0000
  C   C3        1.0  0.2293233378915928  0.5485308235133954  0.28334667344083875  1.0000
  C   C4        1.0  0.7706788900849234  0.45147144883166124  0.7166515839462447  1.0000
  C   C5        1.0  0.2074321033000786  0.5801949649028302  0.17843241418265876  1.0000
  C   C6        1.0  0.7925685453735127  0.41980619444380807  0.8215678105910696  1.0000
  C   C7        1.0  0.3124869374572653  0.5977634946447664  0.11038450314539003  1.0000
  C   C8        1.0  0.6875169029677721  0.40223992793153235  0.8896161766520476  1.0000
  C   C9        1.0  0.44506461177823564  0.5897703138670425  0.15560130422026228  1.0000
  C   C10       1.0  0.5549374741242374  0.41022975235335213  0.8443986731697846  1.0000
  C   C11       1.0  0.46817230536757387  0.5605160286807871  0.26227548027837594  1.0000
  C   C12       1.0  0.5318309480068991  0.43948627262802376  0.7377246727301382  1.0000
  C   C13       1.0  0.35968064571171254  0.5377301378387217  0.32588897731226746  1.0000
  C   C14       1.0  0.6403200029618787  0.46227102150791655  0.6741112474614608  1.0000
  C   C15       1.0  0.608084649517174  0.550590003487315  0.30768367517192974  1.0000
  C   C16       1.0  0.3919164242455793  0.44941004866245743  0.692316162515489  1.0000
  C   C17       1.0  0.6048761158025755  0.21988086770806353  0.31867788390720614  1.0000
  C   C18       1.0  0.39512308901301907  0.7801213773182453  0.6813217102908097  1.0000
  C   C19       1.0  0.5285814361319225  0.06487521484280731  0.2561345184642859  1.0000
  C   C20       1.0  0.47142141204075466  0.9351282160025605  0.7438686555087344  1.0000
  C   C21       1.0  0.5711241989459951  0.9839708442407228  0.156341879124426  1.0000
  C   C22       1.0  0.42887603789667844  0.016031437195906096  0.8436604886544146  1.0000
  C   C23       1.0  0.6903204377717814  0.0613393509900675  0.12114717205125197  1.0000
  C   C24       1.0  0.3096797990708851  0.9386629304465617  0.8788551957275884  1.0000
  C   C25       1.0  0.7618370279760925  0.21833940261620913  0.19105540066546203  1.0000
  C   C26       1.0  0.23816318897922156  0.7816628564807288  0.8089443332351748  1.0000
  C   C27       1.0  0.7375877229097226  0.9824353034721937  0.012734504862279885  1.0000
  C   C28       1.0  0.26241191362414906  0.0175658418038154  0.9872655802088204  1.0000
  C   C29       1.0  0.6745899096368502  0.8182508297833946  0.9539715025551768  1.0000
  C   C30       1.0  0.32540872138642374  0.1817503088685584  0.046029320772710464  1.0000
  C   C31       1.0  0.9512879360108003  0.0696706710689554  0.8250947804206844  1.0000
  C   C32       1.0  0.048712408627345306  0.9303260536886668  0.17490625048077385  1.0000
  C   C33       1.0  0.9953276530901506  0.2296828816652479  0.8784468706860976  1.0000
  C   C34       1.0  0.00467429073827919  0.7703149784304912  0.12155482670691235  1.0000
  C   C35       1.0  0.004313815105859783  0.9999835259384042  0.7175245916200621  1.0000
  C   C36       1.0  0.9956855878017876  1.2883907700703158e-05  0.2824754276129653  1.0000
  C   C37       1.0  0.9312683099444429  0.8432900600128049  0.6344719053099153  1.0000
  C   C38       1.0  0.06872940347634683  0.15670549299638742  0.3655256855191594  1.0000
  C   C39       1.0  0.09528612013258436  0.8620720047859081  0.5132983852436154  1.0000
  C   C40       1.0  0.9047121670805256  0.13792465459764713  0.4866979764555879  1.0000
  C   C41       1.0  0.1756392967261604  0.0177781072960173  0.5914575829344813  1.0000
  C   C42       1.0  0.8243579982345891  0.9822185603566069  0.4085412729403045  1.0000
  C   C43       1.0  0.12826383322754958  0.08808885625300888  0.6929722899577156  1.0000
  C   C44       1.0  0.8717338669350024  0.9119066818630511  0.3070235449525565  1.0000
  N   N1        1.0  0.2880247542277202  0.6243351063723209  0.003361287655920447  1.0000
  N   N2        1.0  0.7119775002652703  0.37566719575899304  0.9966404815687679  1.0000
  N   N3        1.0  0.7212537973297374  0.2965412273154584  0.2870261766424349  1.0000
  N   N4        1.0  0.27874584583324935  0.7034599254071167  0.7129747863880735  1.0000
  N   N5        1.0  0.8290942345544465  0.06329572910833288  0.9725136063916933  1.0000
  N   N6        1.0  0.17090786460626367  0.9367043520051938  0.027488126917155856  1.0000
  N   N7        1.0  0.8695030314425338  0.9873393551966457  0.8692425118896021  1.0000
  N   N8        1.0  0.13049790024617644  0.012658490828471302  0.1307590458007866  1.0000
  N   N9        1.0  0.9737880688288669  0.7756590352086405  0.5333967632750357  1.0000
  N   N10       1.0  0.026209212873645485  0.2243376175508516  0.46660033668094053  1.0000
  O   O1        1.0  0.0015573031164491564  0.549325291249289  0.3142676072755818  1.0000
  O   O2        1.0  0.9984376580332608  0.4506746317973479  0.6857261244396894  1.0000
  O   O3        1.0  0.11597068712752198  0.47113483478256074  0.4257497096180387  1.0000
  O   O4        1.0  0.8840244227253535  0.5288673018352981  0.5742431800536708  1.0000
  O   O5        1.0  0.6314931500200132  0.5295170492571161  0.40844529275951647  1.0000
  O   O6        1.0  0.368504833157651  0.4704751755374303  0.5915518750674167  1.0000
  O   O7        1.0  0.7058435485324709  0.5634894115130038  0.24730969541781894  1.0000
  O   O8        1.0  0.2941577137081666  0.43651289888738626  0.7526945679824448  1.0000
