data_image0
_chemical_formula_structural       Nd2Cu4H32C34I4N4O16
_chemical_formula_sum              "Nd2 Cu4 H32 C34 I4 N4 O16"
_cell_length_a       8.068555224863388
_cell_length_b       8.141525838433942
_cell_length_c       18.769261632129986
_cell_angle_alpha    86.7384683058016
_cell_angle_beta     86.08645363024377
_cell_angle_gamma    79.64075483450551

_space_group_name_H-M_alt    "P 1"
_space_group_IT_number       1

loop_
  _space_group_symop_operation_xyz
  'x, y, z'

loop_
  _atom_site_type_symbol
  _atom_site_label
  _atom_site_symmetry_multiplicity
  _atom_site_fract_x
  _atom_site_fract_y
  _atom_site_fract_z
  _atom_site_occupancy
  Nd  Nd1       1.0  0.7125562447115216  0.3021212897999135  0.004227314172027282  1.0000
  Nd  Nd2       1.0  0.2874199021021083  0.6978689946415528  0.9957684910579445  1.0000
  Cu  Cu1       1.0  0.40267754218984225  0.3933664221405736  0.5206924386595944  1.0000
  Cu  Cu2       1.0  0.5973165150398714  0.6066363712163535  0.4793103983339648  1.0000
  Cu  Cu3       1.0  0.12192224942204187  0.5884765705522241  0.48487274474365455  1.0000
  Cu  Cu4       1.0  0.8780889611798062  0.4115187004100918  0.5151195570923335  1.0000
  H   H1        1.0  0.35705884044535474  0.725602883709975  0.15860308557660827  1.0000
  H   H2        1.0  0.6429426725535949  0.2743911408598194  0.8413901250990107  1.0000
  H   H3        1.0  0.1424959927996099  0.0052184658968244  0.8342605010167432  1.0000
  H   H4        1.0  0.857492347621559  0.9947943158806042  0.1657358836817338  1.0000
  H   H5        1.0  0.4331490418157318  0.3943491118079478  0.2482053782077784  1.0000
  H   H6        1.0  0.5668659651192058  0.6056461621568091  0.7517889204501955  1.0000
  H   H7        1.0  0.04515192661015281  0.10353603306580082  0.0690636290673226  1.0000
  H   H8        1.0  0.9548332079997265  0.8964530031942675  0.9309340217693886  1.0000
  H   H9        1.0  0.07646701601149891  0.2854806791418909  0.0400528286386219  1.0000
  H   H10       1.0  0.9235194369629628  0.7145008566328812  0.9599444384264403  1.0000
  H   H11       1.0  0.8974196905076612  0.5770470459419739  0.06502618981252081  1.0000
  H   H12       1.0  0.10256271318014137  0.42295074400136917  0.934973460636442  1.0000
  H   H13       1.0  0.7074263949229974  0.655317795457158  0.0441287419380743  1.0000
  H   H14       1.0  0.2925529913393632  0.3446687435434654  0.9558697105112088  1.0000
  H   H15       1.0  0.5766350553781409  0.8529472288181381  0.66724335110613  1.0000
  H   H16       1.0  0.423350188329607  0.14705682260317593  0.33276296224707375  1.0000
  H   H17       1.0  0.5836098746174231  0.05545987926507931  0.5635428419146251  1.0000
  H   H18       1.0  0.4163658482842082  0.9445341687610666  0.4364603398557847  1.0000
  H   H19       1.0  0.9868284598717879  0.9305252084604733  0.4266941544231386  1.0000
  H   H20       1.0  0.013187671203525004  0.06947132103332622  0.5733032686889743  1.0000
  H   H21       1.0  0.38644973918447106  0.9356405234504592  0.7759746792485842  1.0000
  H   H22       1.0  0.6135566091615843  0.0643785308263958  0.2240358234454547  1.0000
  H   H23       1.0  0.24174738851023392  0.4193892922869793  0.6671191206632372  1.0000
  H   H24       1.0  0.7582678082126438  0.5806285059020908  0.332888970064431  1.0000
  H   H25       1.0  0.2965595236666091  0.5142159374843374  0.3454218384770726  1.0000
  H   H26       1.0  0.7034511893889501  0.4857818303454167  0.654568817293999  1.0000
  H   H27       1.0  0.128642462630161  0.3779777952545089  0.7895947445815138  1.0000
  H   H28       1.0  0.871373869213443  0.6220487635734743  0.2104194713669472  1.0000
  H   H29       1.0  0.023219729478839206  0.1021467590907932  0.3140488657724915  1.0000
  H   H30       1.0  0.9768009012891241  0.8978597721009436  0.6859502682852536  1.0000
  H   H31       1.0  0.2029059037622575  0.9659548233470829  0.21059891675870548  1.0000
  H   H32       1.0  0.7971223441550992  0.034057957183655695  0.7894008500875103  1.0000
  C   C1        1.0  0.26223261852731383  0.7275930465087229  0.2685421022942265  1.0000
  C   C2        1.0  0.7377852419304249  0.27240722715824006  0.7314524976458259  1.0000
  C   C3        1.0  0.3516519779573173  0.6445427183186754  0.20684102671985022  1.0000
  C   C4        1.0  0.6483593965471784  0.35545880388414725  0.7931521718337322  1.0000
  C   C5        1.0  0.10757346557277003  0.1406212694859192  0.8361914706995321  1.0000
  C   C6        1.0  0.8924208148976478  0.8593940204222364  0.1638099665493868  1.0000
  C   C7        1.0  0.9706442790776535  0.2019039379360237  0.8884314631087875  1.0000
  C   C8        1.0  0.029341082697520435  0.7980988576393245  0.1115716818020829  1.0000
  C   C9        1.0  0.4232513431115876  0.4822279094446245  0.20193857226468026  1.0000
  C   C10       1.0  0.5767609154738412  0.5177761172151065  0.7980571938089084  1.0000
  C   C11       1.0  0.500519579028719  0.41448592595877903  0.1339445773110768  1.0000
  C   C12       1.0  0.49947712843300013  0.5855006046517985  0.866051130517029  1.0000
  C   C13       1.0  0.4976095753003023  0.9761007881915661  0.6700495268946581  1.0000
  C   C14       1.0  0.5023829164496192  0.023904512232704195  0.329957029988563  1.0000
  C   C15       1.0  0.5033330941576822  0.08896247560348773  0.6116028322271276  1.0000
  C   C16       1.0  0.49665398994414994  0.9110378217992121  0.3884013825638348  1.0000
  C   C17       1.0  0.06598563937999564  0.8780427768964075  0.3810933750794163  1.0000
  C   C18       1.0  0.9340237482552001  0.12195624907282368  0.61890155751545  1.0000
  C   C19       1.0  0.3927071441031488  0.022810486799301102  0.7298637349058055  1.0000
  C   C20       1.0  0.6073044370080042  0.9771998141487401  0.27014521239624395  1.0000
  C   C21       1.0  0.3126390835149877  0.2916811613477678  0.669598580779521  1.0000
  C   C22       1.0  0.6873743141157435  0.7083328887149349  0.3304102043336599  1.0000
  C   C23       1.0  0.29577049936354166  0.18500738835419384  0.7299588827340456  1.0000
  C   C24       1.0  0.7042493254910769  0.8150129143293298  0.27005217574570384  1.0000
  C   C25       1.0  0.23820774778324963  0.6443804394587005  0.33497277508084977  1.0000
  C   C26       1.0  0.7617995309906574  0.3556160833588394  0.6650201661788343  1.0000
  C   C27       1.0  0.17490294143372864  0.243253632801256  0.7881087613429542  1.0000
  C   C28       1.0  0.8251069283311313  0.7567666714293112  0.21190211684565696  1.0000
  C   C29       1.0  0.08598769115781833  0.9720877263259952  0.3178953345718938  1.0000
  C   C30       1.0  0.9140308307488496  0.0279163017140505  0.6821018081506693  1.0000
  C   C31       1.0  0.18560453042696426  0.8967818666909436  0.2612348302558799  1.0000
  C   C32       1.0  0.8144156615240733  0.10321966021155052  0.7387617857568571  1.0000
  C   C33       1.0  0.4330060725794881  0.055974824149131984  0.9775808186284747  1.0000
  C   C34       1.0  0.5669633592018215  0.9440254628659375  0.0224160290475339  1.0000
  I   I1        1.0  0.16887032972532273  0.2745954577135096  0.452787842274823  1.0000
  I   I2        1.0  0.8311432995069696  0.7254010714258288  0.5472091366170275  1.0000
  I   I3        1.0  0.3301485477422048  0.6986246571065138  0.5671239105670409  1.0000
  I   I4        1.0  0.6698508713003903  0.3013756321855112  0.43287720335884927  1.0000
  N   N1        1.0  0.41251578070377093  0.2449103408012547  0.6112804154899505  1.0000
  N   N2        1.0  0.587485002538621  0.7550899550919398  0.38872437982421815  1.0000
  N   N3        1.0  0.14239788651232038  0.7169547821991884  0.3897703367124947  1.0000
  N   N4        1.0  0.8576086476000812  0.28303924406782954  0.610224294600286  1.0000
  O   O1        1.0  0.3084187815673404  0.9966676669493139  0.9611441733066002  1.0000
  O   O2        1.0  0.691545362731752  0.003286384560084301  0.03885833110002319  1.0000
  O   O3        1.0  0.4620032582446854  0.20311824184499735  0.9612408002261147  1.0000
  O   O4        1.0  0.5379841588920868  0.7968595609823553  0.03876558839429121  1.0000
  O   O5        1.0  0.8767151984365925  0.09938530749276711  0.9163667102886706  1.0000
  O   O6        1.0  0.12328532278564819  0.9006012271085523  0.0836315265580652  1.0000
  O   O7        1.0  0.9376027196213106  0.3550081143369255  0.9059847123961404  1.0000
  O   O8        1.0  0.06237941307677635  0.6449921853217404  0.09402021054420828  1.0000
  O   O9        1.0  0.615696567954437  0.2849760488733679  0.1345540911127046  1.0000
  O   O10       1.0  0.38429644773876975  0.7150104846645604  0.865442813073237  1.0000
  O   O11       1.0  0.4540964609231893  0.4859944840667367  0.073217413094298  1.0000
  O   O12       1.0  0.545893461187788  0.5139882986968516  0.9267786328754327  1.0000
  O   O13       1.0  0.9893633544962627  0.22263361212129953  0.0596949087594325  1.0000
  O   O14       1.0  0.010623057176268012  0.7773554257984474  0.9403037624823726  1.0000
  O   O15       1.0  0.8054549997079906  0.5630360526562794  0.033880754649189285  1.0000
  O   O16       1.0  0.1945317462168958  0.43695798362291793  0.9661172414577877  1.0000
