data_image0
_chemical_formula_structural       Zn4H16C58I8Cl8O16
_chemical_formula_sum              "Zn4 H16 C58 I8 Cl8 O16"
_cell_length_a       12.300335740401412
_cell_length_b       12.395824874077483
_cell_length_c       23.20417793449652
_cell_angle_alpha    89.26964456980564
_cell_angle_beta     89.64130793475621
_cell_angle_gamma    88.96396222437569

_space_group_name_H-M_alt    "P 1"
_space_group_IT_number       1

loop_
  _space_group_symop_operation_xyz
  'x, y, z'

loop_
  _atom_site_type_symbol
  _atom_site_label
  _atom_site_symmetry_multiplicity
  _atom_site_fract_x
  _atom_site_fract_y
  _atom_site_fract_z
  _atom_site_occupancy
  Zn  Zn1       1.0  0.4994680253137389  0.10433309436543678  0.49894245011383015  1.0000
  Zn  Zn2       1.0  0.5005504425391366  0.8956504846212421  0.501051082051454  1.0000
  Zn  Zn3       1.0  0.8945236009337736  0.5007171293929885  0.9992997168853606  1.0000
  Zn  Zn4       1.0  0.10546659258433523  0.49929469476460037  0.0007139244496273007  1.0000
  H   H1        1.0  0.8045786794056796  0.1461188616296241  0.5884122429277028  1.0000
  H   H2        1.0  0.17701419409670655  0.12248263884115568  0.2538089545610163  1.0000
  H   H3        1.0  0.18117963424790426  0.13238974629202  0.747223313008881  1.0000
  H   H4        1.0  0.8187407869514801  0.8677172482997478  0.25274023143948204  1.0000
  H   H5        1.0  0.19945353376212444  0.8583931311282382  0.5952475750940778  1.0000
  H   H6        1.0  0.8006298673217671  0.14163324608714586  0.4047692482653673  1.0000
  H   H7        1.0  0.8550760024076  0.8057370770386995  0.9108608884917047  1.0000
  H   H8        1.0  0.1450136051062643  0.19422070716585438  0.08914476365966098  1.0000
  H   H9        1.0  0.19536737382074426  0.8538219329996083  0.411587747322308  1.0000
  H   H10       1.0  0.8805596530767661  0.20573896642520142  0.7495274983597398  1.0000
  H   H11       1.0  0.1193379676028457  0.794223607598674  0.2504840623475317  1.0000
  H   H12       1.0  0.1417405966031637  0.8429976426951169  0.7636086731843931  1.0000
  H   H13       1.0  0.8583808748646717  0.15711993610731406  0.23642296498409374  1.0000
  H   H14       1.0  0.1289108722210628  0.030872080754320998  0.8442966909114915  1.0000
  H   H15       1.0  0.8711382720377331  0.9692172037828327  0.1556770918562194  1.0000
  H   H16       1.0  0.8230566065449098  0.8774388249538063  0.7461905183052551  1.0000
  C   C1        1.0  0.3537229848676304  0.9911366063778715  0.42027808711885234  1.0000
  C   C2        1.0  0.9230220458944489  0.8982625642506078  0.162664191830828  1.0000
  C   C3        1.0  0.07921701517327051  0.18401029834994628  0.8775721894694186  1.0000
  C   C4        1.0  0.9207311940754723  0.8160345891285556  0.12242535132082111  1.0000
  C   C5        1.0  0.8184643955959674  0.9388756990266599  0.7124482952878991  1.0000
  C   C6        1.0  0.18156730696665593  0.06104978823952929  0.2875512187779847  1.0000
  C   C7        1.0  0.733774768974243  0.9340040138615678  0.6730042349269141  1.0000
  C   C8        1.0  0.2662649269234407  0.0658851634195443  0.3269942239212966  1.0000
  C   C9        1.0  0.18386486746443612  0.07079700865691049  0.7142765367345661  1.0000
  C   C10       1.0  0.816089709499785  0.9293059673170629  0.2856986111012034  1.0000
  C   C11       1.0  0.26963692270521733  0.07291034257224989  0.674671104699442  1.0000
  C   C12       1.0  0.6463026508549987  0.008679133586966299  0.5797148723949164  1.0000
  C   C13       1.0  0.7303098852422777  0.9272184504268353  0.3252995682556374  1.0000
  C   C14       1.0  0.9979182871590877  0.0081078520500029  0.7511938850319737  1.0000
  C   C15       1.0  0.0020833074384115076  0.9919071953989228  0.24880549216369022  1.0000
  C   C16       1.0  0.35642846469441036  0.9976620700333213  0.5819763511621332  1.0000
  C   C17       1.0  0.6435582018934981  0.0024627048142136  0.4180037603044937  1.0000
  C   C18       1.0  0.9005558288315216  0.015757077225728694  0.7091703225638853  1.0000
  C   C19       1.0  0.09943350679584032  0.9842168145450712  0.2908310855196703  1.0000
  C   C20       1.0  0.7285103846660023  0.0084367779005632  0.6269599174727888  1.0000
  C   C21       1.0  0.27150671460929493  0.9914451273769983  0.3730325983155609  1.0000
  C   C22       1.0  0.0996497661195477  0.9966714281400257  0.711452291882587  1.0000
  C   C23       1.0  0.08504111998585272  0.7510288494689732  0.8354948935994456  1.0000
  C   C24       1.0  0.9003489023434953  0.003371857558228399  0.2885408612488334  1.0000
  C   C25       1.0  0.27421471076111464  0.9982299053849173  0.6297240013762534  1.0000
  C   C26       1.0  0.7257804926497045  0.0018722789596879  0.37025797548788125  1.0000
  C   C27       1.0  0.005535803877982904  0.10774834007341377  0.7905768137037299  1.0000
  C   C28       1.0  0.9944283703945944  0.8922683098580391  0.209421325638111  1.0000
  C   C29       1.0  0.012282372167270204  0.2770671734912966  0.8720396129032437  1.0000
  C   C30       1.0  0.9875943757796862  0.7229252505278437  0.1279713467447792  1.0000
  C   C31       1.0  0.9912822942147985  0.911573364046745  0.7945673056397808  1.0000
  C   C32       1.0  0.0087745041916349  0.08844331786000478  0.20544101279145371  1.0000
  C   C33       1.0  0.003948758348506897  0.7394377111763646  0.8777745587101365  1.0000
  C   C34       1.0  0.9150749238376293  0.24903626707336463  0.1645172938503592  1.0000
  C   C35       1.0  0.9961851007106122  0.2605854534262519  0.12224349062631751  1.0000
  C   C36       1.0  0.004075056942006908  0.6542236921336907  0.9239369695068618  1.0000
  C   C37       1.0  0.9960930365310363  0.34579544621930575  0.0760784614925711  1.0000
  C   C38       1.0  0.010949724143429799  0.3615467448894662  0.9177057885365443  1.0000
  C   C39       1.0  0.9888766918589839  0.6384392137963317  0.08231349311405718  1.0000
  C   C40       1.0  0.8933484750356231  0.0907500770576348  0.6628719443625002  1.0000
  C   C41       1.0  0.10660254452391629  0.9092278414226623  0.3371351059797192  1.0000
  C   C42       1.0  0.8084182756838134  0.08704275484770108  0.6234956528755831  1.0000
  C   C43       1.0  0.19154996156927953  0.9128851357906098  0.3765052495656889  1.0000
  C   C44       1.0  0.1088728584402929  0.9179486720853091  0.6679607390927202  1.0000
  C   C45       1.0  0.9111184572883035  0.9002592210503052  0.8382604012807491  1.0000
  C   C46       1.0  0.8911775037948858  0.0820631685314765  0.3320515029131812  1.0000
  C   C47       1.0  0.1943876218863282  0.9195253789206742  0.6284534319355473  1.0000
  C   C48       1.0  0.8056613884369314  0.08051712186132677  0.3715538593057701  1.0000
  C   C49       1.0  0.9392379601635953  0.19960304376554205  0.7842110975475051  1.0000
  C   C50       1.0  0.060667580439023504  0.8003700241486624  0.21580339310559543  1.0000
  C   C51       1.0  0.9441098466465265  0.28339999609741534  0.8236570471133007  1.0000
  C   C52       1.0  0.05576574759219002  0.7165649954329112  0.17636013822203006  1.0000
  C   C53       1.0  0.07692568455284028  0.8354506119558847  0.7953484559889858  1.0000
  C   C54       1.0  0.9231714735527845  0.1646225721503853  0.20467060423498404  1.0000
  C   C55       1.0  0.08893987216040951  0.0997195340216521  0.16174472977197502  1.0000
  C   C56       1.0  0.9176041788743918  0.8147650728323368  0.877810796489122  1.0000
  C   C57       1.0  0.08249702800674903  0.18522257526470298  0.1222028162920452  1.0000
  C   C58       1.0  0.07696833561342942  0.10179040008225827  0.8373250302029759  1.0000
  I   I1        1.0  0.777212231163972  0.0062966921171608  0.8527360587580262  1.0000
  I   I2        1.0  0.22274602947398137  0.9935617879419282  0.1472425018182548  1.0000
  I   I3        1.0  0.8466608405204569  0.4210898442215693  0.8048048168545775  1.0000
  I   I4        1.0  0.153181095210762  0.5788501205248692  0.1952078609647927  1.0000
  I   I5        1.0  0.21829291917461552  0.64415763611899  0.8242305584195719  1.0000
  I   I6        1.0  0.7817943580236673  0.3558897029671753  0.1757503431576666  1.0000
  I   I7        1.0  0.6159250947392253  0.8162679194020157  0.689475790893816  1.0000
  I   I8        1.0  0.3841377801702421  0.18359705979092666  0.3105283972503017  1.0000
  Cl  Cl1       1.0  0.019015228869484698  0.8129217872858021  0.6607690871216505  1.0000
  Cl  Cl2       1.0  0.9810944361854866  0.18704327794012698  0.3392606127814446  1.0000
  Cl  Cl3       1.0  0.16272920983763584  0.16334169736693122  0.9366726157253709  1.0000
  Cl  Cl4       1.0  0.8372583674668164  0.8367322440961117  0.0633125871733924  1.0000
  Cl  Cl5       1.0  0.368315974153397  0.16825534718398666  0.6839773030447988  1.0000
  Cl  Cl6       1.0  0.6315719281259506  0.8319420096518184  0.3159783459752958  1.0000
  Cl  Cl7       1.0  0.9874585389048535  0.19082706299854374  0.6494216240160569  1.0000
  Cl  Cl8       1.0  0.012433543813912703  0.8092129785323151  0.35059759750927805  1.0000
  O   O1        1.0  0.3842294083802997  0.08241673732448619  0.4383316518135132  1.0000
  O   O2        1.0  0.08914419839631194  0.37842432396381287  0.05885448130820949  1.0000
  O   O3        1.0  0.10216635422145261  0.39743878413889877  0.933575156485098  1.0000
  O   O4        1.0  0.8976408084588172  0.6025762201676627  0.0664474054506385  1.0000
  O   O5        1.0  0.9176297532822916  0.3891706560157501  0.9372692739927828  1.0000
  O   O6        1.0  0.08217751140969652  0.6107975416401956  0.0627441312432993  1.0000
  O   O7        1.0  0.09610404444675423  0.6224261947375567  0.9429690684559445  1.0000
  O   O8        1.0  0.9040858476213102  0.3776026303640092  0.0570415163006643  1.0000
  O   O9        1.0  0.6158471224132854  0.9174183800737977  0.5616550499593416  1.0000
  O   O10       1.0  0.38670381148649113  0.9049127803562198  0.5637869716421804  1.0000
  O   O11       1.0  0.6133277925676097  0.09524106189305571  0.4362027708924998  1.0000
  O   O12       1.0  0.3866738500390882  0.08867074178406399  0.5620703972765213  1.0000
  O   O13       1.0  0.6132684247572584  0.9114830652542949  0.43790140311075015  1.0000
  O   O14       1.0  0.3844213811100802  0.898757952864251  0.439822722621436  1.0000
  O   O15       1.0  0.6155557792610652  0.10108279255435794  0.5601787683435191  1.0000
  O   O16       1.0  0.9110454016731636  0.621572231295289  0.9411696874551296  1.0000
