data_image0
_chemical_formula_structural       Li4B4H56C24O12F16
_chemical_formula_sum              "Li4 B4 H56 C24 O12 F16"
_cell_length_a       7.168643709000892
_cell_length_b       10.94326397817514
_cell_length_c       13.484173204418566
_cell_angle_alpha    91.2847521506602
_cell_angle_beta     90.00005697545504
_cell_angle_gamma    89.99999400484063

_space_group_name_H-M_alt    "P 1"
_space_group_IT_number       1

loop_
  _space_group_symop_operation_xyz
  'x, y, z'

loop_
  _atom_site_type_symbol
  _atom_site_label
  _atom_site_symmetry_multiplicity
  _atom_site_fract_x
  _atom_site_fract_y
  _atom_site_fract_z
  _atom_site_occupancy
  Li  Li1       1.0  0.9664790800723752  0.5086832186773905  0.6657455879192044  1.0000
  Li  Li2       1.0  0.4664808532834215  0.9913163397396971  0.8342543938429899  1.0000
  Li  Li3       1.0  0.0335212591828764  0.49131679038710285  0.3342544165255248  1.0000
  Li  Li4       1.0  0.533519485971766  0.0086845833547571  0.1657456250503557  1.0000
  B   B1        1.0  0.1236332795416004  0.6937277840075281  0.4956402039885646  1.0000
  B   B2        1.0  0.6236311573574795  0.8062719663096944  0.004365144492737698  1.0000
  B   B3        1.0  0.8763670597157328  0.3062722331299028  0.5043620254239372  1.0000
  B   B4        1.0  0.376369181900607  0.19372713948875034  0.9956378121270859  1.0000
  H   H1        1.0  0.49711550511009506  0.3945460522710179  0.6204960358654787  1.0000
  H   H2        1.0  0.9971155115676069  0.1054542277663444  0.8795038798235524  1.0000
  H   H3        1.0  0.5028862291091657  0.6054539567934398  0.3795039685796269  1.0000
  H   H4        1.0  0.0028848276876444995  0.894545781298149  0.1204961246211838  1.0000
  H   H5        1.0  0.3387242366287495  0.4748913767460863  0.5422369231957873  1.0000
  H   H6        1.0  0.8387244022123284  0.025108911963634704  0.9577629089482471  1.0000
  H   H7        1.0  0.6612761026264451  0.5251095463483749  0.45776309569755114  1.0000
  H   H8        1.0  0.16127454207827438  0.9748901803799515  0.042236339391593  1.0000
  H   H9        1.0  0.30285835008864137  0.31571359395442045  0.5643022149812182  1.0000
  H   H10       1.0  0.8028570542830594  0.1842866940281169  0.9356968565886916  1.0000
  H   H11       1.0  0.697141989165857  0.6842873264490591  0.435697062256196  1.0000
  H   H12       1.0  0.1971404950435272  0.8157123983155118  0.0643023917507861  1.0000
  H   H13       1.0  0.37767605116754044  0.32886482579441184  0.7804353107414101  1.0000
  H   H14       1.0  0.8776757479741447  0.171135460782601  0.7195645419480243  1.0000
  H   H15       1.0  0.6223242880870218  0.6711351805790999  0.21956395204740184  1.0000
  H   H16       1.0  0.1223245912804174  0.8288645455909177  0.2804347208407876  1.0000
  H   H17       1.0  0.1746431775058852  0.26269105662531445  0.7252766474897996  1.0000
  H   H18       1.0  0.6746443620401196  0.23730832703831345  0.7747230836597225  1.0000
  H   H19       1.0  0.8253571617486699  0.7373089497482039  0.2747226152990123  1.0000
  H   H20       1.0  0.325355977215196  0.7626907679962185  0.2252769063364042  1.0000
  H   H21       1.0  0.1103159650143297  0.3311593712233503  0.8999610015834847  1.0000
  H   H22       1.0  0.6103168334901101  0.16884092999234923  0.600038710084533  1.0000
  H   H23       1.0  0.8896829792769125  0.6688406378411855  0.100039002860882  1.0000
  H   H24       1.0  0.3896835057644524  0.8311590763811696  0.3999605527042789  1.0000
  H   H25       1.0  0.18937132858850703  0.4820145950747162  0.8731431686623594  1.0000
  H   H26       1.0  0.6893708761028137  0.0179856991215388  0.6268558430479274  1.0000
  H   H27       1.0  0.8106290106661121  0.5179844972688415  0.1268560796778502  1.0000
  H   H28       1.0  0.3106280681876754  0.9820152212819838  0.3731434341891244  1.0000
  H   H29       1.0  0.9110211115225297  0.5718261896569601  0.9070427633508018  1.0000
  H   H30       1.0  0.41102104822333274  0.9281733691056786  0.592956447503127  1.0000
  H   H31       1.0  0.0889806226967877  0.4281729053775294  0.0929572266456944  1.0000
  H   H32       1.0  0.58897929103059  0.07182572054689733  0.4070420591811512  1.0000
  H   H33       1.0  0.7690542594167127  0.43930867334836426  0.9284771120891122  1.0000
  H   H34       1.0  0.2690528190750072  0.06069253320598731  0.5715226977549861  1.0000
  H   H35       1.0  0.23094607983853885  0.5606913357161291  0.0715228923556239  1.0000
  H   H36       1.0  0.7309461252155388  0.939307473167567  0.4284765650334563  1.0000
  H   H37       1.0  0.5798007436621546  0.4833587355511853  0.7793511677854924  1.0000
  H   H38       1.0  0.0798009842847875  0.016642478674306502  0.7206478005794921  1.0000
  H   H39       1.0  0.42019959559304004  0.5166421875432761  0.22064885110784618  1.0000
  H   H40       1.0  0.9201993549690787  0.9833575250082309  0.2793507205533956  1.0000
  H   H41       1.0  0.5921992459718624  0.6178521706480496  0.8571365847626993  1.0000
  H   H42       1.0  0.09220067828903925  0.8821492336308694  0.6428624868230982  1.0000
  H   H43       1.0  0.4078010932833322  0.3821487524464049  0.1428634341306392  1.0000
  H   H44       1.0  0.9077996609648268  0.11785077005166764  0.35713603430978946  1.0000
  H   H45       1.0  0.5942301870118811  0.7717344858944983  0.7348475200809618  1.0000
  H   H46       1.0  0.094229082528507  0.7282660042433237  0.7651515381268083  1.0000
  H   H47       1.0  0.40577015224331353  0.2282664371999559  0.2651524988123768  1.0000
  H   H48       1.0  0.9057698617620957  0.2717330881002696  0.23484771021303172  1.0000
  H   H49       1.0  0.518871372428265  0.6521895989202947  0.6513906946595469  1.0000
  H   H50       1.0  0.0188718001963508  0.847810895343592  0.8486083237998728  1.0000
  H   H51       1.0  0.48112896682629  0.3478104074532169  0.348608568129265  1.0000
  H   H52       1.0  0.9811271440941952  0.152189111029962  0.15139093898856967  1.0000
  H   H53       1.0  0.7220325022139775  0.7399189590216085  0.6222579218212658  1.0000
  H   H54       1.0  0.2220329983495759  0.7600815268096143  0.8777419454534368  1.0000
  H   H55       1.0  0.2779678370412171  0.26008196407284606  0.37774209707207257  1.0000
  H   H56       1.0  0.7779673409056757  0.23991848225487894  0.12225805899129942  1.0000
  C   C1        1.0  0.3506233368095337  0.4032624769062849  0.5972707362965579  1.0000
  C   C2        1.0  0.8506233881019797  0.09673780846095069  0.9027283604678189  1.0000
  C   C3        1.0  0.6493770024450215  0.5967375294672338  0.402728526492254  1.0000
  C   C4        1.0  0.14937555618862325  0.9032612838826352  0.09727088787202119  1.0000
  C   C5        1.0  0.23483171118008533  0.34865111919041425  0.7553841270915314  1.0000
  C   C6        1.0  0.7348314579862674  0.15134917251675262  0.7446149085973276  1.0000
  C   C7        1.0  0.7651672331104606  0.65134888718314  0.24461513569691112  1.0000
  C   C8        1.0  0.2651674863036391  0.848649917135866  0.2553835980865884  1.0000
  C   C9        1.0  0.12210614062400543  0.39904612223450897  0.8413112626165785  1.0000
  C   C10       1.0  0.6221057346007443  0.10095417564469501  0.6586877136140288  1.0000
  C   C11       1.0  0.8778941986305567  0.6009538841390096  0.1586880001722335  1.0000
  C   C12       1.0  0.37789320968985873  0.8990449166988911  0.3413115347258113  1.0000
  C   C13       1.0  0.827807295394976  0.4985584445261749  0.8711169782925978  1.0000
  C   C14       1.0  0.3278059717412846  0.0014427561203049996  0.6288821208854785  1.0000
  C   C15       1.0  0.17219443882422783  0.5014424785682436  0.1288830406011101  1.0000
  C   C16       1.0  0.6721929725492615  0.9985572502532495  0.3711171419029712  1.0000
  C   C17       1.0  0.6742621502136572  0.5541426778417745  0.8103460110060327  1.0000
  C   C18       1.0  0.17426226506060524  0.9458578052230635  0.6896523477597823  1.0000
  C   C19       1.0  0.3257381890401518  0.4458582398707237  0.18965252457546458  1.0000
  C   C20       1.0  0.825738074194014  0.054141287120486915  0.310346900580427  1.0000
  C   C21       1.0  0.6414803647014294  0.6996991748177238  0.6824054976382214  1.0000
  C   C22       1.0  0.1414807419374569  0.8003013154239658  0.8175943271484273  1.0000
  C   C23       1.0  0.35851997455376516  0.30030174827673767  0.31759452125511695  1.0000
  C   C24       1.0  0.8585195973177946  0.19969869364053494  0.1824056772963019  1.0000
  O   O1        1.0  0.23548168669151437  0.4391088811758054  0.6799495265229609  1.0000
  O   O2        1.0  0.7354801939714477  0.060891410495798916  0.8200495095084149  1.0000
  O   O3        1.0  0.7645186525637371  0.5608911278886878  0.3200504779217752  1.0000
  O   O4        1.0  0.2645187503184019  0.9391085931867739  0.1799490116241103  1.0000
  O   O5        1.0  0.9423142530412961  0.42978281236096194  0.8029256864744525  1.0000
  O   O6        1.0  0.4423144410911847  0.07021838201590211  0.6970734731018453  1.0000
  O   O7        1.0  0.0576860862132662  0.5702171940125567  0.1970735763143594  1.0000
  O   O8        1.0  0.5576858981633137  0.9297825383875779  0.302925804135576  1.0000
  O   O9        1.0  0.7636318356319906  0.6167825552216614  0.7311158997864098  1.0000
  O   O10       1.0  0.2636321086268936  0.8832179256409138  0.7688832477742834  1.0000
  O   O11       1.0  0.23636850362319714  0.38321836787279306  0.2688841191069287  1.0000
  O   O12       1.0  0.7363682306276618  0.11678208073260522  0.2311160150145284  1.0000
  F   F1        1.0  0.0176105059056368  0.6274325252595077  0.5661994302080231  1.0000
  F   F2        1.0  0.517617546604626  0.872567977146169  0.9338018125558564  1.0000
  F   F3        1.0  0.9823912283156488  0.372568405907842  0.4338028136534575  1.0000
  F   F4        1.0  0.48239116243401275  0.12743202922711563  0.0661974502351654  1.0000
  F   F5        1.0  0.1570230649116624  0.6155936565435597  0.4107459199515162  1.0000
  F   F6        1.0  0.6570224842079425  0.8844070059753975  0.08925946059057568  1.0000
  F   F7        1.0  0.8429730894543825  0.3844054492549986  0.5892570366672061  1.0000
  F   F8        1.0  0.3429764600853176  0.11559392519203734  0.910742783270166  1.0000
  F   F9        1.0  0.2962238434046043  0.72689869986025  0.5371854627657697  1.0000
  F   F10       1.0  0.7962211893612122  0.7730990748017065  0.9628240418222447  1.0000
  F   F11       1.0  0.7037778908152958  0.2731022259251503  0.46281529778386243  1.0000
  F   F12       1.0  0.20377914990120874  0.22689730505271655  0.0371833213873032  1.0000
  F   F13       1.0  0.021728333462554907  0.7968465735905781  0.4669745874890197  1.0000
  F   F14       1.0  0.5217179114161539  0.7031559217053598  0.0330300089292166  1.0000
  F   F15       1.0  0.9782747957227472  0.20315435757673586  0.5330276563728304  1.0000
  F   F16       1.0  0.4782768479843753  0.29684500677120707  0.9669714932744924  1.0000
