data_image0
_chemical_formula_structural       Mn4H36C28N12O20
_chemical_formula_sum              "Mn4 H36 C28 N12 O20"
_cell_length_a       6.723750801246427
_cell_length_b       11.44604834708891
_cell_length_c       12.09807255375485
_cell_angle_alpha    107.18623644641377
_cell_angle_beta     90.0018919163329
_cell_angle_gamma    89.9984095349212

_space_group_name_H-M_alt    "P 1"
_space_group_IT_number       1

loop_
  _space_group_symop_operation_xyz
  'x, y, z'

loop_
  _atom_site_type_symbol
  _atom_site_label
  _atom_site_symmetry_multiplicity
  _atom_site_fract_x
  _atom_site_fract_y
  _atom_site_fract_z
  _atom_site_occupancy
  Mn  Mn1       1.0  0.901351671495412  0.5740704400086614  0.8298577095528757  1.0000
  Mn  Mn2       1.0  0.4012741572630245  0.9259563851064105  0.6701494431965644  1.0000
  Mn  Mn3       1.0  0.09881939943860367  0.4255923398833872  0.17020088826141944  1.0000
  Mn  Mn4       1.0  0.5988760733322847  0.07437510709906552  0.329804716249825  1.0000
  H   H1        1.0  0.8099430777497145  0.38353792640414525  0.5339798078207496  1.0000
  H   H2        1.0  0.30995088388630154  0.11646604774756499  0.96603582857405  1.0000
  H   H3        1.0  0.19044512438126293  0.616484352389584  0.4660398161546127  1.0000
  H   H4        1.0  0.6904402931891905  0.8835141696695886  0.03396457246994094  1.0000
  H   H5        1.0  0.5194789121745058  0.6777520718343696  0.014133405353156473  1.0000
  H   H6        1.0  0.019516974344149705  0.8222475770845606  0.4858317549328035  1.0000
  H   H7        1.0  0.4803575175139513  0.32214581246065427  0.9858869064673074  1.0000
  H   H8        1.0  0.9803179616049177  0.1778515830275893  0.5141275714487747  1.0000
  H   H9        1.0  0.7335659999408576  0.6627665521546009  0.09458201398305735  1.0000
  H   H10       1.0  0.23356294474295677  0.8372616876570476  0.40536702796978824  1.0000
  H   H11       1.0  0.2662213509570889  0.3371386215839323  0.9054767090023931  1.0000
  H   H12       1.0  0.7662229104650747  0.16283566935069874  0.5945570765235786  1.0000
  H   H13       1.0  0.4191113401808763  0.6281311708793851  0.19492556305113604  1.0000
  H   H14       1.0  0.9190709170090796  0.8718994312629533  0.3050598226667845  1.0000
  H   H15       1.0  0.5806908833755101  0.3717767450423537  0.8051355814683278  1.0000
  H   H16       1.0  0.08071493835350908  0.12818603789820324  0.6948601247944239  1.0000
  H   H17       1.0  0.573805213975177  0.4976677734331077  0.1576759303826094  1.0000
  H   H18       1.0  0.07372777921556657  0.002375888801616101  0.3423282429140713  1.0000
  H   H19       1.0  0.42605352495066734  0.5022611853302054  0.8423778846942228  1.0000
  H   H20       1.0  0.926107156600693  0.9976885368957582  0.6575990347959647  1.0000
  H   H21       1.0  0.7436502751397568  0.4903934906028199  0.3842247951393177  1.0000
  H   H22       1.0  0.24364992167907212  0.0096124938696462  0.11578602921733251  1.0000
  H   H23       1.0  0.2566115089993913  0.5097156447820055  0.6158480913101131  1.0000
  H   H24       1.0  0.7566237619159322  0.9902772116261572  0.8841584298680303  1.0000
  H   H25       1.0  0.7763151948229134  0.46138244723035643  0.9729918618581622  1.0000
  H   H26       1.0  0.2763439719794362  0.0386219432072679  0.5269959897781362  1.0000
  H   H27       1.0  0.2234022571834089  0.5384842680816176  0.02712386551815628  1.0000
  H   H28       1.0  0.7233704924158882  0.9615092902147  0.47288387716147895  1.0000
  H   H29       1.0  0.9367014793508088  0.31700997949679544  0.7948071810029803  1.0000
  H   H30       1.0  0.4366878968578759  0.18301354170407796  0.7052063664999367  1.0000
  H   H31       1.0  0.06351122728408849  0.6828321676577715  0.20513056637666693  1.0000
  H   H32       1.0  0.5635173694427066  0.8171596288914174  0.2948571822081689  1.0000
  H   H33       1.0  0.11430033501375897  0.35363765766436484  0.7207483933857476  1.0000
  H   H34       1.0  0.6142882259216335  0.1463594808922153  0.7792567350598462  1.0000
  H   H35       1.0  0.886007556285115  0.6462730578906389  0.2792333620848312  1.0000
  H   H36       1.0  0.3859973532347637  0.8537213464041074  0.22075201361074903  1.0000
  C   C1        1.0  0.7219016291889202  0.7781461236565407  0.751671157815153  1.0000
  C   C2        1.0  0.22190215650154232  0.7218672687166504  0.7483297264229166  1.0000
  C   C3        1.0  0.2780121401828168  0.22185958240463322  0.24849921548994303  1.0000
  C   C4        1.0  0.7779922687043522  0.2781359389937493  0.2515076623646736  1.0000
  C   C5        1.0  0.7220957961774273  0.6722565555744141  0.6451188949135941  1.0000
  C   C6        1.0  0.22211103871192242  0.8277495123557299  0.8548882068601031  1.0000
  C   C7        1.0  0.27773468587751177  0.3276787731369737  0.3549796865442687  1.0000
  C   C8        1.0  0.7777298455861298  0.1723194985895233  0.1450229973500399  1.0000
  C   C9        1.0  0.7766133097542107  0.4802234673625422  0.5546093245644386  1.0000
  C   C10       1.0  0.2766273783570128  0.019784559959099102  0.9454035221330415  1.0000
  C   C11       1.0  0.22357411280025016  0.5197713576015418  0.4454298832641541  1.0000
  C   C12       1.0  0.7235719401631328  0.9802276879129296  0.054576093847480044  1.0000
  C   C13       1.0  0.6974947905746232  0.6575177427372054  0.5269151015985472  1.0000
  C   C14       1.0  0.19749695432331996  0.8424895315113475  0.9730894014141782  1.0000
  C   C15       1.0  0.3024279009252879  0.3424706311111265  0.4731917290149212  1.0000
  C   C16       1.0  0.8024465524774627  0.1575200286249938  0.026815893751354705  1.0000
  C   C17       1.0  0.6415429399722895  0.7420710453092242  0.4607082099122054  1.0000
  C   C18       1.0  0.14153099976218184  0.7579408590911288  0.03929488674424425  1.0000
  C   C19       1.0  0.3584600627414928  0.25792284064527143  0.5393654494161737  1.0000
  C   C20       1.0  0.8584853839057087  0.24206045125121284  0.9606337217890868  1.0000
  C   C21       1.0  0.6073623492060846  0.6127620769470711  0.04534384448557927  1.0000
  C   C22       1.0  0.10737621955124867  0.887247506734319  0.4546306904041232  1.0000
  C   C23       1.0  0.3924368995756211  0.3871330470107424  0.9546988378517582  1.0000
  C   C24       1.0  0.8924170723676069  0.11285166886109009  0.5453079754751897  1.0000
  C   C25       1.0  0.48086061250112505  0.5566555124042124  0.12166602227628692  1.0000
  C   C26       1.0  0.9808077800148138  0.943375272952345  0.37832552086313614  1.0000
  C   C27       1.0  0.5189505347608828  0.44325605718483274  0.8784019319705507  1.0000
  C   C28       1.0  0.0189840242730739  0.0567111137179523  0.6215905508085271  1.0000
  N   N1        1.0  0.7708379833130717  0.5605908714069016  0.6595485898375131  1.0000
  N   N2        1.0  0.2708680035383181  0.9394118767042914  0.8404609669260026  1.0000
  N   N3        1.0  0.22917543037132757  0.43935181913224136  0.34048840926447355  1.0000
  N   N4        1.0  0.7291483801475066  0.06064793886989151  0.1595146156021912  1.0000
  N   N5        1.0  0.7346018242841834  0.5352621303869327  0.47281946290378585  1.0000
  N   N6        1.0  0.2346003702798996  0.9647431854220516  0.0271901288272006  1.0000
  N   N7        1.0  0.26551867108445026  0.46476743913854085  0.5272385705674055  1.0000
  N   N8        1.0  0.7655424326109351  0.0352233440469618  0.9727684125527531  1.0000
  N   N9        1.0  0.6849711188811936  0.5180790682329431  0.9429403240802402  1.0000
  N   N10       1.0  0.18499887712776084  0.9819119138466876  0.5570304520074034  1.0000
  N   N11       1.0  0.3148221823915165  0.4817968196360241  0.05713995115505812  1.0000
  N   N12       1.0  0.8147825152781534  0.0182055797890115  0.44287532308001704  1.0000
  O   O1        1.0  0.6830114730897704  0.8862660996556646  0.7476086920716158  1.0000
  O   O2        1.0  0.18303660520959394  0.6137404361285377  0.7523878960976306  1.0000
  O   O3        1.0  0.31787644932902026  0.11378453473158603  0.25240648186746034  1.0000
  O   O4        1.0  0.8178736279314405  0.3862086835164008  0.24760627726646336  1.0000
  O   O5        1.0  0.7662046101436314  0.7541304842182868  0.8451023907824294  1.0000
  O   O6        1.0  0.26615837665699615  0.745889702914326  0.6549003927834178  1.0000
  O   O7        1.0  0.2328703442617409  0.24583585405995487  0.15512389843383542  1.0000
  O   O8        1.0  0.7328332757723642  0.2541611175772971  0.34487758776211314  1.0000
  O   O9        1.0  0.5665854245677479  0.8458030592323598  0.514273416974696  1.0000
  O   O10       1.0  0.06660452933861895  0.654199362266546  0.9857190297818051  1.0000
  O   O11       1.0  0.433264389247519  0.1541478773687501  0.4857460529184652  1.0000
  O   O12       1.0  0.9332601537538563  0.34584033161871025  0.014255873590492702  1.0000
  O   O13       1.0  0.6716576426806353  0.7082804922870666  0.3516557228685003  1.0000
  O   O14       1.0  0.17161335238871794  0.7917411174826725  0.148349825185946  1.0000
  O   O15       1.0  0.3286011699493726  0.29174720781165325  0.648455515734156  1.0000
  O   O16       1.0  0.8286365314407717  0.2082327785276448  0.8515413484074301  1.0000
  O   O17       1.0  0.9870920096196085  0.3819024732683332  0.7619911194515014  1.0000
  O   O18       1.0  0.48707296353528295  0.1181122254849285  0.7380184124001161  1.0000
  O   O19       1.0  0.0131668024694136  0.6179643497855167  0.23797420591596824  1.0000
  O   O20       1.0  0.5131605605830671  0.8820271268544534  0.2620108648319715  1.0000
