data_image0
_chemical_formula_structural       Cu8H104C92N8O32
_chemical_formula_sum              "Cu8 H104 C92 N8 O32"
_cell_length_a       8.631110112587871
_cell_length_b       12.985699444901842
_cell_length_c       27.825908796879133
_cell_angle_alpha    90.02128311866561
_cell_angle_beta     90.01497999364452
_cell_angle_gamma    90.00122308776491

_space_group_name_H-M_alt    "P 1"
_space_group_IT_number       1

loop_
  _space_group_symop_operation_xyz
  'x, y, z'

loop_
  _atom_site_type_symbol
  _atom_site_label
  _atom_site_symmetry_multiplicity
  _atom_site_fract_x
  _atom_site_fract_y
  _atom_site_fract_z
  _atom_site_occupancy
  Cu  Cu1       1.0  0.05209245173805501  0.04684705842680611  0.538190195076119  1.0000
  Cu  Cu2       1.0  0.051501638954938804  0.4534648043522652  0.9621403453258213  1.0000
  Cu  Cu3       1.0  0.44852339089153764  0.9534937699370831  0.03785879576840051  1.0000
  Cu  Cu4       1.0  0.44839105835383464  0.5465328387168854  0.4621888995093641  1.0000
  Cu  Cu5       1.0  0.9479248075611364  0.9531786035614334  0.46182938807722723  1.0000
  Cu  Cu6       1.0  0.9484878071546278  0.546548530047396  0.0378637824212049  1.0000
  Cu  Cu7       1.0  0.551491543175672  0.046501851973502505  0.9621431752053626  1.0000
  Cu  Cu8       1.0  0.5516122996520919  0.45342736942521367  0.537837864971543  1.0000
  H   H1        1.0  0.8759088816877991  0.2661497964867011  0.4013068781518498  1.0000
  H   H2        1.0  0.8755419089594909  0.23389759898186924  0.0987015505520503  1.0000
  H   H3        1.0  0.6245703614723865  0.7337579554148094  0.9013216392244277  1.0000
  H   H4        1.0  0.6249170563669323  0.7662169339829178  0.5986795304631727  1.0000
  H   H5        1.0  0.1241002582585153  0.7338342733578218  0.5986929353264899  1.0000
  H   H6        1.0  0.1244614388168372  0.7661072633596079  0.9012993426241496  1.0000
  H   H7        1.0  0.37542487571614913  0.2662507568343316  0.0986781758274375  1.0000
  H   H8        1.0  0.37504457532843105  0.23378407168145546  0.4013062668588887  1.0000
  H   H9        1.0  0.7749835673265295  0.2937017208448297  0.45524738708421364  1.0000
  H   H10       1.0  0.7751083621211874  0.20661077740073355  0.04461714190224341  1.0000
  H   H11       1.0  0.7249114203549211  0.7065556091369418  0.9554182222463865  1.0000
  H   H12       1.0  0.7247611342201877  0.7935222019947832  0.5445633152251759  1.0000
  H   H13       1.0  0.22501514574546633  0.7063031411802784  0.5447527871514026  1.0000
  H   H14       1.0  0.2249030974402189  0.7933886960239392  0.9553877042837231  1.0000
  H   H15       1.0  0.2750814986507706  0.2934407811338104  0.04457979476022442  1.0000
  H   H16       1.0  0.27522483963387145  0.20646649361574998  0.45545015406165856  1.0000
  H   H17       1.0  0.1082520274217273  0.3621452202738525  0.43246970956461445  1.0000
  H   H18       1.0  0.1083046379591011  0.13809642359466787  0.0675048318147375  1.0000
  H   H19       1.0  0.3917266171998576  0.6380397505043762  0.9325037202165093  1.0000
  H   H20       1.0  0.39182426897938427  0.8618428906270879  0.5676437034503934  1.0000
  H   H21       1.0  0.8917049799509726  0.6378542546653707  0.567539806342026  1.0000
  H   H22       1.0  0.8916987140213735  0.861903822292746  0.9325061235270483  1.0000
  H   H23       1.0  0.608269777210559  0.36196896046212873  0.06749286048587781  1.0000
  H   H24       1.0  0.6081779185243121  0.13817121092202467  0.4323528779506134  1.0000
  H   H25       1.0  0.0187154652602715  0.3736090679634432  0.48913839525706493  1.0000
  H   H26       1.0  0.018654507353886605  0.1265836799618896  0.010821047063117801  1.0000
  H   H27       1.0  0.4813856127663739  0.6265610510266839  0.9891941418987074  1.0000
  H   H28       1.0  0.48100436648648787  0.8734089685101127  0.510920213651211  1.0000
  H   H29       1.0  0.9812890436720425  0.6263673043689195  0.5108696830478864  1.0000
  H   H30       1.0  0.9813662228105285  0.8734227258002394  0.9891877532447354  1.0000
  H   H31       1.0  0.518602673103736  0.3734461213087387  0.010806391495727  1.0000
  H   H32       1.0  0.519037214468419  0.12657895207522074  0.48907996083893585  1.0000
  H   H33       1.0  0.0004509579056702  0.5364783897037456  0.4434842364166017  1.0000
  H   H34       1.0  0.0006586330763767002  0.9637326673003488  0.05647255259734862  1.0000
  H   H35       1.0  0.4994072983932938  0.4636737754264006  0.9435006865770532  1.0000
  H   H36       1.0  0.4995684561046758  0.036353241634131506  0.5562073704670496  1.0000
  H   H37       1.0  0.9995523974970053  0.46352493964884195  0.5565346254928302  1.0000
  H   H38       1.0  0.9993447181387294  0.036267577870368904  0.9435366058578013  1.0000
  H   H39       1.0  0.5005763513265792  0.5363295449129667  0.0564958931478188  1.0000
  H   H40       1.0  0.5004348875386812  0.963651616837183  0.4437838195212721  1.0000
  H   H41       1.0  0.9043918330942304  0.4749395410938179  0.39521738307345805  1.0000
  H   H42       1.0  0.904766459535452  0.025133613571576105  0.10473550319439792  1.0000
  H   H43       1.0  0.5953384133328825  0.525077328979144  0.8952548167935818  1.0000
  H   H44       1.0  0.5942842022788071  0.975226798772532  0.6048154958252567  1.0000
  H   H45       1.0  0.09560339559046578  0.525073013517954  0.6047623071810051  1.0000
  H   H46       1.0  0.0952218276986585  0.9748727899759759  0.8952682645293921  1.0000
  H   H47       1.0  0.404656821838408  0.4749298412507272  0.10474032621980461  1.0000
  H   H48       1.0  0.40567512133066685  0.024778835801583913  0.39519150506587414  1.0000
  H   H49       1.0  0.20536042307645633  0.2540908188399982  0.5656875851194201  1.0000
  H   H50       1.0  0.2054198565939274  0.24569758384691914  0.9340662141524164  1.0000
  H   H51       1.0  0.29466847707862337  0.7457007535747878  0.0658847697408689  1.0000
  H   H52       1.0  0.2945763923869862  0.7542314812385347  0.43416710578408424  1.0000
  H   H53       1.0  0.7946278626132752  0.7459148131962295  0.4343125887644774  1.0000
  H   H54       1.0  0.7945556814149767  0.7542980343711536  0.0659271301851021  1.0000
  H   H55       1.0  0.7053337108492029  0.2542940967428322  0.9341136068817095  1.0000
  H   H56       1.0  0.7054327484475352  0.24575952002403068  0.5658345051803266  1.0000
  H   H57       1.0  0.3955489567033865  0.3199165445336334  0.6250175707180432  1.0000
  H   H58       1.0  0.3956273684980758  0.17993436797300436  0.8747683852475634  1.0000
  H   H59       1.0  0.10444821290757739  0.6800109017724767  0.1251830884920011  1.0000
  H   H60       1.0  0.10443190016524541  0.8200005219170664  0.37484706579164145  1.0000
  H   H61       1.0  0.6044543893179578  0.6800929365553333  0.37497901032983094  1.0000
  H   H62       1.0  0.6043585984101724  0.8200597115894086  0.1252285531483679  1.0000
  H   H63       1.0  0.8955528166859067  0.3199816385906118  0.8748160066389519  1.0000
  H   H64       1.0  0.8955656547313424  0.17998508886911685  0.6251549036190696  1.0000
  H   H65       1.0  0.35992718107656424  0.02690701684170451  0.6982620834318993  1.0000
  H   H66       1.0  0.3604019854394167  0.47296581575450625  0.8016256110130586  1.0000
  H   H67       1.0  0.1394870111539674  0.9731504384517535  0.19834744234799476  1.0000
  H   H68       1.0  0.13949530324708087  0.5268883652870642  0.3016309012804399  1.0000
  H   H69       1.0  0.64006805457052  0.9730924531822468  0.3017344964247712  1.0000
  H   H70       1.0  0.6396083116137277  0.5270290336116903  0.19837025029358563  1.0000
  H   H71       1.0  0.8605151768450414  0.026839791541633008  0.8016512932522987  1.0000
  H   H72       1.0  0.8605323733374278  0.47311957580192415  0.6983656806103229  1.0000
  H   H73       1.0  0.1686670026904125  0.9736852228368067  0.6351045763612292  1.0000
  H   H74       1.0  0.16908825440267347  0.5261582538316179  0.8647370984685594  1.0000
  H   H75       1.0  0.3308220146115773  0.026257958118350206  0.13524670899054314  1.0000
  H   H76       1.0  0.3308373157064467  0.47373318739246184  0.3647600422404409  1.0000
  H   H77       1.0  0.831327074673993  0.026323488258199718  0.3648923636255219  1.0000
  H   H78       1.0  0.8309150915094747  0.4738450666339278  0.13525948204649302  1.0000
  H   H79       1.0  0.6691766988952709  0.9737368934670557  0.864754901888553  1.0000
  H   H80       1.0  0.6691857257174478  0.5262662822362715  0.6352351012224489  1.0000
  H   H81       1.0  0.5730180670946723  0.2792448216478364  0.6934645814819618  1.0000
  H   H82       1.0  0.5732342677963159  0.22059990138701122  0.8063521500808832  1.0000
  H   H83       1.0  0.926775537941083  0.7207559118373728  0.19357065097113954  1.0000
  H   H84       1.0  0.9267203657754735  0.7793106704494692  0.3064198290947644  1.0000
  H   H85       1.0  0.426981802794586  0.7207631189763293  0.3065312805386072  1.0000
  H   H86       1.0  0.4267482233298807  0.7793864775171999  0.1936451468869009  1.0000
  H   H87       1.0  0.07323244348757642  0.27923277846729644  0.8064291628603402  1.0000
  H   H88       1.0  0.0732876157653095  0.22067570976475548  0.6935803439142347  1.0000
  H   H89       1.0  0.5792893133587141  0.15255340072308607  0.7171727782809826  1.0000
  H   H90       1.0  0.5793136941382215  0.3473299060493318  0.7826462489840509  1.0000
  H   H91       1.0  0.9206473194734957  0.8475039974775319  0.21732362929765975  1.0000
  H   H92       1.0  0.9206589477447055  0.6525732776304525  0.2826408468857693  1.0000
  H   H93       1.0  0.4207163487112524  0.8474429881959227  0.2828216454636348  1.0000
  H   H94       1.0  0.42068849371064226  0.6526518530868516  0.21735248588360895  1.0000
  H   H95       1.0  0.0793490756808524  0.1524862326220884  0.7826754654475538  1.0000
  H   H96       1.0  0.07935598590423609  0.3474246540838948  0.717360046155811  1.0000
  H   H97       1.0  0.3282015751670784  0.3133195801860253  0.7388139986793193  1.0000
  H   H98       1.0  0.3282145914025492  0.1865666904508957  0.7610362732963909  1.0000
  H   H99       1.0  0.17178358356833456  0.6867086122454469  0.23887753747420964  1.0000
  H   H100      1.0  0.17175012962348998  0.8133906936239089  0.2611598232680095  1.0000
  H   H101      1.0  0.6717994540490864  0.686677580214614  0.2611840187192627  1.0000
  H   H102      1.0  0.6717806429926584  0.8134312382704824  0.2389574314084442  1.0000
  H   H103      1.0  0.8282301911173918  0.3132947095769581  0.7611222778551224  1.0000
  H   H104      1.0  0.8282462655142808  0.18660723711164456  0.7388389127659067  1.0000
  C   C1        1.0  0.9401952610187224  0.17738016412823043  0.462881800545695  1.0000
  C   C2        1.0  0.9405530204375127  0.3227266770561387  0.03736110312086541  1.0000
  C   C3        1.0  0.5594523175799962  0.8226936502761507  0.9626393628641026  1.0000
  C   C4        1.0  0.5594030125482378  0.6773612694407803  0.5373792138776068  1.0000
  C   C5        1.0  0.0598011328018515  0.8226039042012518  0.5371144186480663  1.0000
  C   C6        1.0  0.05945611905735859  0.6772751038640268  0.9626369150026977  1.0000
  C   C7        1.0  0.44055218822746417  0.17730505101930316  0.03736045169377181  1.0000
  C   C8        1.0  0.44057484518788925  0.322647442266998  0.4626195223450581  1.0000
  C   C9        1.0  0.890825193752093  0.27871761242359855  0.44004512504528054  1.0000
  C   C10       1.0  0.8908673545817082  0.22150246421067274  0.0599393754066639  1.0000
  C   C11       1.0  0.6091819135721579  0.7214382089163038  0.9400820336826501  1.0000
  C   C12       1.0  0.6091797376502655  0.7785927053634512  0.5599394547998315  1.0000
  C   C13       1.0  0.10916193331372881  0.7212780087354888  0.5599554073036259  1.0000
  C   C14       1.0  0.1091429450161385  0.7784977779944527  0.9400622364034634  1.0000
  C   C15       1.0  0.39081332336775176  0.278565112644003  0.059917421525661  1.0000
  C   C16       1.0  0.3907830577506458  0.22141138535025826  0.440058202286977  1.0000
  C   C17       1.0  0.9956265843610909  0.37084608344640924  0.4504551611321973  1.0000
  C   C18       1.0  0.9956357569417449  0.12936839577685794  0.04951438673516861  1.0000
  C   C19       1.0  0.5043986618080396  0.6293141936480638  0.9504968357096433  1.0000
  C   C20       1.0  0.5043468756058401  0.8706807558986256  0.5495956627649292  1.0000
  C   C21       1.0  0.0043454825915035  0.6291580099067815  0.5495489651183761  1.0000
  C   C22       1.0  0.0043768618451452005  0.8706318483065234  0.9504918970731924  1.0000
  C   C23       1.0  0.4955907821477938  0.3706898979530567  0.04950261933286981  1.0000
  C   C24       1.0  0.49564372724982064  0.12934027742432622  0.4504037937893274  1.0000
  C   C25       1.0  0.9221315311646024  0.4724109046002313  0.4342983616604316  1.0000
  C   C26       1.0  0.9223258131216597  0.027769514603463104  0.06564984058137212  1.0000
  C   C27       1.0  0.5777293349691989  0.5277064519966359  0.9343448859228048  1.0000
  C   C28       1.0  0.57748054398877  0.9723248401067791  0.5657049755472486  1.0000
  C   C29       1.0  0.07786370204110679  0.5276062746359502  0.5656917509361818  1.0000
  C   C30       1.0  0.07767174349380922  0.9722353494209701  0.9343553648903724  1.0000
  C   C31       1.0  0.4222589493867588  0.4722930182694612  0.0656524124096407  1.0000
  C   C32       1.0  0.4225251213746901  0.02768464300378781  0.43429663687619074  1.0000
  C   C33       1.0  0.7665271921246488  0.49228139297962764  0.458451539929584  1.0000
  C   C34       1.0  0.7666515514728615  0.0078300570277321  0.04153879396645271  1.0000
  C   C35       1.0  0.7333959426135762  0.5078005409752607  0.9584614705231049  1.0000
  C   C36       1.0  0.7339778023747315  0.992036452944639  0.5417809454215927  1.0000
  C   C37       1.0  0.2334576139942186  0.5077273157625656  0.5415396496480582  1.0000
  C   C38       1.0  0.23335179687480687  0.9921724956533213  0.958463536519254  1.0000
  C   C39       1.0  0.2665981339747461  0.49219892861125214  0.0415340311550949  1.0000
  C   C40       1.0  0.2660301804393654  0.007969950155740004  0.4582213855830589  1.0000
  C   C41       1.0  0.24183239660411723  0.20627431732226856  0.5958585910902273  1.0000
  C   C42       1.0  0.2419199685272915  0.2935584561886345  0.9039204208729998  1.0000
  C   C43       1.0  0.2581793323855024  0.7935875217254849  0.09604207886375353  1.0000
  C   C44       1.0  0.25806912971666657  0.7063673459113178  0.4040021982772899  1.0000
  C   C45       1.0  0.7581616826381108  0.7937367057265877  0.4041426616242845  1.0000
  C   C46       1.0  0.7580694737749739  0.7064387032777478  0.09607543979679893  1.0000
  C   C47       1.0  0.7418124279796957  0.20640655830406027  0.9039559378965693  1.0000
  C   C48       1.0  0.7419411697719908  0.2936267356703867  0.5959994130000155  1.0000
  C   C49       1.0  0.34905943093428954  0.2424319332421305  0.6292654690584385  1.0000
  C   C50       1.0  0.34915666718690375  0.2574083798693607  0.8705347255202724  1.0000
  C   C51       1.0  0.15091007117249694  0.7574827263289806  0.1294222424961688  1.0000
  C   C52       1.0  0.15083410787321583  0.742507725954731  0.3706012135096515  1.0000
  C   C53       1.0  0.6509473911508933  0.7575752379219979  0.37073183068373083  1.0000
  C   C54       1.0  0.6508362521249325  0.7425880106880743  0.12946401024099433  1.0000
  C   C55       1.0  0.849087482217726  0.2425128938935331  0.8705757746297637  1.0000
  C   C56       1.0  0.8491761909183211  0.25749020529990935  0.6293986012140208  1.0000
  C   C57       1.0  0.3944765135259303  0.1785917377870733  0.667234295041311  1.0000
  C   C58       1.0  0.39470355586855294  0.32123530040853154  0.8325788914501686  1.0000
  C   C59       1.0  0.10528781037150028  0.821380921210306  0.16736612006545934  1.0000
  C   C60       1.0  0.10524329604061221  0.6786482142416121  0.33263750806286657  1.0000
  C   C61       1.0  0.6055361001520296  0.821413891968263  0.3327597704040883  1.0000
  C   C62       1.0  0.6052939963819101  0.6787564684209713  0.1674166097014478  1.0000
  C   C63       1.0  0.8947201720028984  0.17860931011024667  0.832635850163193  1.0000
  C   C64       1.0  0.8947855406225073  0.32134817726261383  0.6673630260259531  1.0000
  C   C65       1.0  0.3281783704452438  0.08015471395419381  0.6695353553307513  1.0000
  C   C66       1.0  0.32852860796241146  0.4196961386879325  0.8303242690584585  1.0000
  C   C67       1.0  0.17139441866265065  0.9198521137931551  0.1696449594899647  1.0000
  C   C68       1.0  0.17135143064162858  0.5801624646962367  0.3303578620954184  1.0000
  C   C69       1.0  0.6718203419325662  0.9198455270299848  0.330463380995937  1.0000
  C   C70       1.0  0.6714747387151051  0.580307182494309  0.1696741083432372  1.0000
  C   C71       1.0  0.8286089285754912  0.08013965693687204  0.8303552137993295  1.0000
  C   C72       1.0  0.828672770147179  0.41983700565661775  0.6696390783006054  1.0000
  C   C73       1.0  0.22124173766648172  0.05009871505975382  0.6349197120792668  1.0000
  C   C74       1.0  0.2215321457973971  0.449713798264206  0.8649187483185443  1.0000
  C   C75       1.0  0.27839889275751517  0.9498219819514521  0.1350488405747825  1.0000
  C   C76       1.0  0.27837968272123703  0.5501754840033685  0.36495789409215024  1.0000
  C   C77       1.0  0.7787523415074986  0.9499084575994632  0.3650815403022278  1.0000
  C   C78       1.0  0.7784735162013944  0.550287210979029  0.13507531644835782  1.0000
  C   C79       1.0  0.7216044537971625  0.05017440852944331  0.8649495362274852  1.0000
  C   C80       1.0  0.7216433602197297  0.44982321698083194  0.6350408430774339  1.0000
  C   C81       1.0  0.5008335781836308  0.2152891532173201  0.7063843935907316  1.0000
  C   C82       1.0  0.5009495071252844  0.2845407864571072  0.793435525375287  1.0000
  C   C83       1.0  0.9990162226333866  0.7847141901769348  0.2065008512735176  1.0000
  C   C84       1.0  0.9989860064795764  0.715359475645265  0.2934882390972078  1.0000
  C   C85       1.0  0.49917671833911476  0.784710316043089  0.2936100306062174  1.0000
  C   C86       1.0  0.4990399350268433  0.7154479021520644  0.20656033456187833  1.0000
  C   C87       1.0  0.0009848076299121997  0.21527296035735335  0.7935000402778557  1.0000
  C   C88       1.0  0.0010242925498574  0.28463460550641884  0.7065122940481106  1.0000
  C   C89       1.0  0.40500410737170967  0.24992475237544912  0.749908090136195  1.0000
  C   C90       1.0  0.09488740088432479  0.7500560876682417  0.2500069716574984  1.0000
  C   C91       1.0  0.5949934441952891  0.750071636204922  0.2500856145283877  1.0000
  C   C92       1.0  0.9051171053550532  0.2499410739013825  0.7499939208991578  1.0000
  N   N1        1.0  0.1779107759074918  0.11202052237940316  0.5985370953168925  1.0000
  N   N2        1.0  0.1779924558444961  0.3878006598629612  0.9012590680442545  1.0000
  N   N3        1.0  0.3220128620404097  0.8878611623478679  0.09871506034740922  1.0000
  N   N4        1.0  0.3219457022308205  0.6121122269414772  0.40131349792675763  1.0000
  N   N5        1.0  0.822077510656797  0.8879912709969492  0.40146487598646985  1.0000
  N   N6        1.0  0.821995827593021  0.6121988095431024  0.09873607402421673  1.0000
  N   N7        1.0  0.6779904846536907  0.11213445819843325  0.9012836757655835  1.0000
  N   N8        1.0  0.6780761827804228  0.3878810842065051  0.598687035616763  1.0000
  O   O1        1.0  0.9981976355668039  0.18030048332483525  0.5048894781920482  1.0000
  O   O2        1.0  0.9991586348133976  0.3203638243495561  0.9953618147753858  1.0000
  O   O3        1.0  0.5008373517543986  0.8203759695653546  0.0046389647797724  1.0000
  O   O4        1.0  0.5006511244331406  0.6796874932436198  0.4953892100357323  1.0000
  O   O5        1.0  0.0017755902417420002  0.8197267122302707  0.4951142907257663  1.0000
  O   O6        1.0  0.0008226976937351  0.6796387258970357  0.004634764789926702  1.0000
  O   O7        1.0  0.4991659949124028  0.1796181108250963  0.9953597712000148  1.0000
  O   O8        1.0  0.4993429527596831  0.3202942654105884  0.5046084463745757  1.0000
  O   O9        1.0  0.9128425741009636  0.09711944169443854  0.43791141367122327  1.0000
  O   O10       1.0  0.913476980088774  0.4032549980634315  0.0622294227004119  1.0000
  O   O11       1.0  0.5864524217774517  0.9032024795493715  0.9377716710348096  1.0000
  O   O12       1.0  0.5866589558776099  0.5968504676344042  0.5622242851210757  1.0000
  O   O13       1.0  0.08720943784171449  0.9028638619302715  0.5620973858935231  1.0000
  O   O14       1.0  0.0865414293861022  0.5967444738290413  0.937771470613818  1.0000
  O   O15       1.0  0.41355556092452156  0.09680623364144483  0.06223030079231511  1.0000
  O   O16       1.0  0.41333744423452856  0.40316902958331013  0.4377852340975892  1.0000
  O   O17       1.0  0.7515501792021055  0.4584172050380318  0.5011370034309337  1.0000
  O   O18       1.0  0.7514593592906422  0.041671672244078216  0.9988550625049443  1.0000
  O   O19       1.0  0.7485418323260546  0.5416772680410987  0.0011506975636735002  1.0000
  O   O20       1.0  0.7489026573644252  0.9579258855308482  0.4991488980934592  1.0000
  O   O21       1.0  0.2484485315221292  0.5415761038114085  0.49885813852303335  1.0000
  O   O22       1.0  0.2485520992372656  0.9583385811248634  0.0011469095948300001  1.0000
  O   O23       1.0  0.25144413543238636  0.458312961991716  0.998848396763215  1.0000
  O   O24       1.0  0.2511389253005731  0.042106700434331415  0.5008534365236343  1.0000
  O   O25       1.0  0.6630211383218879  0.5391595466300175  0.4341614888851312  1.0000
  O   O26       1.0  0.663321261458961  0.9608828859850792  0.06585707568147821  1.0000
  O   O27       1.0  0.8367677497376462  0.4608313831342344  0.9341468052229231  1.0000
  O   O28       1.0  0.8366291355413294  0.0386704636407416  0.5663972208430224  1.0000
  O   O29       1.0  0.3369486094748311  0.4608291435730367  0.5658386827898099  1.0000
  O   O30       1.0  0.33668324411059564  0.0391196654133381  0.9341420204547575  1.0000
  O   O31       1.0  0.16323907219152997  0.5391842586004217  0.0658497764972168  1.0000
  O   O32       1.0  0.1633649496463789  0.9613305541286224  0.43361840609880187  1.0000
