data_image0
_chemical_formula_structural       Al4H36C64O20
_chemical_formula_sum              "Al4 H36 C64 O20"
_cell_length_a       6.650547608562849
_cell_length_b       20.222156476760595
_cell_length_c       22.96212932466401
_cell_angle_alpha    93.59800017010603
_cell_angle_beta     90.51585464860966
_cell_angle_gamma    89.09031375348835

_space_group_name_H-M_alt    "P 1"
_space_group_IT_number       1

loop_
  _space_group_symop_operation_xyz
  'x, y, z'

loop_
  _atom_site_type_symbol
  _atom_site_label
  _atom_site_symmetry_multiplicity
  _atom_site_fract_x
  _atom_site_fract_y
  _atom_site_fract_z
  _atom_site_occupancy
  Al  Al1       1.0  0.20741374201629978  0.7512801776802789  0.7508311884480462  1.0000
  Al  Al2       1.0  0.7925892702200912  0.2487214467087783  0.24916528560499526  1.0000
  Al  Al3       1.0  0.7071345336321713  0.7498232185589375  0.7490286965665051  1.0000
  Al  Al4       1.0  0.2928624580151364  0.25018005914762403  0.25096995283876566  1.0000
  H   H1        1.0  0.30932169522088765  0.5408225968285763  0.9546261455740604  1.0000
  H   H2        1.0  0.690667644331029  0.45918330098531634  0.04536726007415131  1.0000
  H   H3        1.0  0.8000168752405087  0.9509708983554294  0.5475489667041629  1.0000
  H   H4        1.0  0.19998923930019427  0.049031794760651316  0.4524558025053551  1.0000
  H   H5        1.0  0.33642778449877386  0.4604547920236046  0.03273840525560699  1.0000
  H   H6        1.0  0.663567525928542  0.5395514001301648  0.9672523900889443  1.0000
  H   H7        1.0  0.8436113522057553  0.03016619987328541  0.4694946327524718  1.0000
  H   H8        1.0  0.15641257624000807  0.9698457185664396  0.5305084203930336  1.0000
  H   H9        1.0  0.25049875872682037  0.6568981701012505  0.5859458779877896  1.0000
  H   H10       1.0  0.7494909460393798  0.3430975212986809  0.4140571199915469  1.0000
  H   H11       1.0  0.19211408552811093  0.850580453249144  0.9204396802591147  1.0000
  H   H12       1.0  0.8078859634783343  0.14942086862748746  0.07955940787726229  1.0000
  H   H13       1.0  0.6975095929721817  0.5750768635774011  0.6406837436898981  1.0000
  H   H14       1.0  0.30247254287840525  0.42492024003765055  0.3593179367950797  1.0000
  H   H15       1.0  0.7437199839323937  0.9190554700753214  0.8520714054576145  1.0000
  H   H16       1.0  0.2562755645552599  0.0809448136099888  0.14792680356097068  1.0000
  H   H17       1.0  0.5828098804809657  0.3881611387215146  0.5041927440430384  1.0000
  H   H18       1.0  0.41720108813721163  0.6118289896328123  0.49581638531385147  1.0000
  H   H19       1.0  0.9403860604890967  0.09997747435959785  0.9860595372987573  1.0000
  H   H20       1.0  0.059621574033606385  0.9000219713740099  0.013941304347021299  1.0000
  H   H21       1.0  0.40645631912234137  0.4304356878041561  0.5858355976193009  1.0000
  H   H22       1.0  0.5672834647669448  0.4615699394932877  0.6433155479730955  1.0000
  H   H23       1.0  0.4238332903393527  0.5170407907917821  0.6025421680887745  1.0000
  H   H24       1.0  0.593563799586171  0.5695501180870011  0.414175721733713  1.0000
  H   H25       1.0  0.5761763016100403  0.4829450437033175  0.397469138035369  1.0000
  H   H26       1.0  0.43274554963574013  0.5384195839520416  0.3566927309681417  1.0000
  H   H27       1.0  0.08446911352988448  0.053626938017679024  0.9004779483769026  1.0000
  H   H28       1.0  0.039735143833603104  0.9683032355260296  0.8834997737391815  1.0000
  H   H29       1.0  0.9013314274217662  0.028662064138479996  0.8467644329854378  1.0000
  H   H30       1.0  0.9155325223908192  0.9463726160067907  0.0995241948182937  1.0000
  H   H31       1.0  0.09866417660736457  0.9713379701590058  0.15323726663535098  1.0000
  H   H32       1.0  0.9602680343210039  0.0316931937102964  0.11650018737064728  1.0000
  H   H33       1.0  0.45837783250628655  0.6628483326940257  0.7532620295161221  1.0000
  H   H34       1.0  0.5416297189249022  0.3371528768054546  0.24673575896067487  1.0000
  H   H35       1.0  0.9520016465024668  0.8374007011770958  0.7429338546266846  1.0000
  H   H36       1.0  0.048004345741070195  0.16260187354380662  0.2570621875455216  1.0000
  C   C1        1.0  0.45218311683063217  0.8322579938379491  0.8306540232897461  1.0000
  C   C2        1.0  0.5478109165317945  0.16774112088916132  0.16934156491236507  1.0000
  C   C3        1.0  0.9686729763256068  0.6690515356670731  0.6687926062659598  1.0000
  C   C4        1.0  0.0313302020055488  0.3309460053165765  0.33120910103131956  1.0000
  C   C5        1.0  0.4576609769222202  0.8271461502302986  0.6735254908378181  1.0000
  C   C6        1.0  0.5423345935525106  0.17285258842837695  0.32647184437796267  1.0000
  C   C7        1.0  0.9549969944832738  0.6740766301114078  0.8264212725147714  1.0000
  C   C8        1.0  0.045007411552205695  0.3259321594509076  0.17357869934841832  1.0000
  C   C9        1.0  0.18986754558978453  0.47807424478514093  0.018191403637509  1.0000
  C   C10       1.0  0.8101233581831052  0.521926983213973  0.9817989461225237  1.0000
  C   C11       1.0  0.6939038502771807  0.016711277064118207  0.4830530903800748  1.0000
  C   C12       1.0  0.306124727122203  0.983291389605526  0.5169451619876922  1.0000
  C   C13       1.0  0.015059869592292299  0.4547335334520782  0.04414222261303279  1.0000
  C   C14       1.0  0.9849325657299345  0.5452672878300149  0.9558494377910733  1.0000
  C   C15       1.0  0.5241700308192208  0.044548701358166916  0.45587344000583124  1.0000
  C   C16       1.0  0.4758359178032662  0.9554591869106375  0.5441278421468992  1.0000
  C   C17       1.0  0.8249839286881907  0.4773847360039484  0.0251859085821309  1.0000
  C   C18       1.0  0.17500388443599488  0.5226188198072563  0.9748022573229634  1.0000
  C   C19       1.0  0.33008851430896163  0.027151318314579998  0.4735977480149173  1.0000
  C   C20       1.0  0.6699159136253171  0.972855370347446  0.5264004769517427  1.0000
  C   C21       1.0  0.028649879600891392  0.4094773376836971  0.08864492420323698  1.0000
  C   C22       1.0  0.9713378567009484  0.5905324595312325  0.9113476096522745  1.0000
  C   C23       1.0  0.5437156711641221  0.08922485292683291  0.41130772944180904  1.0000
  C   C24       1.0  0.45627215485150424  0.9107898816546935  0.5886987710769914  1.0000
  C   C25       1.0  0.9629946819814419  0.6291749796862192  0.8727341178388243  1.0000
  C   C26       1.0  0.03701270971242109  0.37083534673018204  0.12726673160685917  1.0000
  C   C27       1.0  0.4516458065615865  0.8722528507291049  0.6273667035854659  1.0000
  C   C28       1.0  0.5483571556080308  0.1277484978227008  0.3726258431412433  1.0000
  C   C29       1.0  0.1332277108692566  0.6201505392299468  0.5786205924419292  1.0000
  C   C30       1.0  0.8667666160949777  0.37984241764088017  0.42138590003641946  1.0000
  C   C31       1.0  0.3181171246339005  0.8844869222720392  0.9245929235300065  1.0000
  C   C32       1.0  0.6818784792186818  0.11551200027813745  0.0754070299033245  1.0000
  C   C33       1.0  0.9727827125813634  0.6199668225538488  0.6175619790425414  1.0000
  C   C34       1.0  0.027207014260184806  0.38002787969310964  0.38244101822770915  1.0000
  C   C35       1.0  0.46661658993002664  0.8811671747302657  0.8817878669281852  1.0000
  C   C36       1.0  0.5333835308654428  0.11883121033599761  0.11821165545052988  1.0000
  C   C37       1.0  0.8208193955510765  0.573081080028004  0.6097390978725696  1.0000
  C   C38       1.0  0.1791642001480938  0.42691910955404205  0.3902643321078685  1.0000
  C   C39       1.0  0.6300157482535981  0.9241202622655327  0.885905034528804  1.0000
  C   C40       1.0  0.3699904043451737  0.07587708665405303  0.1140940583306005  1.0000
  C   C41       1.0  0.8291611188734364  0.5238033884743346  0.5639185943430077  1.0000
  C   C42       1.0  0.17081947465497646  0.47619628405519177  0.43608439513361213  1.0000
  C   C43       1.0  0.6460640495450531  0.972769919055807  0.931897144369877  1.0000
  C   C44       1.0  0.35394208106664843  0.02722897489042001  0.06810282229233879  1.0000
  C   C45       1.0  0.992393204324415  0.5242869910512198  0.5236368873861039  1.0000
  C   C46       1.0  0.007596483752855898  0.47570860840296103  0.47636480148445054  1.0000
  C   C47       1.0  0.494987306441125  0.9759853700473543  0.9761200378118531  1.0000
  C   C48       1.0  0.5050203224303331  0.024013489164005405  0.023879494370603997  1.0000
  C   C49       1.0  0.14356211941958458  0.5736747821002837  0.5307822496533774  1.0000
  C   C50       1.0  0.8564426955394991  0.4263190433738304  0.46922294765414546  1.0000
  C   C51       1.0  0.33139170763953973  0.9308011122342703  0.9725524942945113  1.0000
  C   C52       1.0  0.6686234733703244  0.06919568694257092  0.027446173179796994  1.0000
  C   C53       1.0  0.6796522902902922  0.4726158262331667  0.5565598635389435  1.0000
  C   C54       1.0  0.3203509654811398  0.5273793644623626  0.4434435874640029  1.0000
  C   C55       1.0  0.8092046936335534  0.019393829722908228  0.9358180691431103  1.0000
  C   C56       1.0  0.1907999607937398  0.9806041098051993  0.0641823312897714  1.0000
  C   C57       1.0  0.6962569708894576  0.4264887339430673  0.5105134299047265  1.0000
  C   C58       1.0  0.30374641221246884  0.5735032705542766  0.4894939459427619  1.0000
  C   C59       1.0  0.8164618034481278  0.065118202170936  0.9823571944428763  1.0000
  C   C60       1.0  0.1835428122148954  0.9348806345644008  0.017641897590309  1.0000
  C   C61       1.0  0.5105135782339474  0.4702149942832323  0.5992029050670736  1.0000
  C   C62       1.0  0.4894944492296388  0.5297738424056746  0.4008088376640657  1.0000
  C   C63       1.0  0.9668604895300702  0.017455312808550602  0.8893044612361931  1.0000
  C   C64       1.0  0.033141196104310204  0.982542293558545  0.11069811691042732  1.0000
  O   O1        1.0  0.6292385621856836  0.8015119417356548  0.6842006248486853  1.0000
  O   O2        1.0  0.37076447194950646  0.1984875817531062  0.3157941023078195  1.0000
  O   O3        1.0  0.12135395403028328  0.6851993973115854  0.8019771566706595  1.0000
  O   O4        1.0  0.878638487119744  0.3148031222400719  0.19801755938421187  1.0000
  O   O5        1.0  0.2812455077444013  0.8070030855586199  0.8185057908647975  1.0000
  O   O6        1.0  0.7187560006692593  0.19299854291671892  0.1814906812984063  1.0000
  O   O7        1.0  0.8015665898025618  0.6798856505905064  0.694952240707927  1.0000
  O   O8        1.0  0.19843211043824735  0.32011208654347467  0.30505207913738985  1.0000
  O   O9        1.0  0.2934051776015494  0.8177380416848055  0.6997002506492649  1.0000
  O   O10       1.0  0.7065917698950627  0.18226721432772316  0.30029840017417087  1.0000
  O   O11       1.0  0.7828706264710661  0.6978337006425763  0.813768739283482  1.0000
  O   O12       1.0  0.2171337191661635  0.30217975464823615  0.18623429035772426  1.0000
  O   O13       1.0  0.13532536397742229  0.6957667381150473  0.6833147097961785  1.0000
  O   O14       1.0  0.8646701403595357  0.30423552387622277  0.31668350064057893  1.0000
  O   O15       1.0  0.6131745341366892  0.8201293067748595  0.8018868878534846  1.0000
  O   O16       1.0  0.3868162649989841  0.17987800938505671  0.19810564800899746  1.0000
  O   O17       1.0  0.45835361145572756  0.7100276292874669  0.7483708693433966  1.0000
  O   O18       1.0  0.5416464099124028  0.2899746510935587  0.2516277831324629  1.0000
  O   O19       1.0  0.9547640541196499  0.7911040846564747  0.7514031779090473  1.0000
  O   O20       1.0  0.0452359780213243  0.20889603352708974  0.24859285493109703  1.0000
