data_image0
_chemical_formula_structural       Sm2H46C76N8O16
_chemical_formula_sum              "Sm2 H46 C76 N8 O16"
_cell_length_a       9.08872624151982
_cell_length_b       13.605012688927374
_cell_length_c       14.128
_cell_angle_alpha    97.24814235441436
_cell_angle_beta     96.68188238739542
_cell_angle_gamma    105.14844391693372

_space_group_name_H-M_alt    "P 1"
_space_group_IT_number       1

loop_
  _space_group_symop_operation_xyz
  'x, y, z'

loop_
  _atom_site_type_symbol
  _atom_site_label
  _atom_site_symmetry_multiplicity
  _atom_site_fract_x
  _atom_site_fract_y
  _atom_site_fract_z
  _atom_site_occupancy
  Sm  Sm1       1.0  0.3697973464614677  0.3577763439085047  0.012181251351080393  1.0000
  Sm  Sm2       1.0  0.6302005612083406  0.6422272661721494  0.9878186767347614  1.0000
  H   H1        1.0  0.28431735142589076  0.9098843513394854  0.33238764615525446  1.0000
  H   H2        1.0  0.7156814787645587  0.0901161713549925  0.667611268064185  1.0000
  H   H3        1.0  0.7331878883771026  0.23525419541920203  0.20780755818503854  1.0000
  H   H4        1.0  0.26681200233006314  0.7647409243494752  0.7921851164679269  1.0000
  H   H5        1.0  0.7218485961608891  0.1761114540135438  0.4874975170029785  1.0000
  H   H6        1.0  0.2781540659285895  0.8238929279136542  0.5124986138600249  1.0000
  H   H7        1.0  0.312991685198476  0.2145231691038418  0.3260927649422812  1.0000
  H   H8        1.0  0.6870109296188643  0.7854758098975481  0.6739027059462401  1.0000
  H   H9        1.0  0.5668799784390401  0.33059422418148193  0.5738059291846156  1.0000
  H   H10       1.0  0.4331218518537056  0.669405526666452  0.4261917001986646  1.0000
  H   H11       1.0  0.431864105651627  0.332168791130492  0.7165096996921321  1.0000
  H   H12       1.0  0.568139478958507  0.667832503410537  0.2834882485615537  1.0000
  H   H13       1.0  0.20791381595004307  0.1852593792486488  0.725721534483057  1.0000
  H   H14       1.0  0.7920900919243437  0.8147426871389173  0.27427723955901223  1.0000
  H   H15       1.0  0.12957085305674096  0.0315168099160488  0.5936830562184454  1.0000
  H   H16       1.0  0.8704341626065  0.9684852564715172  0.40631580074578716  1.0000
  H   H17       1.0  0.6114559580534475  0.2103451637631721  0.8006719386387857  1.0000
  H   H18       1.0  0.3885417643481545  0.7896553589313058  0.1993268926584904  1.0000
  H   H19       1.0  0.964582230964652  0.22230801334289652  0.6395583544912284  1.0000
  H   H20       1.0  0.03541946133203311  0.7776940530446694  0.36044237714931876  1.0000
  H   H21       1.0  0.940856002466539  0.503977972509837  0.808855882326128  1.0000
  H   H22       1.0  0.05913604299474432  0.4960248657242731  0.1911463444318358  1.0000
  H   H23       1.0  0.9812670754223589  0.3967592254410874  0.5388229687548503  1.0000
  H   H24       1.0  0.018731569499891455  0.6032382098672144  0.4611790955616328  1.0000
  H   H25       1.0  0.20056403520423766  0.4835163206382021  0.46239945741063343  1.0000
  H   H26       1.0  0.7994351182504857  0.51648497390282  0.537605945111345  1.0000
  H   H27       1.0  0.4597534545188537  0.5664010617259266  0.5630041689287069  1.0000
  H   H28       1.0  0.5402477292453652  0.4335971454289265  0.4369953479491572  1.0000
  H   H29       1.0  0.4965991775936017  0.5550819321635885  0.7376153175479916  1.0000
  H   H30       1.0  0.5034051915411125  0.44491859053088945  0.262385426910825  1.0000
  H   H31       1.0  0.03779770774082891  0.3947941041410062  0.07413411916832761  1.0000
  H   H32       1.0  0.962193781915836  0.6051994719345828  0.9258669406667438  1.0000
  H   H33       1.0  0.7548237760666153  0.3097188625624625  0.07442062177987911  1.0000
  H   H34       1.0  0.24516674379725595  0.6902723979734944  0.9255793763185738  1.0000
  H   H35       1.0  0.6437855786481136  0.1268784503815539  0.998907992998902  1.0000
  H   H36       1.0  0.3562152345796931  0.873113582000947  0.0010879146732846873  1.0000
  H   H37       1.0  0.6782233332891464  0.9693751955363226  0.8972400712811393  1.0000
  H   H38       1.0  0.32177447983637103  0.030617608692722308  0.10275782904147232  1.0000
  H   H39       1.0  0.8496143015323695  0.8826142411064879  0.8173530746199232  1.0000
  H   H40       1.0  0.15039048159052018  0.11737933496909392  0.18264827246688503  1.0000
  H   H41       1.0  0.11303354596401503  0.889587102781647  0.7730169853842954  1.0000
  H   H42       1.0  0.8869746077975762  0.1104118762197501  0.22698173137214891  1.0000
  H   H43       1.0  0.39311911220426043  0.985540749546111  0.7956836430735024  1.0000
  H   H44       1.0  0.6068870112478422  0.014461316841455104  0.2043167124414396  1.0000
  H   H45       1.0  0.4829517821201534  0.16345780177726976  0.8952076309570458  1.0000
  H   H46       1.0  0.5170467248060361  0.8365419490706643  0.10479328873108779  1.0000
  C   C1        1.0  0.44622226265756376  0.2550188698619422  0.16489349939511302  1.0000
  C   C2        1.0  0.5537757830083051  0.7449824246790868  0.8351047420620006  1.0000
  C   C3        1.0  0.5132277426268814  0.2256717205800314  0.25492578720403003  1.0000
  C   C4        1.0  0.48676965651045373  0.7743280302679026  0.7450708026763166  1.0000
  C   C5        1.0  0.6669052783487074  0.2220363233595393  0.2668976909481984  1.0000
  C   C6        1.0  0.33309036647125373  0.777961883795314  0.7330950409903991  1.0000
  C   C7        1.0  0.6599059491730443  0.19027406624261542  0.4218918886630974  1.0000
  C   C8        1.0  0.34009717417676194  0.8097287719914945  0.5781026735453025  1.0000
  C   C9        1.0  0.5048557273790948  0.1905658242361028  0.4173144482350821  1.0000
  C   C10       1.0  0.4951453183890635  0.8094346984583751  0.5826832162001523  1.0000
  C   C11       1.0  0.43153748327728897  0.2096991282061538  0.3319404249791305  1.0000
  C   C12       1.0  0.5684638857551363  0.7903021663348682  0.6680580652444874  1.0000
  C   C13       1.0  0.42523707247361386  0.1806028290509261  0.5029931765904649  1.0000
  C   C14       1.0  0.5747672966611006  0.8193976936435521  0.4970054444255396  1.0000
  C   C15       1.0  0.47111731764066883  0.2646090631665459  0.5788734642503002  1.0000
  C   C16       1.0  0.5288881592828999  0.7353914595279393  0.4211266553164137  1.0000
  C   C17       1.0  0.39477359434561515  0.2659860374003813  0.6588102914429825  1.0000
  C   C18       1.0  0.6052299902645117  0.7340152571406409  0.34118765681069624  1.0000
  C   C19       1.0  0.26996132926780086  0.1829376648454115  0.6643853318962841  1.0000
  C   C20       1.0  0.7300425786065929  0.8170644015421616  0.3356127343315194  1.0000
  C   C21       1.0  0.2257073290940994  0.0978655106530368  0.591117597782251  1.0000
  C   C22       1.0  0.7742983330976755  0.9021380994276171  0.4088836185730287  1.0000
  C   C23       1.0  0.3019482462094558  0.09508454755633981  0.5103399814249628  1.0000
  C   C24       1.0  0.6980566314577246  0.9049198343708582  0.4896577309109134  1.0000
  C   C25       1.0  0.2453310864324862  0.9969934085604991  0.439347830403932  1.0000
  C   C26       1.0  0.7546523254379522  0.0029993956685459  0.5606496997447721  1.0000
  C   C27       1.0  0.7676317536055136  0.36320859988257587  0.816066294155185  1.0000
  C   C28       1.0  0.23236518427150094  0.6367926946584461  0.18393681907964782  1.0000
  C   C29       1.0  0.7158197818664362  0.2573714581269257  0.7805196859033572  1.0000
  C   C30       1.0  0.28418061737319533  0.7426275208744715  0.21947986602644687  1.0000
  C   C31       1.0  0.9130056400289989  0.2654110117253765  0.6902040468261603  1.0000
  C   C32       1.0  0.08699305216539698  0.7345918265087334  0.30979796965053213  1.0000
  C   C33       1.0  0.9755359898721352  0.37175988773945084  0.7216512384327629  1.0000
  C   C34       1.0  0.024461133273085432  0.6282444941877472  0.27835226377636957  1.0000
  C   C35       1.0  0.89966017283664  0.4208277162111074  0.7850659978004446  1.0000
  C   C36       1.0  0.10033519599119957  0.5791751220230026  0.21493718553828964  1.0000
  C   C37       1.0  0.6789250872427246  0.41126762492170604  0.8832699357770297  1.0000
  C   C38       1.0  0.32107406621199885  0.588733669619316  0.116733343302144  1.0000
  C   C39       1.0  0.11241538455465869  0.4271198092347817  0.6817599568913479  1.0000
  C   C40       1.0  0.8875823851190888  0.5728861163855044  0.31824519689455855  1.0000
  C   C41       1.0  0.09419564158450557  0.4323359481766289  0.5827944635481686  1.0000
  C   C42       1.0  0.9058043436669507  0.56766997744365  0.41721085608207187  1.0000
  C   C43       1.0  0.21794769944148834  0.4815542867242968  0.5397951243698813  1.0000
  C   C44       1.0  0.7820536695909368  0.5184470078167251  0.4602111518107037  1.0000
  C   C45       1.0  0.3624276006445797  0.52744519482237  0.595711333138297  1.0000
  C   C46       1.0  0.637574738180632  0.4725584152582841  0.4042910500790172  1.0000
  C   C47       1.0  0.3827951313331539  0.5225300760325311  0.6941330878014753  1.0000
  C   C48       1.0  0.6172060997032104  0.47747353404812304  0.3058713359364873  1.0000
  C   C49       1.0  0.25997481172915116  0.47194711279573204  0.7377760400345535  1.0000
  C   C50       1.0  0.7400273891000068  0.528058812824554  0.2622273219972158  1.0000
  C   C51       1.0  0.2962747342083532  0.4522017345165851  0.838412042346107  1.0000
  C   C52       1.0  0.7037204493512803  0.5477980163313491  0.16159004420406833  1.0000
  C   C53       1.0  0.9834368432486116  0.3147412680218622  0.04094716873505891  1.0000
  C   C54       1.0  0.016555939465114015  0.6852553954398959  0.9590508239251321  1.0000
  C   C55       1.0  0.8267644694055177  0.2674587206056245  0.04090845822243242  1.0000
  C   C56       1.0  0.17322909783279533  0.7325371710095896  0.9590902072000774  1.0000
  C   C57       1.0  0.7642400998212935  0.1659354291823263  0.9970475806803023  1.0000
  C   C58       1.0  0.2357591443573383  0.8340581468932626  0.0029512283528631686  1.0000
  C   C59       1.0  0.8571593924764686  0.1135378547214501  0.9500016309548729  1.0000
  C   C60       1.0  0.14284206727987236  0.8864557213541391  0.04999946736543141  1.0000
  C   C61       1.0  0.015225106638410984  0.1677600744114685  0.9548493348960322  1.0000
  C   C62       1.0  0.9847751073330144  0.8322358172037526  0.04515265931656389  1.0000
  C   C63       1.0  0.7995995399065734  0.0098124851091725  0.8993393856411347  1.0000
  C   C64       1.0  0.200400488796646  0.9901803191198726  0.10066009615434979  1.0000
  C   C65       1.0  0.893840746286962  0.9620951389368031  0.8547419484614949  1.0000
  C   C66       1.0  0.1061643601001947  0.03789920898532981  0.1452573931566192  1.0000
  C   C67       1.0  0.05396639073448739  0.013853101765072  0.8590593258841892  1.0000
  C   C68       1.0  0.9460379311280817  0.9861420180035978  0.1409414664144109  1.0000
  C   C69       1.0  0.11562188907296898  0.11629334688220891  0.9104389669490092  1.0000
  C   C70       1.0  0.8843792946912429  0.883704860272637  0.08956479681447149  1.0000
  C   C71       1.0  0.15635420567731015  0.9666883977179452  0.8159429140655446  1.0000
  C   C72       1.0  0.8436518705026401  0.0333082657438126  0.18405961273199986  1.0000
  C   C73       1.0  0.3112496756577201  0.019527717553842208  0.8283562047852444  1.0000
  C   C74       1.0  0.6887576935792906  0.9804720332940917  0.1716446704659589  1.0000
  C   C75       1.0  0.3619333948721746  0.1192456599115914  0.8826870162299445  1.0000
  C   C76       1.0  0.6380695432094255  0.8807540909363425  0.11731423514685696  1.0000
  N   N1        1.0  0.7401943695115419  0.2052324522581657  0.3483849392625018  1.0000
  N   N2        1.0  0.2598052452034949  0.7947672985897684  0.6516096930193739  1.0000
  N   N3        1.0  0.7863596039756401  0.2096134532398111  0.7191650424356127  1.0000
  N   N4        1.0  0.21363811842596184  0.7903870694546669  0.280836620118734  1.0000
  N   N5        1.0  0.0765279474709573  0.2663403149639052  0.0013118858562180037  1.0000
  N   N6        1.0  0.9234662662958825  0.7336571203443967  0.9986870155145271  1.0000
  N   N7        1.0  0.2677335216075178  0.1675038213589772  0.9212172833314157  1.0000
  N   N8        1.0  0.7322676621567012  0.8324943857958687  0.07878364917498705  1.0000
  O   O1        1.0  0.3288558487991651  0.29052689825510214  0.16517808271417073  1.0000
  O   O2        1.0  0.6711401192850558  0.7094720807462949  0.834821137526973  1.0000
  O   O3        1.0  0.5118429650636855  0.248746844848398  0.09000605507819873  1.0000
  O   O4        1.0  0.48815748144809135  0.7512575370787999  0.9099941568260947  1.0000
  O   O5        1.0  0.33269779702959573  0.984331266012241  0.37152214287409185  1.0000
  O   O6        1.0  0.6673035720028294  0.015670028528781202  0.6284763473495261  1.0000
  O   O7        1.0  0.12647957760780326  0.9306107465755888  0.44607239034071716  1.0000
  O   O8        1.0  0.8735375330089068  0.0693990382774174  0.553924062856403  1.0000
  O   O9        1.0  0.5623385488399606  0.350946273843924  0.907880928999738  1.0000
  O   O10       1.0  0.4376593588298475  0.64905733623673  0.09212253815744727  1.0000
  O   O11       1.0  0.7261595024001721  0.5086561344107778  0.9101831205112916  1.0000
  O   O12       1.0  0.27384043557913884  0.4913443882837002  0.08981658444458422  1.0000
  O   O13       1.0  0.2223669678893785  0.36729243994491884  0.8601478248497898  1.0000
  O   O14       1.0  0.7776248923036988  0.6327073109030154  0.13985330511960833  1.0000
  O   O15       1.0  0.4063348793610686  0.5165822265673157  0.8986945681480236  1.0000
  O   O16       1.0  0.5936579506248023  0.48341983982025033  0.10130833137226601  1.0000
