data_image0
_chemical_formula_structural       Ni4H72C40O24
_chemical_formula_sum              "Ni4 H72 C40 O24"
_cell_length_a       7.167057404
_cell_length_b       11.985543048
_cell_length_c       14.1824
_cell_angle_alpha    90.0
_cell_angle_beta     90.0
_cell_angle_gamma    90.0

_space_group_name_H-M_alt    "P 1"
_space_group_IT_number       1

loop_
  _space_group_symop_operation_xyz
  'x, y, z'

loop_
  _atom_site_type_symbol
  _atom_site_label
  _atom_site_symmetry_multiplicity
  _atom_site_fract_x
  _atom_site_fract_y
  _atom_site_fract_z
  _atom_site_occupancy
  Ni  Ni1       1.0  0.3799188211441303  0.2527119537153908  0.4857499435920545  1.0000
  Ni  Ni2       1.0  0.1200841505078003  0.7472861233012367  0.9857506486913367  1.0000
  Ni  Ni3       1.0  0.8799190022505384  0.247282078761927  0.5142514666064955  1.0000
  Ni  Ni4       1.0  0.62008293634144  0.752716832593201  0.0142500564079455  1.0000
  H   H1        1.0  0.5784828788570948  0.0697106502937643  0.5204380076714799  1.0000
  H   H2        1.0  0.9215148739165853  0.9302907640768582  0.0204373025722049  1.0000
  H   H3        1.0  0.07847293084133607  0.4302883882145494  0.4795612872292452  1.0000
  H   H4        1.0  0.4215202739012439  0.5697071857865836  0.9795641076263522  1.0000
  H   H5        1.0  0.3584930125669175  0.0376570338275428  0.5292919393050539  1.0000
  H   H6        1.0  0.14150716853948347  0.9623460492200806  0.0292891189079398  1.0000
  H   H7        1.0  0.8584917984005571  0.4623445076962724  0.4707087657942211  1.0000
  H   H8        1.0  0.6415045591003616  0.5376527349818616  0.9707137014891671  1.0000
  H   H9        1.0  0.11007167314715358  0.10913231004733602  0.4623857739169708  1.0000
  H   H10       1.0  0.3899285079592474  0.8908707730002875  0.9623829535198567  1.0000
  H   H11       1.0  0.6100648778897406  0.3908633911069828  0.5376092903880902  1.0000
  H   H12       1.0  0.889927293792887  0.6091371889251391  0.0376121107851972  1.0000
  H   H13       1.0  0.07465685982944588  0.2046774176335191  0.3774875902527057  1.0000
  H   H14       1.0  0.425350297640783  0.7953248310756038  0.8774826545577596  1.0000
  H   H15       1.0  0.5746612267541451  0.2953266269057906  0.6225124097472943  1.0000
  H   H16       1.0  0.9253365260195422  0.7046697814338359  0.1225201658393473  1.0000
  H   H17       1.0  0.7917545067844713  0.1247486237387889  0.0511105313628164  1.0000
  H   H18       1.0  0.7082432459892158  0.8752561279858355  0.5511147619584804  1.0000
  H   H19       1.0  0.29175293040530187  0.3752545864620203  0.9488866482400695  1.0000
  H   H20       1.0  0.20823887906451685  0.6247484965856032  0.4488803023465735  1.0000
  H   H21       1.0  0.3864403260470936  0.186655706048569  0.042664852211189  1.0000
  H   H22       1.0  0.11355566924101618  0.8133507143530494  0.5426676726083031  1.0000
  H   H23       1.0  0.8864405071535015  0.3133491728292341  0.9573344426895289  1.0000
  H   H24       1.0  0.6135572456201857  0.6866422294793963  0.4573323273916969  1.0000
  H   H25       1.0  0.5824663826007777  0.2627148379835376  0.0034281926895332  1.0000
  H   H26       1.0  0.9175299749001411  0.7372924167565814  0.5034288977888082  1.0000
  H   H27       1.0  0.0824648062216085  0.2372942125867681  0.9965760379061379  1.0000
  H   H28       1.0  0.4175367701575609  0.7627021957528584  0.4965732175090238  1.0000
  H   H29       1.0  0.5486491565988274  0.37104451439454084  0.14175104354693246  1.0000
  H   H30       1.0  0.9513458056293229  0.6289594029915833  0.6417503384476504  1.0000
  H   H31       1.0  0.04864897549242639  0.1289545241137731  0.8582567125451277  1.0000
  H   H32       1.0  0.4513512056139817  0.8710410498873529  0.3582553023465707  1.0000
  H   H33       1.0  0.3899801330515443  0.2748945113963615  0.1909627425541487  1.0000
  H   H34       1.0  0.11001725750932678  0.725106902974261  0.6909627425541488  1.0000
  H   H35       1.0  0.8899803141579523  0.2251028584349513  0.8090421931407974  1.0000
  H   H36       1.0  0.6100272055250855  0.7748960529201697  0.3090414880415153  1.0000
  H   H37       1.0  0.8669624993560346  0.3745287119676277  0.2103508574007193  1.0000
  H   H38       1.0  0.6330324628721228  0.6254768740954901  0.7103536777978334  1.0000
  H   H39       1.0  0.366970689886216  0.125473663894681  0.7896540782942267  1.0000
  H   H40       1.0  0.1330392581295428  0.8745260817989404  0.2896505527978306  1.0000
  H   H41       1.0  0.8890845490429127  0.2834715111691963  0.1133707976083045  1.0000
  H   H42       1.0  0.610918784821834  0.7165357435709226  0.6133736180054186  1.0000
  H   H43       1.0  0.38908576320927307  0.21653587072410832  0.8866313176895274  1.0000
  H   H44       1.0  0.1109241848064855  0.7834638749695132  0.3866263819945814  1.0000
  H   H45       1.0  0.9869210753149955  0.24641770407664862  0.2240925372292395  1.0000
  H   H46       1.0  0.5130822585497441  0.7535903850019707  0.7240939474277965  1.0000
  H   H47       1.0  0.4869167083902964  0.2535880091396621  0.7759081678700355  1.0000
  H   H48       1.0  0.0130904490799324  0.746412570892467  0.2759053474729214  1.0000
  H   H49       1.0  0.8288659717842533  0.949619884090211  0.2024741933664274  1.0000
  H   H50       1.0  0.6711317809894268  0.050382364618911914  0.7024777188628165  1.0000
  H   H51       1.0  0.328864395405084  0.5503772314347302  0.7975258066335726  1.0000
  H   H52       1.0  0.1711343904285556  0.4496208455818973  0.2975222811371836  1.0000
  H   H53       1.0  0.8652560807646095  0.043463195444189806  0.2975215760379086  1.0000
  H   H54       1.0  0.6347333003724882  0.9565423906189281  0.7975251015342977  1.0000
  H   H55       1.0  0.3652684571130891  0.4565375117411179  0.7024798341606484  1.0000
  H   H56       1.0  0.13472753817502076  0.5434597309370091  0.2024748984657023  1.0000
  H   H57       1.0  0.9730227633042146  0.0684658172528074  0.18631966380866768  1.0000
  H   H58       1.0  0.5269763847422337  0.9315397688103175  0.6863224842057748  1.0000
  H   H59       1.0  0.47301839637951554  0.4315348899325074  0.8136838616877284  1.0000
  H   H60       1.0  0.0269803894541241  0.5684631870841201  0.31368104129061436  1.0000
  H   H61       1.0  0.4906225528537718  0.9614599817338174  0.2083836304151632  1.0000
  H   H62       1.0  0.0093804187981661  0.038541432636805  0.7083878610108272  1.0000
  H   H63       1.0  0.9906171528691132  0.5385388024681177  0.7916128440884478  1.0000
  H   H64       1.0  0.5093833904500967  0.4614601088870104  0.2916114338898907  1.0000
  H   H65       1.0  0.3697040292325795  0.09093288436204011  0.2134406024368261  1.0000
  H   H66       1.0  0.13029196605553037  0.909064358316094  0.713443422833933  1.0000
  H   H67       1.0  0.8697000245206892  0.4090628167922787  0.7865551669675098  1.0000
  H   H68       1.0  0.6302977282529909  0.5909369289013426  0.2865537567689529  1.0000
  H   H69       1.0  0.5061812394547403  0.0467271276534689  0.3103995092508995  1.0000
  H   H70       1.0  0.9938193038644767  0.9532734523786601  0.8104037398465707  1.0000
  H   H71       1.0  0.006182453621100598  0.4532719108548449  0.6895955550541544  1.0000
  H   H72       1.0  0.4938205180308301  0.5467261661617755  0.18959414485559728  1.0000
  C   C1        1.0  0.6806656797917296  0.2322656544514743  0.2167996953971141  1.0000
  C   C2        1.0  0.8193362588002484  0.7677357599191552  0.716800400496389  1.0000
  C   C3        1.0  0.18065991759426228  0.267730881041345  0.783201009702168  1.0000
  C   C4        1.0  0.31934165878490717  0.7322655272982816  0.283199599503611  1.0000
  C   C5        1.0  0.6728270373987397  0.10379671534428782  0.1905587206678732  1.0000
  C   C6        1.0  0.8271679248294176  0.8962080363803295  0.6905622461642622  1.0000
  C   C7        1.0  0.1728324373833914  0.3962031575025193  0.8094398691335769  1.0000
  C   C8        1.0  0.327169138995778  0.6037949195141081  0.3094349334386308  1.0000
  C   C9        1.0  0.6514305295495858  0.11129241242203143  0.080628807536101  1.0000
  C   C10       1.0  0.8485616421330417  0.8887098362870917  0.5806351534296041  1.0000
  C   C11       1.0  0.1514303484431778  0.3887099634402844  0.919369077166067  1.0000
  C   C12       1.0  0.3485628562994022  0.611288113576343  0.4193634363718388  1.0000
  C   C13       1.0  0.5270684727447161  0.2138392886943663  0.0626480708483754  1.0000
  C   C14       1.0  0.972929280028964  0.7861637943532572  0.5626501861462074  1.0000
  C   C15       1.0  0.0270682916383151  0.2861647558449434  0.9373540444494566  1.0000
  C   C16       1.0  0.4729332847408543  0.7138316524946832  0.4373512240523496  1.0000
  C   C17       1.0  0.5246127926785602  0.2820998586763395  0.1548031362815863  1.0000
  C   C18       1.0  0.9753863553678881  0.7179023900327834  0.6548017260830292  1.0000
  C   C19       1.0  0.024611216299390993  0.2178991798319743  0.8452032096119169  1.0000
  C   C20       1.0  0.47539315062530807  0.7820972285076522  0.3452017994133598  1.0000
  C   C21       1.0  0.8673531757301943  0.2862932439738373  0.1897499717960258  1.0000
  C   C22       1.0  0.6326459723162543  0.7137115077507801  0.6897527921931399  1.0000
  C   C23       1.0  0.3673529946237862  0.2137091318884714  0.8102514384025241  1.0000
  C   C24       1.0  0.1326527675736742  0.78629061380515  0.3102472078068601  1.0000
  C   C25       1.0  0.8454697176861075  0.0380049529817512  0.2207997236010826  1.0000
  C   C26       1.0  0.6545266398148113  0.9619989644043727  0.7208039541967537  1.0000
  C   C27       1.0  0.3454709318524677  0.461994919865063  0.7792002763989174  1.0000
  C   C28       1.0  0.15452924925394024  0.538003991490065  0.2791960458032463  1.0000
  C   C29       1.0  0.4991699938113143  0.0479886474644147  0.233153768050542  1.0000
  C   C30       1.0  0.0008287920223253  0.9520127669062148  0.7331572935469312  1.0000
  C   C31       1.0  0.9991701749177153  0.4520095567054057  0.766842706453069  1.0000
  C   C32       1.0  0.5008303684014948  0.5479885203112218  0.2668412962545119  1.0000
  C   C33       1.0  0.6483400003754196  0.24647277041760424  0.3234170521209379  1.0000
  C   C34       1.0  0.8516758909442075  0.7535236379220223  0.8234170521209379  1.0000
  C   C35       1.0  0.14832586654136287  0.2535162560287176  0.6765857682761762  1.0000
  C   C36       1.0  0.351692453110985  0.7464809866494093  0.1765843580776192  1.0000
  C   C37       1.0  0.5822933687779325  0.0031871730673387  0.0375698048285216  1.0000
  C   C38       1.0  0.9177127556323368  0.9968175786572858  0.5375726252256285  1.0000
  C   C39       1.0  0.08229597821706137  0.4968126997794755  0.9624224390794254  1.0000
  C   C40       1.0  0.41769025016169786  0.5031828742216504  0.4624217339801433  1.0000
  O   O1        1.0  0.48163141515700386  0.2579432561060173  0.3524488097924205  1.0000
  O   O2        1.0  0.018389695040873694  0.7420589926031057  0.8524481046931385  1.0000
  O   O3        1.0  0.9816148529902335  0.2420474390172984  0.6475561259025255  1.0000
  O   O4        1.0  0.5184024336021621  0.7579514723378296  0.1475518953068615  1.0000
  O   O5        1.0  0.4501108081260198  0.0809708826803615  0.49382333032490777  1.0000
  O   O6        1.0  0.049892163525918  0.9190238569822713  0.9938254456227469  1.0000
  O   O7        1.0  0.9501026175958316  0.4190264871509585  0.5061710288808641  1.0000
  O   O8        1.0  0.5498895540867892  0.5809732585426701  0.0061759645758102  1.0000
  O   O9        1.0  0.7944822650397754  0.2434316065876416  0.3746763594314046  1.0000
  O   O10       1.0  0.7055224640977329  0.7565539553514924  0.8746841155234649  1.0000
  O   O11       1.0  0.2944681312057184  0.2565524138276842  0.6253243456678703  1.0000
  O   O12       1.0  0.20553902626451045  0.7434431601734488  0.1253158844765352  1.0000
  O   O13       1.0  0.1223291443864625  0.19475963589230366  0.4417045069945829  1.0000
  O   O14       1.0  0.3776752225382367  0.8052409441398254  0.941708737590254  1.0000
  O   O15       1.0  0.6223251396745724  0.3052419056315117  0.5582940828068601  1.0000
  O   O16       1.0  0.8776726130991077  0.6947561713851159  0.0582926726083031  1.0000
  O   O17       1.0  0.41592941593243876  0.9960282944369396  0.0064474277978306  1.0000
  O   O18       1.0  0.08405541717355189  0.0039747886106767  0.5064544787906158  1.0000
  O   O19       1.0  0.9159282017660784  0.5039788331499864  0.9935455212093842  1.0000
  O   O20       1.0  0.5840542030071914  0.49602007820513455  0.4935469314079413  1.0000
  O   O21       1.0  0.6976712642498624  0.921347489702832  0.0351752876805023  1.0000
  O   O22       1.0  0.8023264885238248  0.078653090329297  0.5351823386732875  1.0000
  O   O23       1.0  0.19767387368898423  0.5786546318531052  0.9648204817238266  1.0000
  O   O24       1.0  0.3023193310535959  0.4213467825175172  0.4648134307310485  1.0000
