data_image0
_chemical_formula_structural       Nd2H26C14S4O26
_chemical_formula_sum              "Nd2 H26 C14 S4 O26"
_cell_length_a       7.822823624337585
_cell_length_b       10.305652225228895
_cell_length_c       10.646517417695252
_cell_angle_alpha    115.90480357067523
_cell_angle_beta     93.04785733560355
_cell_angle_gamma    105.64411543451472

_space_group_name_H-M_alt    "P 1"
_space_group_IT_number       1

loop_
  _space_group_symop_operation_xyz
  'x, y, z'

loop_
  _atom_site_type_symbol
  _atom_site_label
  _atom_site_symmetry_multiplicity
  _atom_site_fract_x
  _atom_site_fract_y
  _atom_site_fract_z
  _atom_site_occupancy
  Nd  Nd1       1.0  0.5613720102500324  0.6849450638619174  0.7841619088374402  1.0000
  Nd  Nd2       1.0  0.43862695450456374  0.31505302991323  0.21583510022448854  1.0000
  H   H1        1.0  0.2516799083491109  0.023677353546133904  0.3160535223005496  1.0000
  H   H2        1.0  0.7483165130618376  0.9763241457291797  0.6839457649207146  1.0000
  H   H3        1.0  0.16185638719993284  0.7477077284292475  0.5330679511874621  1.0000
  H   H4        1.0  0.8381421635155777  0.25229264097511356  0.4669309434363599  1.0000
  H   H5        1.0  0.4183603183244174  0.2365931308368374  0.7711608767991011  1.0000
  H   H6        1.0  0.581641667424279  0.7634095319422016  0.22883912616939742  1.0000
  H   H7        1.0  0.9643505163537186  0.7039414616655789  0.7244338000085477  1.0000
  H   H8        1.0  0.03564802985951593  0.29605890588066336  0.2755669721994849  1.0000
  H   H9        1.0  0.8793301236527711  0.5427930200018594  0.7132148004470978  1.0000
  H   H10       1.0  0.12067057982221031  0.4572096371717222  0.2867851486630997  1.0000
  H   H11       1.0  0.7902862201189863  0.6572404766383569  0.025262776574301322  1.0000
  H   H12       1.0  0.2097127401333411  0.3427576152786713  0.9747361100718451  1.0000
  H   H13       1.0  0.7074489047251548  0.4941956780709091  0.8910651659491364  1.0000
  H   H14       1.0  0.29254833575944866  0.5058012662297171  0.10893410531677718  1.0000
  H   H15       1.0  0.18723230182126824  0.5513155103414886  0.8471981050159627  1.0000
  H   H16       1.0  0.8127687832333523  0.4486814498464681  0.15280226661695906  1.0000
  H   H17       1.0  0.30198252284191807  0.6762196523177195  0.9993685267021418  1.0000
  H   H18       1.0  0.6980151294306437  0.32377501542462983  0.0006297977939908634  1.0000
  H   H19       1.0  0.23974716171593974  0.49511105491859553  0.5056455558771945  1.0000
  H   H20       1.0  0.7602547960755714  0.5048881883621731  0.49435487759169655  1.0000
  H   H21       1.0  0.15352325924003915  0.49431897897250815  0.6338813320201454  1.0000
  H   H22       1.0  0.8464782610574562  0.505679122297323  0.36611953992681384  1.0000
  H   H23       1.0  0.9503398862175347  0.9320496352598654  0.852025975880359  1.0000
  H   H24       1.0  0.04966122229200209  0.06795074256825018  0.1479758428363738  1.0000
  H   H25       1.0  0.8347781661502224  0.013494174674342198  0.958659843041616  1.0000
  H   H26       1.0  0.16522378488788556  0.9865050658192374  0.04134340680359825  1.0000
  C   C1        1.0  0.4208938657162236  0.2973800706195249  0.5472127892975038  1.0000
  C   C2        1.0  0.5791081164737832  0.7026259986509372  0.45279992626009846  1.0000
  C   C3        1.0  0.34430213181220637  0.1451721597037405  0.5437503183527639  1.0000
  C   C4        1.0  0.6556972726875403  0.8548270770114001  0.45624531343899827  1.0000
  C   C5        1.0  0.2624801048751095  0.0144479308339456  0.4141588561050824  1.0000
  C   C6        1.0  0.7375188720787377  0.9855535759360518  0.5858442940011982  1.0000
  C   C7        1.0  0.19516288239110943  0.8732413850807391  0.4120190765743885  1.0000
  C   C8        1.0  0.8048369785553009  0.1267624094273643  0.5879794414073417  1.0000
  C   C9        1.0  0.20978444511222002  0.8588374296216374  0.5360232891675452  1.0000
  C   C10       1.0  0.7902166611461825  0.14116294727741524  0.4639794683413001  1.0000
  C   C11       1.0  0.290986000581434  0.9919495486539632  0.664818445229841  1.0000
  C   C12       1.0  0.7090155476732464  0.008051972114145703  0.33518199621672556  1.0000
  C   C13       1.0  0.3564081622654813  0.13431487462381136  0.6703076966497505  1.0000
  C   C14       1.0  0.643596355571198  0.8656843780097603  0.32969472211995304  1.0000
  S   S1        1.0  0.3221235049298416  0.9777275212863188  0.8241084120649589  1.0000
  S   S2        1.0  0.6778835205963248  0.022261495212092103  0.17588414041724582  1.0000
  S   S3        1.0  0.09255637584551824  0.7119621427421661  0.24328383611712914  1.0000
  S   S4        1.0  0.9074404808083119  0.28804049761502176  0.7567159514181725  1.0000
  O   O1        1.0  0.49748435364451643  0.4122056918008424  0.6676783351649574  1.0000
  O   O2        1.0  0.502508622785129  0.5877901020340061  0.33231276387515857  1.0000
  O   O3        1.0  0.40409252571605964  0.30201191511810077  0.4304386648113195  1.0000
  O   O4        1.0  0.5959051937265516  0.6979895962660976  0.569554104723494  1.0000
  O   O5        1.0  0.382680241550979  0.1335686525930271  0.9409504943889929  1.0000
  O   O6        1.0  0.6173260709204557  0.8664420024355266  0.05905400342818717  1.0000
  O   O7        1.0  0.4567287408689041  0.9002149223023322  0.8107227735409878  1.0000
  O   O8        1.0  0.5432664027705985  0.09978657322562871  0.1892745822377648  1.0000
  O   O9        1.0  0.14429143480161605  0.8855337845252933  0.8321458058579125  1.0000
  O   O10       1.0  0.8557114471389013  0.11447457898670169  0.1678557060303802  1.0000
  O   O11       1.0  0.9568406869213109  0.7501270948259419  0.17944207913707544  1.0000
  O   O12       1.0  0.04316127312133495  0.24987214938388297  0.8205574155397102  1.0000
  O   O13       1.0  0.012050224760216069  0.582114232246333  0.27335047162548415  1.0000
  O   O14       1.0  0.9879457569055818  0.41788612408898024  0.7266501928659467  1.0000
  O   O15       1.0  0.23824677275826647  0.685468418264513  0.1633417885386663  1.0000
  O   O16       1.0  0.7617539005083883  0.31453081848172815  0.8366595298640292  1.0000
  O   O17       1.0  0.8493694327170971  0.6184710905850537  0.6904016267437214  1.0000
  O   O18       1.0  0.15062826871643867  0.3815304133666615  0.3095986531279494  1.0000
  O   O19       1.0  0.7023830931006786  0.598829942820501  0.9339560896119039  1.0000
  O   O20       1.0  0.2976141451327835  0.4011670005510624  0.06604412044611507  1.0000
  O   O21       1.0  0.3047512336534127  0.6323573234059764  0.8971955574573585  1.0000
  O   O22       1.0  0.6952536725163017  0.367636235029167  0.10280446745873921  1.0000
  O   O23       1.0  0.2484122366945627  0.5580298142691688  0.6089669144607086  1.0000
  O   O24       1.0  0.7515888763172427  0.44197056541706553  0.3910330266718134  1.0000
  O   O25       1.0  0.8252062640942843  0.9295480689898883  0.8642739463112789  1.0000
  O   O26       1.0  0.17479524719868078  0.07045002856370529  0.1357306808041017  1.0000
