data_image0
_chemical_formula_structural       Cd4H60C28S8N20
_chemical_formula_sum              "Cd4 H60 C28 S8 N20"
_cell_length_a       7.660264220002627
_cell_length_b       11.74418325500036
_cell_length_c       14.437866802004667
_cell_angle_alpha    90.00001248853017
_cell_angle_beta     90.00009131546669
_cell_angle_gamma    89.99997434747529

_space_group_name_H-M_alt    "P 1"
_space_group_IT_number       1

loop_
  _space_group_symop_operation_xyz
  'x, y, z'

loop_
  _atom_site_type_symbol
  _atom_site_label
  _atom_site_symmetry_multiplicity
  _atom_site_fract_x
  _atom_site_fract_y
  _atom_site_fract_z
  _atom_site_occupancy
  Cd  Cd1       1.0  0.4058386557840805  0.5591840265477753  0.24311092804065026  1.0000
  Cd  Cd2       1.0  0.09415959734667473  0.4408157544013064  0.7431105501223596  1.0000
  Cd  Cd3       1.0  0.9058377160651149  0.9408154985081009  0.7568885965494585  1.0000
  Cd  Cd4       1.0  0.5941613329842071  0.05918413931914297  0.2568886217696758  1.0000
  H   H1        1.0  0.6166329748313119  0.7621363887171454  0.3048999416353196  1.0000
  H   H2        1.0  0.8833675238362345  0.23786326191386553  0.8049004648058186  1.0000
  H   H3        1.0  0.11663253901812003  0.7378632212472381  0.6951000309588835  1.0000
  H   H4        1.0  0.3833681808109405  0.26213824986847806  0.1951003369532174  1.0000
  H   H5        1.0  0.6504491867458102  0.6565973387278062  0.3781219823464993  1.0000
  H   H6        1.0  0.8495515318086364  0.343402331430319  0.8781218030921849  1.0000
  H   H7        1.0  0.15044845898957962  0.84340226130854  0.6218787114734852  1.0000
  H   H8        1.0  0.34955204095362563  0.15659919028015412  0.12187897006415938  1.0000
  H   H9        1.0  0.83657450277002  0.5598472750276071  0.2777720478437971  1.0000
  H   H10       1.0  0.6634246089931467  0.4401532198543306  0.7777724210166637  1.0000
  H   H11       1.0  0.33657531574900906  0.940153121848858  0.7222281107844352  1.0000
  H   H12       1.0  0.16342548554539596  0.059847505016023185  0.2222275020846851  1.0000
  H   H13       1.0  0.9066699390394108  0.704213199346668  0.27255179007467223  1.0000
  H   H14       1.0  0.5933304624853335  0.29578644265755116  0.7725520782413682  1.0000
  H   H15       1.0  0.40666825538435364  0.7957863254653499  0.7274484278413382  1.0000
  H   H16       1.0  0.0933325615867631  0.20421430279171193  0.22744778557267858  1.0000
  H   H17       1.0  0.7057980617704873  0.7332309798094484  0.1353264494909538  1.0000
  H   H18       1.0  0.7942019276627617  0.26676862559888537  0.6353269023918955  1.0000
  H   H19       1.0  0.20579681001862582  0.766768603976892  0.8646735985215201  1.0000
  H   H20       1.0  0.29420311360627244  0.23323120939089384  0.3646731313250626  1.0000
  H   H21       1.0  0.8825165107971744  0.6388574237646408  0.11492183942205257  1.0000
  H   H22       1.0  0.6174847227979399  0.36114302768723405  0.6149221596615533  1.0000
  H   H23       1.0  0.3825152558882152  0.8611421081385724  0.885078358064419  1.0000
  H   H24       1.0  0.11748472901253142  0.1388577106708339  0.38507772458203954  1.0000
  H   H25       1.0  0.6929865727673388  0.4841451200150073  0.1316596752176267  1.0000
  H   H26       1.0  0.8070134056532295  0.5158553359007243  0.6316594907047132  1.0000
  H   H27       1.0  0.19298680877584928  0.015854744691033297  0.8683409655109171  1.0000
  H   H28       1.0  0.307014431300189  0.984145921139969  0.36834064291998186  1.0000
  H   H29       1.0  0.6892333786664082  0.5875717539494331  0.9847268408174301  1.0000
  H   H30       1.0  0.8107663545889923  0.41242879612427424  0.48472780479961836  1.0000
  H   H31       1.0  0.18923339300472716  0.9124286861852438  0.0152725005616361  1.0000
  H   H32       1.0  0.3107680922344045  0.08757188548759129  0.5152722429283614  1.0000
  H   H33       1.0  0.4990857343132121  0.6564185021954855  0.026934996485614697  1.0000
  H   H34       1.0  0.0009144805114474001  0.3435820725878143  0.5269352149984171  1.0000
  H   H35       1.0  0.9990868156021052  0.8435818469689378  0.9730652995998168  1.0000
  H   H36       1.0  0.5009154935070939  0.15641784850885188  0.4730645706467697  1.0000
  H   H37       1.0  0.5463467281335781  0.4016593150928852  0.9862262928311906  1.0000
  H   H38       1.0  0.953651704184125  0.5983403838952908  0.4862253329204122  1.0000
  H   H39       1.0  0.04634825784828681  0.09834059266506757  0.0137728386191327  1.0000
  H   H40       1.0  0.45365452832600545  0.9016591271223217  0.5137728468668712  1.0000
  H   H41       1.0  0.3723395636843847  0.4539344565176078  0.0542879961433442  1.0000
  H   H42       1.0  0.1276594278422749  0.546066125560344  0.5542869726863627  1.0000
  H   H43       1.0  0.8723407659582635  0.04606620701693489  0.9457121036649595  1.0000
  H   H44       1.0  0.627661461008273  0.9539351841369095  0.4457116239893608  1.0000
  H   H45       1.0  0.27302702169941995  0.5781118048090191  0.9248113030593357  1.0000
  H   H46       1.0  0.22697177708379002  0.4218880245968605  0.42481150522790756  1.0000
  H   H47       1.0  0.7730279640514653  0.9218886107244653  0.0751888018184985  1.0000
  H   H48       1.0  0.7269718447862273  0.0781118301314123  0.5751891642463108  1.0000
  H   H49       1.0  0.4447559955584595  0.5295430457588352  0.8541264139494801  1.0000
  H   H50       1.0  0.055242590955444405  0.47045761628179145  0.35412647951645226  1.0000
  H   H51       1.0  0.9447571170195205  0.970457319356363  0.14587383618217592  1.0000
  H   H52       1.0  0.5552429040870167  0.02954058589397589  0.6458733520806986  1.0000
  H   H53       1.0  0.15878952185875045  0.39078845121939293  0.9315525386520134  1.0000
  H   H54       1.0  0.341209297165662  0.6092113799840174  0.4315507929472417  1.0000
  H   H55       1.0  0.6587906574467796  0.10921142352658819  0.06844876577505939  1.0000
  H   H56       1.0  0.8412117420259976  0.8907881640460283  0.5684486769787611  1.0000
  H   H57       1.0  0.3223895536930571  0.3369745452534472  0.8732607506888285  1.0000
  H   H58       1.0  0.1776103957192774  0.6630252704044037  0.3732602614392491  1.0000
  H   H59       1.0  0.822389522151781  0.16302613294620727  0.1267393068696663  1.0000
  H   H60       1.0  0.6776104414927036  0.8369743216573295  0.6267390701086697  1.0000
  C   C1        1.0  0.35184293743790823  0.8265529801871095  0.17615643960282054  1.0000
  C   C2        1.0  0.14815380919090873  0.1734459314212557  0.6761574449714658  1.0000
  C   C3        1.0  0.8518449922029205  0.673445709235416  0.8238409614479208  1.0000
  C   C4        1.0  0.6481555633478707  0.3265530949617456  0.3238431578366843  1.0000
  C   C5        1.0  0.07559014564180438  0.4046471327134994  0.1344285141667072  1.0000
  C   C6        1.0  0.4244090865571551  0.5953526192520399  0.6344325988515465  1.0000
  C   C7        1.0  0.5755897681621321  0.09535106348839407  0.8655706420176583  1.0000
  C   C8        1.0  0.9244096072606782  0.904646900351771  0.36556901931592006  1.0000
  C   C9        1.0  0.7972141816994595  0.6463888432305749  0.2575252805719757  1.0000
  C   C10       1.0  0.7027861747003854  0.3536107947663182  0.7575256716207406  1.0000
  C   C11       1.0  0.2972138091283584  0.8536098622312378  0.7424748447634142  1.0000
  C   C12       1.0  0.20278574752965278  0.1463907700333422  0.24247428477337954  1.0000
  C   C13       1.0  0.7599985987489859  0.6495350732664349  0.1540411410046687  1.0000
  C   C14       1.0  0.7400001414453642  0.3504662401036213  0.6540408703474369  1.0000
  C   C15       1.0  0.2599985390922939  0.8504653460923275  0.8459596454759932  1.0000
  C   C16       1.0  0.2400013283336762  0.14953531377007315  0.3459591175241101  1.0000
  C   C17       1.0  0.5748507773286917  0.576900829074354  0.030429997586104197  1.0000
  C   C18       1.0  0.9251475916585862  0.42309874835981254  0.5304298964716381  1.0000
  C   C19       1.0  0.0748523447273541  0.9230987931567468  0.9695706322913508  1.0000
  C   C20       1.0  0.42515050478151306  0.07690104818502158  0.4695695553808932  1.0000
  C   C21       1.0  0.4637738512463444  0.47705580223649935  0.9986415336162863  1.0000
  C   C22       1.0  0.03622647468841931  0.5229457498292688  0.49864159244839357  1.0000
  C   C23       1.0  0.9637748442604206  0.02294568593904239  0.0013586435299899  1.0000
  C   C24       1.0  0.536227353737047  0.9770547352268861  0.5013576195130085  1.0000
  C   C25       1.0  0.3590227553564632  0.5048210403516861  0.911765776892281  1.0000
  C   C26       1.0  0.14097469881180302  0.4951779340898879  0.41176522675543475  1.0000
  C   C27       1.0  0.8590249922838922  0.9951793499339415  0.08823440072399079  1.0000
  C   C28       1.0  0.6409761611693198  0.0048202429155352975  0.5882353699801968  1.0000
  S   S1        1.0  0.2173971802130765  0.7236620611828568  0.1507121715345932  1.0000
  S   S2        1.0  0.2826007954450916  0.27633684363982514  0.6507140015745418  1.0000
  S   S3        1.0  0.717397935702664  0.776336667712151  0.8492858084202694  1.0000
  S   S4        1.0  0.7826026962554452  0.22366299475576304  0.3492853297070226  1.0000
  S   S5        1.0  0.9307224388308201  0.35412411434360536  0.06285527847293079  1.0000
  S   S6        1.0  0.5692799438496295  0.6458746202523924  0.5628583791542069  1.0000
  S   S7        1.0  0.43072018181347005  0.14587482907999316  0.9371448707158192  1.0000
  S   S8        1.0  0.06927995944259643  0.8541250036145837  0.4371429386336984  1.0000
  N   N1        1.0  0.45195306351710945  0.9000804309373931  0.19433922999900224  1.0000
  N   N2        1.0  0.04804373771917621  0.09991848552039775  0.694342908085396  1.0000
  N   N3        1.0  0.951955113883102  0.5999190805793119  0.805661026220477  1.0000
  N   N4        1.0  0.5480440816258039  0.4000814217396848  0.30565761004600484  1.0000
  N   N5        1.0  0.1829102704361674  0.43892707267688263  0.18674030715789763  1.0000
  N   N6        1.0  0.31708781341954057  0.5610726932396872  0.6867449875839141  1.0000
  N   N7        1.0  0.6829071483929993  0.061071943502618374  0.8132603250462933  1.0000
  N   N8        1.0  0.8170894590615988  0.9389277093580757  0.3132572324315106  1.0000
  N   N9        1.0  0.6380513323149019  0.6762104449688875  0.3094892636721838  1.0000
  N   N10       1.0  0.8619491801360085  0.32379090985691045  0.8094911692797878  1.0000
  N   N11       1.0  0.13805082405177418  0.8237908616777643  0.6905093417922641  1.0000
  N   N12       1.0  0.3619498819894673  0.17620975672814146  0.19050822911669477  1.0000
  N   N13       1.0  0.6317275558927451  0.5619598201723687  0.12717076595792068  1.0000
  N   N14       1.0  0.8682724090486006  0.4380406345463326  0.6271713120207777  1.0000
  N   N15       1.0  0.13172751713587874  0.9380406368456558  0.8728292194039894  1.0000
  N   N16       1.0  0.36827243097960155  0.061959178697023276  0.3728280917237256  1.0000
  N   N17       1.0  0.24839209255035402  0.4094010495692044  0.880688415923778  1.0000
  N   N18       1.0  0.25160918460422727  0.5905996195545596  0.3806872837388582  1.0000
  N   N19       1.0  0.7483907827142391  0.09059965035569917  0.11931157904481177  1.0000
  N   N20       1.0  0.7516065477520756  0.9093999507822941  0.6193134956446116  1.0000
