data_image0
_chemical_formula_structural       Dy2H22C18N8O16
_chemical_formula_sum              "Dy2 H22 C18 N8 O16"
_cell_length_a       7.068307394759148
_cell_length_b       10.939375276180112
_cell_length_c       10.971471638620477
_cell_angle_alpha    110.5159505523865
_cell_angle_beta     101.89211437257985
_cell_angle_gamma    107.36316734496508

_space_group_name_H-M_alt    "P 1"
_space_group_IT_number       1

loop_
  _space_group_symop_operation_xyz
  'x, y, z'

loop_
  _atom_site_type_symbol
  _atom_site_label
  _atom_site_symmetry_multiplicity
  _atom_site_fract_x
  _atom_site_fract_y
  _atom_site_fract_z
  _atom_site_occupancy
  Dy  Dy1       1.0  0.7106364097176794  0.7825877767500345  0.6830212126672279  1.0000
  Dy  Dy2       1.0  0.28936021917507304  0.2174096146214239  0.3169752776600774  1.0000
  H   H1        1.0  0.30665682943747896  0.7982865895812736  0.7088017971211116  1.0000
  H   H2        1.0  0.6933577096926697  0.2017201677165303  0.29120832160003823  1.0000
  H   H3        1.0  0.32136902411276935  0.676730520167098  0.7481615174644174  1.0000
  H   H4        1.0  0.6786306317882945  0.32327228075178027  0.25184817530517717  1.0000
  H   H5        1.0  0.8277430999745121  0.9530571019196543  0.5422667925641632  1.0000
  H   H6        1.0  0.1722360689505607  0.0469371984944473  0.45772653459241747  1.0000
  H   H7        1.0  0.9103333945312218  0.8335241256287277  0.47713875674451606  1.0000
  H   H8        1.0  0.08965284483276996  0.16647575552097038  0.522857373517759  1.0000
  H   H9        1.0  0.9528420237814146  0.6398384860745736  0.5371458162583949  1.0000
  H   H10       1.0  0.047156750781354624  0.3601631748785011  0.4628542538921394  1.0000
  H   H11       1.0  0.9970475176016579  0.6285478849320612  0.6823952645239615  1.0000
  H   H12       1.0  0.00294924565731945  0.3714526248264178  0.31760416166141425  1.0000
  H   H13       1.0  0.8329995673994831  0.7201326176243299  0.8996454726997882  1.0000
  H   H14       1.0  0.1670013273894284  0.2798702174403048  0.1003579975200921  1.0000
  H   H15       1.0  0.00921299780328153  0.8782858689187378  0.9999003938224431  1.0000
  H   H16       1.0  0.9907921837048195  0.1217202786380724  9.836902309247855e-05  1.0000
  H   H17       1.0  0.4191191253605099  0.8201503835926476  0.39179868068934104  1.0000
  H   H18       1.0  0.5808838279032288  0.17985052247450986  0.6082070911445854  1.0000
  H   H19       1.0  0.3190041313789109  0.4270634055531701  0.055062649356983746  1.0000
  H   H20       1.0  0.6809955633556444  0.5729218173703927  0.9449381321818037  1.0000
  H   H21       1.0  0.20406577669278644  0.7568667869380974  0.9686289934709648  1.0000
  H   H22       1.0  0.795948116954229  0.24312342943353124  0.031379790875604455  1.0000
  C   C1        1.0  0.4278209859092356  0.5574716018887429  0.33505227871017945  1.0000
  C   C2        1.0  0.5722048132243742  0.4425368934276861  0.6649670837475553  1.0000
  C   C3        1.0  0.37270488294018383  0.6163908021956034  0.23459362979603077  1.0000
  C   C4        1.0  0.627274659922989  0.3836004867773326  0.7654096233220073  1.0000
  C   C5        1.0  0.3751109653787522  0.7535864582376135  0.28130333486441117  1.0000
  C   C6        1.0  0.6248941180705785  0.24641657857115726  0.7186934108244357  1.0000
  C   C7        1.0  0.31351602700955533  0.5317070535428031  0.09250386211203221  1.0000
  C   C8        1.0  0.6864865160086282  0.468296856326532  0.9074910650590481  1.0000
  C   C9        1.0  0.313125090452729  0.8031481470900134  0.18478318998123194  1.0000
  C   C10       1.0  0.6868759294607402  0.19684735301952125  0.8151994820550995  1.0000
  C   C11       1.0  0.2507409361658333  0.5802959697701625  0.9954459064559555  1.0000
  C   C12       1.0  0.7492476403648852  0.41970917578616007  0.004545970922109188  1.0000
  C   C13       1.0  0.3051830633997241  0.9462117375242584  0.23478351624100918  1.0000
  C   C14       1.0  0.694811870092728  0.05378765923457248  0.7652198594861871  1.0000
  C   C15       1.0  0.2516948141176485  0.717161149751881  0.04263507770998132  1.0000
  C   C16       1.0  0.748301016915292  0.2828320291006818  0.9573543663485463  1.0000
  C   C17       1.0  0.17923532280375545  0.4853293642879706  0.8477287697902653  1.0000
  C   C18       1.0  0.8207672636687562  0.514662194257113  0.15226911317081707  1.0000
  N   N1        1.0  0.15452554882761396  0.3478710089592242  0.7971812239939665  1.0000
  N   N2        1.0  0.8454769696508323  0.6521257609789403  0.20282668858514094  1.0000
  N   N3        1.0  0.1277444078963442  0.5213449963377814  0.742838840714292  1.0000
  N   N4        1.0  0.8722570840139949  0.47865060307862  0.25715577444017157  1.0000
  N   N5        1.0  0.08691218068713617  0.2997724894883901  0.6595087522602865  1.0000
  N   N6        1.0  0.913079625212184  0.7002359726092919  0.3404892338001346  1.0000
  N   N7        1.0  0.07098493474980218  0.40246400089699824  0.6265317595778015  1.0000
  N   N8        1.0  0.929010759390877  0.5975436452028545  0.3734645785548522  1.0000
  O   O1        1.0  0.49519444063771795  0.6393797365893974  0.46390063435391937  1.0000
  O   O2        1.0  0.5047966918085648  0.3606266747463707  0.5361056675102275  1.0000
  O   O3        1.0  0.40925152772188506  0.765690300726611  0.7462157053734372  1.0000
  O   O4        1.0  0.590754027724323  0.23431283538903364  0.2537929834335415  1.0000
  O   O5        1.0  0.899675100544009  0.8969003492748088  0.5664572141886737  1.0000
  O   O6        1.0  0.10031290683519958  0.1030975417654929  0.43353386807649485  1.0000
  O   O7        1.0  0.9620491826092632  0.6873924761300999  0.6376680917851941  1.0000
  O   O8        1.0  0.03795819173988947  0.3126148608162538  0.36233590853247216  1.0000
  O   O9        1.0  0.9038460810334074  0.8133727065552351  0.9030929687062753  1.0000
  O   O10       1.0  0.0961542846281418  0.18663215276455963  0.09690932696098288  1.0000
  O   O11       1.0  0.5997042398174061  0.5731225220777175  0.7157236245212387  1.0000
  O   O12       1.0  0.4002979155865134  0.42687417147054424  0.2842751010439173  1.0000
  O   O13       1.0  0.5787507317993954  0.9573139579101094  0.6433064432190745  1.0000
  O   O14       1.0  0.4212590957857073  0.042686307396586194  0.35669809740717534  1.0000
  O   O15       1.0  0.8204771199236662  0.026557909466490105  0.8452018495360959  1.0000
  O   O16       1.0  0.17952521239668298  0.973433595605655  0.15478960251522253  1.0000
