data_image0
_chemical_formula_structural       Zn4H16C24N16O8
_chemical_formula_sum              "Zn4 H16 C24 N16 O8"
_cell_length_a       5.886819784003163
_cell_length_b       10.371347522020013
_cell_length_c       12.627475952027758
_cell_angle_alpha    89.99978306647026
_cell_angle_beta     89.99989523034536
_cell_angle_gamma    90.00005667617732

_space_group_name_H-M_alt    "P 1"
_space_group_IT_number       1

loop_
  _space_group_symop_operation_xyz
  'x, y, z'

loop_
  _atom_site_type_symbol
  _atom_site_label
  _atom_site_symmetry_multiplicity
  _atom_site_fract_x
  _atom_site_fract_y
  _atom_site_fract_z
  _atom_site_occupancy
  Zn  Zn1       1.0  0.20619047374538002  0.32879998024584717  0.49039510674878534  1.0000
  Zn  Zn2       1.0  0.2938109789226075  0.6711969826157257  0.9903946964256324  1.0000
  Zn  Zn3       1.0  0.7938113470429825  0.8288037744783451  0.0096044053154998  1.0000
  Zn  Zn4       1.0  0.7061869135420551  0.1711937416805895  0.5096056267986242  1.0000
  H   H1        1.0  0.2916853711322887  0.46811023374386457  0.2887686524829221  1.0000
  H   H2        1.0  0.20832026206391419  0.5318915144654498  0.7887679574585036  1.0000
  H   H3        1.0  0.7083218000396484  0.9681120894831847  0.2112304259460203  1.0000
  H   H4        1.0  0.7916739787397588  0.031889319087717596  0.7112304236151559  1.0000
  H   H5        1.0  0.8200302029480111  0.7446037217946752  0.34795480317212224  1.0000
  H   H6        1.0  0.6799786344787648  0.25539416452510005  0.8479557851273257  1.0000
  H   H7        1.0  0.1799731628791719  0.2446024359637278  0.15204497098013553  1.0000
  H   H8        1.0  0.32002620649562624  0.7553989777063064  0.6520474436933982  1.0000
  H   H9        1.0  0.8028388217319672  0.6806019435899626  0.5420800076532188  1.0000
  H   H10       1.0  0.6971661075625734  0.3193963872049039  0.042080455019267014  1.0000
  H   H11       1.0  0.19716418403432098  0.18060407926036248  0.9579194943614056  1.0000
  H   H12       1.0  0.30284079218695575  0.8193997825214437  0.4579222540099579  1.0000
  H   H13       1.0  0.5259046545179159  0.5121009769596654  0.5971214759029878  1.0000
  H   H14       1.0  0.97409836229167  0.4878999929323129  0.097121952299787  1.0000
  H   H15       1.0  0.47409974243008424  0.012104478454681098  0.9028777586840563  1.0000
  H   H16       1.0  0.025902050153000296  0.9878977084308075  0.4028778564621192  1.0000
  C   C1        1.0  0.4046240506328473  0.5186127379012644  0.3428656387887585  1.0000
  C   C2        1.0  0.09537797503092799  0.4813858685847094  0.8428651981917668  1.0000
  C   C3        1.0  0.595380601453243  0.0186135792402951  0.15713325496212602  1.0000
  C   C4        1.0  0.9046170861426003  0.9813861500773484  0.6571341594920952  1.0000
  C   C5        1.0  0.5521401921071599  0.6130596080990428  0.3050138416654491  1.0000
  C   C6        1.0  0.947862017260739  0.38694040436779187  0.80501497547656  1.0000
  C   C7        1.0  0.44786123492895763  0.11306019619890151  0.19498713387073965  1.0000
  C   C8        1.0  0.0521362689537597  0.8869400555148343  0.6949878438862883  1.0000
  C   C9        1.0  0.7003899315917863  0.6723738580993767  0.3766780469270189  1.0000
  C   C10       1.0  0.7996153968589397  0.3276267885233394  0.8766787010580404  1.0000
  C   C11       1.0  0.2996116036996597  0.17237373274355144  0.1233219520567204  1.0000
  C   C12       1.0  0.2003844798193057  0.8276307057945472  0.6233227190773221  1.0000
  C   C13       1.0  0.6916209512537463  0.6371776053723295  0.4832092923227621  1.0000
  C   C14       1.0  0.8083788673072546  0.3628215864392459  0.9832090374293545  1.0000
  C   C15       1.0  0.30838391722708275  0.1371789395252208  0.016788440442219603  1.0000
  C   C16       1.0  0.1916176761822612  0.8628259896309841  0.5167938570023695  1.0000
  C   C17       1.0  0.5380506191931785  0.542856093069183  0.5149022996883446  1.0000
  C   C18       1.0  0.9619493195319748  0.4571423628931938  0.0149005065067485  1.0000
  C   C19       1.0  0.4619521351749185  0.0428601736091352  0.9850976310898434  1.0000
  C   C20       1.0  0.038052735491717705  0.9571435630110939  0.4850986060655061  1.0000
  C   C21       1.0  0.5478817829612979  0.6488594639939079  0.18950693545755123  1.0000
  C   C22       1.0  0.9521191763149871  0.351138187841002  0.6895081770426543  1.0000
  C   C23       1.0  0.4521180107045666  0.14885662983920153  0.3104915528774583  1.0000
  C   C24       1.0  0.04787734585534051  0.8511421257370485  0.8104923779854403  1.0000
  N   N1        1.0  0.39855772586747656  0.4835977636600005  0.4454325116969287  1.0000
  N   N2        1.0  0.10144560014374797  0.516402298855027  0.9454327488066172  1.0000
  N   N3        1.0  0.6014477748634943  0.9835993195346262  0.054564934676811616  1.0000
  N   N4        1.0  0.8985537085223356  0.016401846345381402  0.5545656804759957  1.0000
  N   N5        1.0  0.3880795706108699  0.19134036563826837  0.5715397247881739  1.0000
  N   N6        1.0  0.11192181015435655  0.8086575620181334  0.07153872259125652  1.0000
  N   N7        1.0  0.6119200573321136  0.6913421335812159  0.9284605357265081  1.0000
  N   N8        1.0  0.8880748777381983  0.3086573103665842  0.42846085217956903  1.0000
  N   N9        1.0  0.36200757018587376  0.17522555211534294  0.6661287355252343  1.0000
  N   N10       1.0  0.1379934431997398  0.8247729041139709  0.1661292445709606  1.0000
  N   N11       1.0  0.6379920283446124  0.6752258412336473  0.8338715751529193  1.0000
  N   N12       1.0  0.8620049728107588  0.32477307413622464  0.33387265580735465  1.0000
  N   N13       1.0  0.3333739238841247  0.1579276826401212  0.7555805388684078  1.0000
  N   N14       1.0  0.166623344656756  0.842072290016695  0.2555817613451268  1.0000
  N   N15       1.0  0.6666256430746457  0.6579264706452932  0.744419825655804  1.0000
  N   N16       1.0  0.8333751029247979  0.34207189249011083  0.2444208771095333  1.0000
  O   O1        1.0  0.40252322114825734  0.590046563710956  0.13190650470708934  1.0000
  O   O2        1.0  0.09747622644386669  0.4099501217362799  0.6319062846604098  1.0000
  O   O3        1.0  0.5974747664688209  0.09004450623574908  0.3680921666965278  1.0000
  O   O4        1.0  0.9025221017726109  0.9099523231435781  0.8680940873035825  1.0000
  O   O5        1.0  0.6848081435828633  0.7354114858924063  0.15944214288580133  1.0000
  O   O6        1.0  0.8151878363304161  0.26458437601035456  0.6594437717585606  1.0000
  O   O7        1.0  0.3151918080497963  0.23540940422667936  0.3405560760343675  1.0000
  O   O8        1.0  0.18480852786981924  0.7645892128901721  0.8405578446112755  1.0000
