data_image0
_chemical_formula_structural       Ni4H48C56N8O20
_chemical_formula_sum              "Ni4 H48 C56 N8 O20"
_cell_length_a       10.003419046001948
_cell_length_b       16.300491158006118
_cell_length_c       16.428638770003115
_cell_angle_alpha    90.00006972301783
_cell_angle_beta     90.00001085766075
_cell_angle_gamma    89.99992931050413

_space_group_name_H-M_alt    "P 1"
_space_group_IT_number       1

loop_
  _space_group_symop_operation_xyz
  'x, y, z'

loop_
  _atom_site_type_symbol
  _atom_site_label
  _atom_site_symmetry_multiplicity
  _atom_site_fract_x
  _atom_site_fract_y
  _atom_site_fract_z
  _atom_site_occupancy
  Ni  Ni1       1.0  0.30744675339333577  0.21216928719253758  0.548737635864086  1.0000
  Ni  Ni2       1.0  0.19255338027335966  0.7878308190102387  0.0487379391315415  1.0000
  Ni  Ni3       1.0  0.6925496438814136  0.7121690460808522  0.9512624840978392  1.0000
  Ni  Ni4       1.0  0.807446710053412  0.28783056196071033  0.45126402336718746  1.0000
  H   H1        1.0  0.4234790079173579  0.24678706390465516  0.29662487087827577  1.0000
  H   H2        1.0  0.07652420079966049  0.7532127329350615  0.7966251936552879  1.0000
  H   H3        1.0  0.5765241639103493  0.7467872199917239  0.20337399861370645  1.0000
  H   H4        1.0  0.9234791115564177  0.2532120839288083  0.7033749758478152  1.0000
  H   H5        1.0  0.39507162911350946  0.3443516462547223  0.34029500996268075  1.0000
  H   H6        1.0  0.1049295936889152  0.6556488176416337  0.8402976530718007  1.0000
  H   H7        1.0  0.6049293472231625  0.8443517272598768  0.1597015425207076  1.0000
  H   H8        1.0  0.8950719155234026  0.15564875004049125  0.6597042247476141  1.0000
  H   H9        1.0  0.1863280793385513  0.26447498909499967  0.33712365819647533  1.0000
  H   H10       1.0  0.3136741421488409  0.7355254709103323  0.8371264221409335  1.0000
  H   H11       1.0  0.8136730576077796  0.764474302486306  0.1628721891790974  1.0000
  H   H12       1.0  0.6863272064562905  0.23552372479130673  0.662876160784819  1.0000
  H   H13       1.0  0.13547646880768838  0.28223897391259106  0.4735068460326418  1.0000
  H   H14       1.0  0.36452379521948325  0.717760426455392  0.9735083770973889  1.0000
  H   H15       1.0  0.8645226331025029  0.7822399219248907  0.026490240171924008  1.0000
  H   H16       1.0  0.6354765894453962  0.21776100542692228  0.5264935756934506  1.0000
  H   H17       1.0  0.7778245506064962  0.6267518626254825  0.7994963639786763  1.0000
  H   H18       1.0  0.7221757553848178  0.37324755922166014  0.2994961702941197  1.0000
  H   H19       1.0  0.22217501739244483  0.1267517410044405  0.7005024354950677  1.0000
  H   H20       1.0  0.2778261625085889  0.8732479379090636  0.20050163445429803  1.0000
  H   H21       1.0  0.6924078532638163  0.5150588854317207  0.7080693619884643  1.0000
  H   H22       1.0  0.8075904253527141  0.4849404242505031  0.20806931311441457  1.0000
  H   H23       1.0  0.30759093965940565  0.015058811313828399  0.791929911360697  1.0000
  H   H24       1.0  0.19241126795777316  0.9849415932441589  0.29192923514521857  1.0000
  H   H25       1.0  0.3501978993983101  0.4967001569223585  0.8677678936708517  1.0000
  H   H26       1.0  0.1498003328607567  0.5032997271989644  0.36776663111054125  1.0000
  H   H27       1.0  0.6498009247422231  0.9966989432979217  0.6322319610371923  1.0000
  H   H28       1.0  0.8502003295748253  0.0033002733429086002  0.13223133578976845  1.0000
  H   H29       1.0  0.45538884075825337  0.6028386901197466  0.9548701285842612  1.0000
  H   H30       1.0  0.044612417206046494  0.3971619143391649  0.4548693342980458  1.0000
  H   H31       1.0  0.5446107753249692  0.1028369068300279  0.5451292507175226  1.0000
  H   H32       1.0  0.955388452944966  0.8971615894724607  0.04512849931543171  1.0000
  H   H33       1.0  0.36119626592262927  0.3631839011082363  0.8198143581239634  1.0000
  H   H34       1.0  0.13880095196135758  0.6368165376624688  0.3198156902091115  1.0000
  H   H35       1.0  0.6388048259980295  0.8631821411630437  0.6801877701972501  1.0000
  H   H36       1.0  0.8611964430372437  0.13681590735331642  0.18018487262286706  1.0000
  H   H37       1.0  0.28180550392499265  0.25528712409687426  0.7248557210797417  1.0000
  H   H38       1.0  0.2181956834508796  0.7447119712170148  0.22485719268786405  1.0000
  H   H39       1.0  0.7181928059692168  0.7552866475070489  0.7751468856996697  1.0000
  H   H40       1.0  0.7818064928913059  0.24471213098729547  0.2751435003788103  1.0000
  H   H41       1.0  0.44701086946837165  0.3740882678714356  0.5261333126665735  1.0000
  H   H42       1.0  0.052991256577584495  0.6259118105987014  0.026133404163964306  1.0000
  H   H43       1.0  0.552989200865639  0.8740893871028135  0.9738688288183044  1.0000
  H   H44       1.0  0.9470121582960684  0.12591147562526572  0.47386592811979983  1.0000
  H   H45       1.0  0.5330393555063891  0.48701433295065744  0.6117546001042131  1.0000
  H   H46       1.0  0.966960892866318  0.5129866990039533  0.11175460372682983  1.0000
  H   H47       1.0  0.46695948810876325  0.9870141853085387  0.8882470689927828  1.0000
  H   H48       1.0  0.033041749409164795  0.0129863374142758  0.3882452009450716  1.0000
  C   C1        1.0  0.5138661043040001  0.26433933268149445  0.4126052809151731  1.0000
  C   C2        1.0  0.9861352360574287  0.7356608414099242  0.9126056304269954  1.0000
  C   C3        1.0  0.48613503291461063  0.7643394149058337  0.0873923923765858  1.0000
  C   C4        1.0  0.0138681115897228  0.23566073871915447  0.587393300504317  1.0000
  C   C5        1.0  0.39833558169784306  0.2782573258679192  0.35380430619340336  1.0000
  C   C6        1.0  0.1016656452503284  0.7217431546014055  0.8538058113127607  1.0000
  C   C7        1.0  0.6016645278780076  0.7782567792925263  0.1461927752043195  1.0000
  C   C8        1.0  0.8983367307234288  0.22174306795643153  0.6461955375919501  1.0000
  C   C9        1.0  0.2625720343144593  0.24845399865699133  0.38287303067612305  1.0000
  C   C10       1.0  0.2374272022384005  0.7515465174760009  0.8828751963453882  1.0000
  C   C11       1.0  0.7374281351867396  0.7484539271197194  0.11712340605497222  1.0000
  C   C12       1.0  0.7625721148360824  0.25154527098863605  0.6171274059185592  1.0000
  C   C13       1.0  0.2606737799774166  0.1538531749416379  0.39265162904069945  1.0000
  C   C14       1.0  0.23932545957772788  0.846146739712303  0.8926581699706306  1.0000
  C   C15       1.0  0.7393285790547068  0.6538530899674696  0.10734104134472493  1.0000
  C   C16       1.0  0.7606736672823544  0.34614670961954636  0.6073488073322582  1.0000
  C   C17       1.0  0.6818683898825314  0.5972245747208902  0.8107516857135908  1.0000
  C   C18       1.0  0.8181299202459369  0.4027754744139003  0.3107515388958575  1.0000
  C   C19       1.0  0.31812923817095395  0.0972243666502237  0.689247078119415  1.0000
  C   C20       1.0  0.1818719382753571  0.9027759119336594  0.18924691018707313  1.0000
  C   C21       1.0  0.6328631980925009  0.5365920330002611  0.759489943334579  1.0000
  C   C22       1.0  0.8671360959622804  0.4634079532445412  0.25948987543583263  1.0000
  C   C23       1.0  0.36713655119359595  0.03659062376448931  0.7405111820846388  1.0000
  C   C24       1.0  0.1328676399596276  0.9634097177093537  0.24050864683374584  1.0000
  C   C25       1.0  0.5101591916631703  0.4991196002205244  0.7778639251822668  1.0000
  C   C26       1.0  0.9898371090558485  0.5008804085672764  0.2778639168692791  1.0000
  C   C27       1.0  0.4898396276117154  0.9991192314676811  0.7221359324466476  1.0000
  C   C28       1.0  0.0101625585866501  0.0008804739858661002  0.22213465580362884  1.0000
  C   C29       1.0  0.44550228464659375  0.5235085043802031  0.849638598433586  1.0000
  C   C30       1.0  0.0544979413670674  0.47648951706373305  0.3496379010569797  1.0000
  C   C31       1.0  0.5544974909450245  0.023508683143639096  0.6503619025011106  1.0000
  C   C32       1.0  0.9455037689365964  0.9764899422611535  0.1503612456947891  1.0000
  C   C33       1.0  0.5023577922242239  0.5838858344570211  0.8982293955443696  1.0000
  C   C34       1.0  0.9976385454348174  0.41611370852073276  0.3982292858276821  1.0000
  C   C35       1.0  0.4976398626505941  0.08388476969228258  0.6017699608809011  1.0000
  C   C36       1.0  0.0023602872924612995  0.9161141746148047  0.10176917935485363  1.0000
  C   C37       1.0  0.45478717948283537  0.4353552518991179  0.7240931473470982  1.0000
  C   C38       1.0  0.045210009023563195  0.5646462963940025  0.22409377267687355  1.0000
  C   C39       1.0  0.545212767662889  0.9353542937179  0.7759084593949767  1.0000
  C   C40       1.0  0.9547895304060531  0.06464448570989131  0.27590548565594025  1.0000
  C   C41       1.0  0.38117142052532665  0.36898183851091904  0.7548692377001276  1.0000
  C   C42       1.0  0.118826777084287  0.6310197475390352  0.25486995175762683  1.0000
  C   C43       1.0  0.6188296597366403  0.8689807868429184  0.745132897619847  1.0000
  C   C44       1.0  0.8811726288867732  0.13101856830648023  0.2451293866908699  1.0000
  C   C45       1.0  0.33805521566625163  0.30776280841805453  0.7023882829179373  1.0000
  C   C46       1.0  0.1619439654962136  0.6922380997680759  0.20238968460616755  1.0000
  C   C47       1.0  0.6619429887144719  0.8077624019753527  0.797614995894847  1.0000
  C   C48       1.0  0.8380553173825406  0.19223701756242656  0.2976115538147682  1.0000
  C   C49       1.0  0.42933392338154164  0.37402389936447367  0.5914053049105306  1.0000
  C   C50       1.0  0.07066422406199989  0.6259774861423466  0.09140600724737172  1.0000
  C   C51       1.0  0.57066414776628  0.8740243116586012  0.9085974451892653  1.0000
  C   C52       1.0  0.9293361917057438  0.12597647099232742  0.40859393380823417  1.0000
  C   C53       1.0  0.4767256636403445  0.4373900999430589  0.6398755820264628  1.0000
  C   C54       1.0  0.023270499361899497  0.5626113450290832  0.13987559364021962  1.0000
  C   C55       1.0  0.5232722800953126  0.9373911021263267  0.8601248097865053  1.0000
  C   C56       1.0  0.9767290441593344  0.06260962105779558  0.3601236622363829  1.0000
  N   N1        1.0  0.6172974523501225  0.6221153017488135  0.8785016801179639  1.0000
  N   N2        1.0  0.8826998789116658  0.37788544398316054  0.3785021195038923  1.0000
  N   N3        1.0  0.3827011253143269  0.1221143481994318  0.6214977224518706  1.0000
  N   N4        1.0  0.11730003034126209  0.877884620309942  0.12149690822810302  1.0000
  N   N5        1.0  0.3629956748984569  0.30889216334843894  0.6217741807165353  1.0000
  N   N6        1.0  0.13700248186572847  0.6911086459375613  0.1217749694305112  1.0000
  N   N7        1.0  0.6370015275526055  0.80889248816581  0.8782297081529579  1.0000
  N   N8        1.0  0.8629968032838562  0.191107643750918  0.3782256589340208  1.0000
  O   O1        1.0  0.49495961542993433  0.22815642308240314  0.4811477596221537  1.0000
  O   O2        1.0  0.005037651963995399  0.771846054051231  0.9811462704462884  1.0000
  O   O3        1.0  0.5050345969350758  0.7281564069077433  0.018852304767612803  1.0000
  O   O4        1.0  0.9949636236112626  0.2718432841148939  0.5188520954670823  1.0000
  O   O5        1.0  0.6265825359365634  0.2906642491630008  0.38898313935487755  1.0000
  O   O6        1.0  0.8734187971756098  0.7093352824680038  0.8889810091317047  1.0000
  O   O7        1.0  0.3734165490325694  0.7906662861368972  0.11101943525839182  1.0000
  O   O8        1.0  0.12658460340533398  0.20933450995224945  0.6110178900232415  1.0000
  O   O9        1.0  0.2328021819100456  0.2906006387968604  0.4580064855262621  1.0000
  O   O10       1.0  0.267198077360149  0.7093987425547396  0.9580079951119347  1.0000
  O   O11       1.0  0.7671979028459716  0.7906010660254381  0.041990610770895415  1.0000
  O   O12       1.0  0.7328003248018221  0.20939865338586117  0.541993338892361  1.0000
  O   O13       1.0  0.2676214371599385  0.11177771427789909  0.3294802108221333  1.0000
  O   O14       1.0  0.23237678334691475  0.8882239633057196  0.8294782800227481  1.0000
  O   O15       1.0  0.7323780075019286  0.611776485114717  0.1705227565594072  1.0000
  O   O16       1.0  0.7676222589096752  0.38822093806643926  0.6705202263629532  1.0000
  O   O17       1.0  0.25089016355234856  0.12678287379976888  0.4661817455103546  1.0000
  O   O18       1.0  0.24911009822591978  0.8732171310589648  0.9661816246351551  1.0000
  O   O19       1.0  0.7491102505958622  0.6267820777369479  0.033818805210678704  1.0000
  O   O20       1.0  0.7508899738606586  0.3732170181679563  0.533818689718018  1.0000
