data_image0
_chemical_formula_structural       Zn6H40C96I8O24
_chemical_formula_sum              "Zn6 H40 C96 I8 O24"
_cell_length_a       28.925879210913372
_cell_length_b       31.264635862683992
_cell_length_c       31.25956017242065
_cell_angle_alpha    77.60767941394862
_cell_angle_beta     62.43442617958889
_cell_angle_gamma    62.372222843899735

_space_group_name_H-M_alt    "P 1"
_space_group_IT_number       1

loop_
  _space_group_symop_operation_xyz
  'x, y, z'

loop_
  _atom_site_type_symbol
  _atom_site_label
  _atom_site_symmetry_multiplicity
  _atom_site_fract_x
  _atom_site_fract_y
  _atom_site_fract_z
  _atom_site_occupancy
  Zn  Zn1       1.0  0.4662693798200338  0.5328900749371143  0.5329080531912851  1.0000
  Zn  Zn2       1.0  0.45556557902493466  0.0004947663083428  1.2519146736271227e-05  1.0000
  Zn  Zn3       1.0  0.5444306153662308  0.9994968455734895  0.9999832664214736  1.0000
  Zn  Zn4       1.0  0.0008894315167820964  0.4671041599810836  0.5328784571137248  1.0000
  Zn  Zn5       1.0  0.5337192981867246  0.4671055061131285  0.467100995779873  1.0000
  Zn  Zn6       1.0  0.9991071980709093  0.5328946649026635  0.467117589893988  1.0000
  H   H1        1.0  0.417209528775274  0.9012898425832249  0.11753069314254823  1.0000
  H   H2        1.0  0.5347300231726277  0.9013085232600703  0.8824433586739175  1.0000
  H   H3        1.0  0.4178613235919143  0.11757785806765501  0.9009693807615236  1.0000
  H   H4        1.0  0.3187912903102088  0.11782392906463461  0.0989423524776072  1.0000
  H   H5        1.0  0.5827077231619808  0.0988092885235616  0.8825868567422219  1.0000
  H   H6        1.0  0.6811983831846078  0.8821009070881518  0.9011194539856151  1.0000
  H   H7        1.0  0.582203765561502  0.8823361543048589  0.09894560635692799  1.0000
  H   H8        1.0  0.4652966483816527  0.0987740133575414  0.11745917799382968  1.0000
  H   H9        1.0  0.41635894186522643  0.8383176177281019  0.18184700410395763  1.0000
  H   H10       1.0  0.5981214748065965  0.8383727578114633  0.8181046932821302  1.0000
  H   H11       1.0  0.4170639943480127  0.18187770158069577  0.8379994816392653  1.0000
  H   H12       1.0  0.25509252081093337  0.18204869741674656  0.1619845321094431  1.0000
  H   H13       1.0  0.5835656437281501  0.1617775328255675  0.8182706756318366  1.0000
  H   H14       1.0  0.7448967864832383  0.8178696422927416  0.8380824150904688  1.0000
  H   H15       1.0  0.5830345232588596  0.8180013000613544  0.16187520915362105  1.0000
  H   H16       1.0  0.401908617575458  0.16171663242668194  0.18179065712875814  1.0000
  H   H17       1.0  0.536298845408055  0.8092875568678723  0.24614110950549437  1.0000
  H   H18       1.0  0.6538443431661419  0.7539108018883597  0.809081277556267  1.0000
  H   H19       1.0  0.4638911342617149  0.19061363599049494  0.7537486528489481  1.0000
  H   H20       1.0  0.34608118193991544  0.24618776700903316  0.19083762304877896  1.0000
  H   H21       1.0  0.5367481407137402  0.2462231388564931  0.8093014013156008  1.0000
  H   H22       1.0  0.7824951373149245  0.8092142225536778  0.7538830712121652  1.0000
  H   H23       1.0  0.4630592131724499  0.7538736515937359  0.19082390769823843  1.0000
  H   H24       1.0  0.21758497444498903  0.19070396882009535  0.24617300869461195  1.0000
  H   H25       1.0  0.5720175790674134  0.6183007005111776  0.2755879175814613  1.0000
  H   H26       1.0  0.8094910065148181  0.7245587050575042  0.6181483852396782  1.0000
  H   H27       1.0  0.42790111987972773  0.3816542584822784  0.7244035804991854  1.0000
  H   H28       1.0  0.19058999031310717  0.2754489984906456  0.3818387082598491  1.0000
  H   H29       1.0  0.572576801320764  0.27549438025920386  0.6181620776651472  1.0000
  H   H30       1.0  0.8476753480288649  0.6182651912802015  0.724364805694222  1.0000
  H   H31       1.0  0.42756542822834837  0.7245272509922457  0.3818629442158112  1.0000
  H   H32       1.0  0.15225562939320267  0.3817146166853009  0.2756472253505606  1.0000
  H   H33       1.0  0.5715484339284769  0.554539110854897  0.339322421328909  1.0000
  H   H34       1.0  0.8737912839211075  0.6607634219474648  0.5544456762269476  1.0000
  H   H35       1.0  0.4283463679321145  0.4454288672259139  0.6606778039487152  1.0000
  H   H36       1.0  0.12627522156191864  0.33924719023320193  0.44554387816614144  1.0000
  H   H37       1.0  0.5718302262627405  0.33931250342996583  0.5544792811732223  1.0000
  H   H38       1.0  0.9108062800667939  0.5544932426331995  0.6606383888058501  1.0000
  H   H39       1.0  0.42826596613484447  0.6607160584625762  0.44554879126680913  1.0000
  H   H40       1.0  0.08912934091370768  0.44548764181888606  0.3393708270955571  1.0000
  C   C1        1.0  0.4999498939167211  0.5658489344703952  0.4341692175109984  1.0000
  C   C2        1.0  0.6956459218736981  0.7526378591581206  0.7829343804033755  1.0000
  C   C3        1.0  0.17550864130127763  0.32458961606600667  0.3247103109285945  1.0000
  C   C4        1.0  0.49978143780749906  0.6754459797363807  0.32470147374250774  1.0000
  C   C5        1.0  0.8244772759407013  0.6754092232389439  0.6752905410940712  1.0000
  C   C6        1.0  0.5002397112049195  0.32454485542995565  0.675307979585149  1.0000
  C   C7        1.0  0.5664035480807781  0.9335501466491253  0.9336119323788666  1.0000
  C   C8        1.0  0.4999999774785592  0.06638924855049311  0.9336177602430665  1.0000
  C   C9        1.0  0.4336115326685643  0.06644648616783401  0.06637930778374823  1.0000
  C   C10       1.0  0.4999947711953113  0.9336149772269308  0.06639301151783891  1.0000
  C   C11       1.0  0.4793993055563061  0.21682934056154587  0.7525336011193958  1.0000
  C   C12       1.0  0.59025737057447  0.4999569465754732  0.4999116995354671  1.0000
  C   C13       1.0  0.0903450991122696  0.49991037533945365  0.49995109485499967  1.0000
  C   C14       1.0  0.40973699636752076  0.5000472924362853  0.5000846849546151  1.0000
  C   C15       1.0  0.9096460772541018  0.5000963924411438  0.500047203466366  1.0000
  C   C16       1.0  0.30431703109579905  0.2474065043018996  0.2170251287556511  1.0000
  C   C17       1.0  0.6394012869365185  0.5005236170768511  0.500387281031202  1.0000
  C   C18       1.0  0.14013389465404916  0.5004033922268506  0.49922502164407945  1.0000
  C   C19       1.0  0.36059496463376217  0.4994806223309141  0.4996049011470803  1.0000
  C   C20       1.0  0.8598565260043572  0.49960337145847694  0.5007794670228025  1.0000
  C   C21       1.0  0.6820101678073415  0.5002753817642117  0.5003383895192572  1.0000
  C   C22       1.0  0.5212524016409643  0.24739837473307355  0.7830693737546143  1.0000
  C   C23       1.0  0.18261525514602542  0.5003490186550011  0.49923959552373276  1.0000
  C   C24       1.0  0.3179822732644339  0.49973391294270203  0.4996550685225217  1.0000
  C   C25       1.0  0.8173758601324225  0.49965847190893  0.5007572395863564  1.0000
  C   C26       1.0  0.728356822877416  0.5000439662310825  0.5004370215290236  1.0000
  C   C27       1.0  0.22889996423301534  0.5002046107458186  0.4993709459666961  1.0000
  C   C28       1.0  0.27163356696929947  0.49996424871326894  0.499557844088308  1.0000
  C   C29       1.0  0.768151355380233  0.7830697517550151  0.7525803739913075  1.0000
  C   C30       1.0  0.7710920241241934  0.49980684507620055  0.5006269387702319  1.0000
  C   C31       1.0  0.45329896579205103  0.8827246006366637  0.12753003808122557  1.0000
  C   C32       1.0  0.5808254403426146  0.8827289502803383  0.8724269029684565  1.0000
  C   C33       1.0  0.4538826096019193  0.1276078324244736  0.8825570701484083  1.0000
  C   C34       1.0  0.3364458281374851  0.12774901571302882  0.11739300107582554  1.0000
  C   C35       1.0  0.5466617160911865  0.1173185929387657  0.8725344603230952  1.0000
  C   C36       1.0  0.4786665290441334  0.7526470590398732  0.21699119673258604  1.0000
  C   C37       1.0  0.6635540764625745  0.872213347322372  0.8826322565218168  1.0000
  C   C38       1.0  0.5461586443421138  0.8723390199061926  0.11738665603080996  1.0000
  C   C39       1.0  0.41919112501314254  0.1173182231224814  0.12751253861651438  1.0000
  C   C40       1.0  0.23188932912677976  0.21688748779860134  0.24744809940988693  1.0000
  C   C41       1.0  0.4532499984860364  0.8473230620457742  0.163107631033384  1.0000
  C   C42       1.0  0.616319778717127  0.8473332290861819  0.8368326496589946  1.0000
  C   C43       1.0  0.4538798068044017  0.16315827773581765  0.8471535439600828  1.0000
  C   C44       1.0  0.3010645862080992  0.16326190059427154  0.152835059899715  1.0000
  C   C45       1.0  0.5467076894550684  0.15272914975944477  0.8369619690591464  1.0000
  C   C46       1.0  0.6989321206833522  0.8366946905146051  0.8471974024931656  1.0000
  C   C47       1.0  0.5461770592882897  0.8367755695125183  0.15278190751091378  1.0000
  C   C48       1.0  0.38369516103092133  0.15271755598767106  0.16310467219823016  1.0000
  C   C49       1.0  0.5206961899604535  0.7831242634156795  0.2474185501164143  1.0000
  C   C50       1.0  0.4996981839058632  0.8237735076766487  0.17622441221494273  1.0000
  C   C51       1.0  0.675885351425478  0.8237639624066944  0.8237106874892888  1.0000
  C   C52       1.0  0.5003171612045634  0.176219150743151  0.823773975246155  1.0000
  C   C53       1.0  0.32412145441326606  0.17623917777350334  0.17628010382939863  1.0000
  C   C54       1.0  0.4997481699934169  0.8955590417405548  0.1044398222557419  1.0000
  C   C55       1.0  0.6041957590165195  0.8954909761312423  0.895562590870057  1.0000
  C   C56       1.0  0.5002305290525085  0.1044513386726607  0.8955768430692999  1.0000
  C   C57       1.0  0.3958079403143273  0.1045118143864343  0.10442174861470484  1.0000
  C   C58       1.0  0.9340066900502463  0.5658487441470968  0.5658134244132145  1.0000
  C   C59       1.0  0.5204967694907835  0.7474889449582064  0.2829360620422464  1.0000
  C   C60       1.0  0.731608597790398  0.7171465201707792  0.7472712630480418  1.0000
  C   C61       1.0  0.479631124932844  0.25245235050505954  0.717002838859159  1.0000
  C   C62       1.0  0.2683498154583004  0.282897486726185  0.2526925430014586  1.0000
  C   C63       1.0  0.5209632915960755  0.28288967828570577  0.7473949577836053  1.0000
  C   C64       1.0  0.5000319485530087  0.43415278300626164  0.5658482360399971  1.0000
  C   C65       1.0  0.8034990510133609  0.7473928445517333  0.7170953175696086  1.0000
  C   C66       1.0  0.47891974429948175  0.717182125142358  0.25269283665743825  1.0000
  C   C67       1.0  0.19653455461943972  0.2525618795895284  0.2829363845362423  1.0000
  C   C68       1.0  0.0659942185664448  0.4341457430062974  0.43418479796569187  1.0000
  C   C69       1.0  0.4997264565405643  0.7133320423480711  0.2868228805266072  1.0000
  C   C70       1.0  0.7865825298562468  0.7132836818229579  0.7131698030570135  1.0000
  C   C71       1.0  0.5002976693440714  0.2866631204953904  0.7131814691720066  1.0000
  C   C72       1.0  0.21340698707514605  0.2867151512916521  0.28683097293566817  1.0000
  C   C73       1.0  0.49967614026187596  0.7861225392588765  0.21393700312062688  1.0000
  C   C74       1.0  0.7136031304841735  0.7861147484113999  0.7859909597083148  1.0000
  C   C75       1.0  0.5003416762291835  0.2138686718880862  0.7860615902034594  1.0000
  C   C76       1.0  0.28639803804934155  0.21389129438881585  0.21399156048006063  1.0000
  C   C77       1.0  0.5403971884161294  0.6274830733849798  0.31283845241397057  1.0000
  C   C78       1.0  0.8318765940703867  0.6872691887870702  0.6273495639650336  1.0000
  C   C79       1.0  0.4595603266373587  0.37249237339303676  0.6871583216599646  1.0000
  C   C80       1.0  0.16816481843884648  0.3127306436773694  0.37264268135501066  1.0000
  C   C81       1.0  0.5408460646776446  0.3127321112655182  0.6273732620615535  1.0000
  C   C82       1.0  0.8532361082655908  0.6274408036479787  0.6871320320540095  1.0000
  C   C83       1.0  0.45924473891469136  0.6872784301857351  0.37264890573554504  1.0000
  C   C84       1.0  0.1467205902006228  0.3725440152267013  0.31287333203759005  1.0000
  C   C85       1.0  0.5403183365885126  0.5918851599240826  0.3482394195802599  1.0000
  C   C86       1.0  0.8675732544169963  0.6518312481174534  0.5917858549381878  1.0000
  C   C87       1.0  0.4596234428721999  0.40809355708620393  0.6517612600446939  1.0000
  C   C88       1.0  0.1324633712888854  0.3481675096827672  0.4082074047981266  1.0000
  C   C89       1.0  0.5406233141621685  0.3481842403097276  0.5918174588859133  1.0000
  C   C90       1.0  0.8884756913904679  0.591843358150527  0.6517386080515237  1.0000
  C   C91       1.0  0.4594375142166527  0.6518332079496505  0.4082030842780071  1.0000
  C   C92       1.0  0.11148998032086141  0.40814108152918754  0.3482700737686101  1.0000
  C   C93       1.0  0.4999134591107436  0.6038840313462616  0.3961788373446494  1.0000
  C   C94       1.0  0.8959316539550103  0.6038691298461744  0.6038171931264599  1.0000
  C   C95       1.0  0.5000857268328147  0.3961115249355204  0.6038376556342798  1.0000
  C   C96       1.0  0.10406520225770068  0.3961275246126661  0.3961855319775864  1.0000
  I   I1        1.0  0.5539295161859527  0.7457057705326804  0.3310512184451184  1.0000
  I   I2        1.0  0.6999820623873843  0.6691104283020338  0.7453244507473472  1.0000
  I   I3        1.0  0.44634390537819985  0.2541697014022333  0.6687999018109352  1.0000
  I   I4        1.0  0.2999247301569243  0.33099431793893064  0.25457969162110333  1.0000
  I   I5        1.0  0.5542184553632268  0.3311090424900129  0.7456466998354755  1.0000
  I   I6        1.0  0.8851114045380511  0.7455717166079197  0.6690458329761813  1.0000
  I   I7        1.0  0.44542202031186684  0.6690950667665732  0.25459186304385634  1.0000
  I   I8        1.0  0.11496177178689489  0.254325205932183  0.3310098205221763  1.0000
  O   O1        1.0  0.46953554129327557  0.5798259807975442  0.478220326687115  1.0000
  O   O2        1.0  0.9505136393801052  0.5217815920164028  0.579800077425432  1.0000
  O   O3        1.0  0.5304857511726766  0.42017350595502023  0.5217947902511001  1.0000
  O   O4        1.0  0.04947741309403844  0.4782114691242542  0.4201985418142371  1.0000
  O   O5        1.0  0.469541474008878  0.47821076385743316  0.5798549678140503  1.0000
  O   O6        1.0  0.9476607229451302  0.5798467315997088  0.5217631320233167  1.0000
  O   O7        1.0  0.5304097280833702  0.5217906533975879  0.4201542220121513  1.0000
  O   O8        1.0  0.05234459005539792  0.4201495532810571  0.4782329317029265  1.0000
  O   O9        1.0  0.540911747060143  0.5288823351807893  0.528919709111932  1.0000
  O   O10       1.0  0.07155367568632441  0.4704549022308555  0.5295392268476179  1.0000
  O   O11       1.0  0.6009849839855123  0.4704541822080516  0.47041029513570004  1.0000
  O   O12       1.0  0.0698734353564489  0.5288787479073562  0.471037924953393  1.0000
  O   O13       1.0  0.3990103641876315  0.5295655849707758  0.5295634271719578  1.0000
  O   O14       1.0  0.9284365994444028  0.5295522258322195  0.4704613413875693  1.0000
  O   O15       1.0  0.45908599628565855  0.4710919410331869  0.4710982880083918  1.0000
  O   O16       1.0  0.9301257265363674  0.4711233234918738  0.5289528311264109  1.0000
  O   O17       1.0  0.5911836485694194  0.9476439469407865  0.9489063658124764  1.0000
  O   O18       1.0  0.5398021142306817  0.05062483923595101  0.9482006059097543  1.0000
  O   O19       1.0  0.487999105787395  0.0506363641813792  0.051837371800786576  1.0000
  O   O20       1.0  0.5400674553156717  0.9477150638411448  0.0510892260622953  1.0000
  O   O21       1.0  0.5119967695549403  0.9493548854248745  0.9481608524468826  1.0000
  O   O22       1.0  0.46017076457311396  0.9493797790039907  0.05181731865550898  1.0000
  O   O23       1.0  0.4088180533278774  0.05235415690728471  0.05107917542088805  1.0000
  O   O24       1.0  0.45992191755064493  0.05227656246899671  0.9489036163931386  1.0000
