data_image0
_chemical_formula_structural       Ag4H28C20N12Cl4O16
_chemical_formula_sum              "Ag4 H28 C20 N12 Cl4 O16"
_cell_length_a       9.073499981685892
_cell_length_b       10.760799030260547
_cell_length_c       11.384042984591645
_cell_angle_alpha    87.16993820736084
_cell_angle_beta     66.53568956454617
_cell_angle_gamma    65.04613897363245

_space_group_name_H-M_alt    "P 1"
_space_group_IT_number       1

loop_
  _space_group_symop_operation_xyz
  'x, y, z'

loop_
  _atom_site_type_symbol
  _atom_site_label
  _atom_site_symmetry_multiplicity
  _atom_site_fract_x
  _atom_site_fract_y
  _atom_site_fract_z
  _atom_site_occupancy
  Ag  Ag1       1.0  0.3906836161011995  0.7500727185147725  0.7499976642694719  1.0000
  Ag  Ag2       1.0  0.6093187890242364  0.24992500690649422  0.2500021997391001  1.0000
  Ag  Ag3       1.0  0.5000008389372042  5.237047702017079e-07  0.5000011492796972  1.0000
  Ag  Ag4       1.0  0.5000007027258349  0.5000008111645471  0.9999995240174187  1.0000
  H   H1        1.0  0.9827926718299554  0.8438066502455612  0.8607828862210026  1.0000
  H   H2        1.0  0.18769727428430377  0.6562911344689438  0.6390544433181162  1.0000
  H   H3        1.0  0.017207961660481885  0.1561920962204013  0.1392165956079481  1.0000
  H   H4        1.0  0.8123045670091357  0.34370760067156425  0.36094465271124687  1.0000
  H   H5        1.0  0.8254800425411727  0.8300944235929748  0.01066458365341561  1.0000
  H   H6        1.0  0.16639831504581776  0.6700524708009254  0.48919259926149294  1.0000
  H   H7        1.0  0.17452058095619088  0.1699043483478064  0.989335778308714  1.0000
  H   H8        1.0  0.8336011006485367  0.3299463124653029  0.5108081485002246  1.0000
  H   H9        1.0  0.02585779882559064  0.6816095206681042  0.9183770870910877  1.0000
  H   H10       1.0  0.1258519930424455  0.8185496804842599  0.5815768214719412  1.0000
  H   H11       1.0  0.9741445963067791  0.31838823022798124  0.08162365705067012  1.0000
  H   H12       1.0  0.8741456410238371  0.1814501493014831  0.41842442424333376  1.0000
  H   H13       1.0  0.41141255564475904  0.8375489033585168  0.01987314229123875  1.0000
  H   H14       1.0  0.7689860659961026  0.6625470065187642  0.48008002756363766  1.0000
  H   H15       1.0  0.5885904033196141  0.1624478378183198  0.9801283698297284  1.0000
  H   H16       1.0  0.23101393351640098  0.3374507160785782  0.5199197279109171  1.0000
  H   H17       1.0  0.15176015169544826  0.9019493283659443  0.24134566121969675  1.0000
  H   H18       1.0  0.7950821769085439  0.5980272439233046  0.25862493082944127  1.0000
  H   H19       1.0  0.8482369085457647  0.09805153661387321  0.7586556966495551  1.0000
  H   H20       1.0  0.20491490331880158  0.4019735701068683  0.7413746667734386  1.0000
  H   H21       1.0  0.733130471336537  0.8947868943051418  0.21892493122622628  1.0000
  H   H22       1.0  0.34681767174867406  0.6052135930246436  0.28108822004563194  1.0000
  H   H23       1.0  0.2668655014073877  0.1052181001254766  0.7810764894593376  1.0000
  H   H24       1.0  0.6531812602526726  0.39478820807387643  0.7189098379788703  1.0000
  H   H25       1.0  0.8404839445271792  0.9626187477408407  0.5055824199803424  1.0000
  H   H26       1.0  0.8085832996296317  0.5372980085740553  0.9944598583654454  1.0000
  H   H27       1.0  0.1595185207511207  0.0373810367431062  0.49441728253659534  1.0000
  H   H28       1.0  0.19141732386773214  0.4627007633667332  0.005540503596684185  1.0000
  C   C1        1.0  0.28412258072361124  0.8377967529714853  0.039372024697549045  1.0000
  C   C2        1.0  0.6614188230420837  0.6623252925219418  0.46059191924272375  1.0000
  C   C3        1.0  0.7158756973136704  0.1622040752080522  0.960628067238929  1.0000
  C   C4        1.0  0.33857940483540727  0.33767345112010366  0.5394074540522098  1.0000
  C   C5        1.0  0.063325826372555  0.8227838590954519  0.015720159828248453  1.0000
  C   C6        1.0  0.40191720861166413  0.6774343886060307  0.4842019036303284  1.0000
  C   C7        1.0  0.9366747369719447  0.17721285378264892  0.9842803636255227  1.0000
  C   C8        1.0  0.5980804956005485  0.3225674747675811  0.5157983004601262  1.0000
  C   C9        1.0  0.0067306942354576765  0.8630689333312629  0.1470455439814984  1.0000
  C   C10       1.0  0.516903504682574  0.6370010656913082  0.352904885276736  1.0000
  C   C11       1.0  0.9932663460196167  0.1369319825981847  0.8529575741541182  1.0000
  C   C12       1.0  0.4830947833477807  0.3629997370134106  0.6470943265265562  1.0000
  C   C13       1.0  0.8339347900563536  0.8963382929909472  0.2476023441094313  1.0000
  C   C14       1.0  0.47784103190416255  0.6036200955519461  0.25240511619126954  1.0000
  C   C15       1.0  0.166065963739797  0.10366457160037611  0.7523968147362511  1.0000
  C   C16       1.0  0.5221573162790492  0.3963827662154529  0.7475939341203954  1.0000
  C   C17       1.0  0.9682502164345408  0.7936763538058785  0.9485321452761469  1.0000
  C   C18       1.0  0.2106056183840438  0.7065078913819888  0.5513358259180591  1.0000
  C   C19       1.0  0.031749843230819884  0.2063234278541515  0.0514674487067737  1.0000
  C   C20       1.0  0.7893932334783146  0.2934919016034883  0.4486641538644491  1.0000
  N   N1        1.0  0.2355812105304621  0.8082657517024074  0.9511380373542836  1.0000
  N   N2        1.0  0.4951031923696121  0.6919652004123904  0.5488000332794059  1.0000
  N   N3        1.0  0.764419976798905  0.19173201051913216  0.048863092587062285  1.0000
  N   N4        1.0  0.504895659492739  0.3080345925730867  0.45119994650310247  1.0000
  N   N5        1.0  0.150008551158983  0.8705983139475463  0.15803111596781594  1.0000
  N   N6        1.0  0.6786939717591736  0.6294628663859784  0.3419355788320004  1.0000
  N   N7        1.0  0.8499926461634503  0.12939942279916752  0.8419691338403438  1.0000
  N   N8        1.0  0.3213055240741838  0.3705379249933003  0.6580632471717109  1.0000
  N   N9        1.0  0.7755445286994203  0.9323813652113845  0.370827374311105  1.0000
  N   N10       1.0  0.578696231659066  0.5675025075262995  0.1291877478647834  1.0000
  N   N11       1.0  0.2244561549508077  0.0676194657920774  0.6291728261593974  1.0000
  N   N12       1.0  0.4213032441881521  0.4324983348026167  0.8708128384052998  1.0000
  Cl  Cl1       1.0  0.662341512041749  0.9457117492284228  0.755448625907249  1.0000
  Cl  Cl2       1.0  0.8635574143523428  0.5544105285235048  0.7445732036931786  1.0000
  Cl  Cl3       1.0  0.337661507075488  0.05428705101109439  0.24455272472208386  1.0000
  Cl  Cl4       1.0  0.13644631888181635  0.44559130369767536  0.2554259515325441  1.0000
  O   O1        1.0  0.9011927815133945  0.9356660893049733  0.40873737398896987  1.0000
  O   O2        1.0  0.745493959250254  0.5642101494192958  0.09131306395049422  1.0000
  O   O3        1.0  0.09880905978003801  0.0643326458355418  0.5912617220403931  1.0000
  O   O4        1.0  0.25450551659696435  0.4357906929096131  0.9086875223195889  1.0000
  O   O5        1.0  0.7741760541862561  0.013119285465620602  0.6621330205900122  1.0000
  O   O6        1.0  0.9495489868357299  0.4871046752440619  0.837948810221313  1.0000
  O   O7        1.0  0.22582164003289054  0.9868826033828101  0.3378680636336284  1.0000
  O   O8        1.0  0.05045279430484584  0.5128920008337727  0.16205044729968418  1.0000
  O   O9        1.0  0.6266779651115114  0.8694771819013166  0.6712951108614645  1.0000
  O   O10       1.0  0.6674920819427187  0.6304805485300164  0.8286878223349062  1.0000
  O   O11       1.0  0.3733232623845737  0.1305226903325405  0.3287076178546187  1.0000
  O   O12       1.0  0.3325115008120747  0.3695150300786594  0.1713091769661617  1.0000
  O   O13       1.0  0.4905636703213361  0.06031791788579001  0.8435492985806975  1.0000
  O   O14       1.0  0.8947252650509228  0.4397522767318663  0.6564154100463214  1.0000
  O   O15       1.0  0.5094380608538955  0.9396788855661382  0.15645435960622212  1.0000
  O   O16       1.0  0.10528646909046559  0.5602524176189972  0.3435757144455494  1.0000
