data_image0
_chemical_formula_structural       Cd8H128C192S8N32O48
_chemical_formula_sum              "Cd8 H128 C192 S8 N32 O48"
_cell_length_a       14.490187553512145
_cell_length_b       19.912425623165465
_cell_length_c       20.457065976077494
_cell_angle_alpha    89.99953151566721
_cell_angle_beta     95.46759333148252
_cell_angle_gamma    90.00005420201384

_space_group_name_H-M_alt    "P 1"
_space_group_IT_number       1

loop_
  _space_group_symop_operation_xyz
  'x, y, z'

loop_
  _atom_site_type_symbol
  _atom_site_label
  _atom_site_symmetry_multiplicity
  _atom_site_fract_x
  _atom_site_fract_y
  _atom_site_fract_z
  _atom_site_occupancy
  Cd  Cd1       1.0  0.37626002887903814  0.4548067930889631  0.6665107703654698  1.0000
  Cd  Cd2       1.0  0.13884179172582384  0.5451839326326889  0.6717156079708388  1.0000
  Cd  Cd3       1.0  0.12372808910163259  0.9548124952463437  0.3334856809758194  1.0000
  Cd  Cd4       1.0  0.36116223257530317  0.04518207587364739  0.3282938732535285  1.0000
  Cd  Cd5       1.0  0.6237211033645665  0.5451835023771635  0.3334855380591791  1.0000
  Cd  Cd6       1.0  0.8611568301355208  0.45482092654739137  0.3282954678863632  1.0000
  Cd  Cd7       1.0  0.8762730513929426  0.04518935083264349  0.6665035523765469  1.0000
  Cd  Cd8       1.0  0.6388231157200012  0.9548232855417639  0.671707583865235  1.0000
  H   H1        1.0  0.3914650905590733  0.5274964690323711  0.3367554631392977  1.0000
  H   H2        1.0  0.3370501725698177  0.41214476553885504  0.0015654152082405094  1.0000
  H   H3        1.0  0.09645172007092381  0.472867662447122  0.3390374384591937  1.0000
  H   H4        1.0  0.1706553457701858  0.5838525212636795  0.013937029497462599  1.0000
  H   H5        1.0  0.34820090167615086  0.5659120525600657  0.2447291381714507  1.0000
  H   H6        1.0  0.36073080371491534  0.5908532597865629  0.1272833342117892  1.0000
  H   H7        1.0  0.38408491498707065  0.379014349655712  0.08782492486774629  1.0000
  H   H8        1.0  0.36632346915967423  0.3543548778829261  0.20444617014505442  1.0000
  H   H9        1.0  0.40404372941689815  0.563464543903038  0.5567920810059306  1.0000
  H   H10       1.0  0.4001025264787615  0.5766568160317077  0.43568325754262827  1.0000
  H   H11       1.0  0.3235336676674052  0.3672675126151929  0.4171956373632142  1.0000
  H   H12       1.0  0.32978908853814193  0.36298826391355726  0.5394782823767699  1.0000
  H   H13       1.0  0.42511986603256696  0.5511160092649731  0.7881105697410505  1.0000
  H   H14       1.0  0.41334580952358385  0.5602419591831661  0.9087970181541039  1.0000
  H   H15       1.0  0.31961956939193936  0.3540184563652673  0.9036934766699217  1.0000
  H   H16       1.0  0.3318153862516908  0.3549098716140335  0.7825759586129806  1.0000
  H   H17       1.0  0.1194313542880963  0.646148970866868  0.2076940689005937  1.0000
  H   H18       1.0  0.1052878109753621  0.6203007848246286  0.0884373593223486  1.0000
  H   H19       1.0  0.12095159691567402  0.40880954147106496  0.1331486101011521  1.0000
  H   H20       1.0  0.12926861073150772  0.43452464511724975  0.25188866306466917  1.0000
  H   H21       1.0  0.16521459257077004  0.6387245468191053  0.5482901598135683  1.0000
  H   H22       1.0  0.1648950559097955  0.6342037633963995  0.42627578150774775  1.0000
  H   H23       1.0  0.09299406058227792  0.4242157161989865  0.4372286298253272  1.0000
  H   H24       1.0  0.09403576181072991  0.43783032432077823  0.5580106966147582  1.0000
  H   H25       1.0  0.2001845646909857  0.6407654476829663  0.7977617486525118  1.0000
  H   H26       1.0  0.20067641964789834  0.6415327954820925  0.9198806392314721  1.0000
  H   H27       1.0  0.09605355296770311  0.4382039966070152  0.9070840119293351  1.0000
  H   H28       1.0  0.09901467540493772  0.4465907301797856  0.7856475677227266  1.0000
  H   H29       1.0  0.2458249011471239  0.7106781550640308  0.6631117819556351  1.0000
  H   H30       1.0  0.3172634555522435  0.8330409727370378  0.6624399795337368  1.0000
  H   H31       1.0  0.26681002379387314  0.28920013868744127  0.6605482064756032  1.0000
  H   H32       1.0  0.19511904724371476  0.1670442366118792  0.6589195621080322  1.0000
  H   H33       1.0  0.10852771126890566  0.02749866038285379  0.6632427108629529  1.0000
  H   H34       1.0  0.16295250608165193  0.9121443861117196  0.9984337400243674  1.0000
  H   H35       1.0  0.4035496946170554  0.9728637506880272  0.6609699563861042  1.0000
  H   H36       1.0  0.32934584526999805  0.08384861605675552  0.9860656151556527  1.0000
  H   H37       1.0  0.15180298840073903  0.0659124912683353  0.7552679492470205  1.0000
  H   H38       1.0  0.1392737938082931  0.09085370513818698  0.8727140879308096  1.0000
  H   H39       1.0  0.1159226277057854  0.8790156718838205  0.9121767487953533  1.0000
  H   H40       1.0  0.1336854572494062  0.854357194218963  0.7955562733566524  1.0000
  H   H41       1.0  0.09594698235493841  0.0634655685878371  0.44320372332894914  1.0000
  H   H42       1.0  0.09988682026192922  0.07665682249616879  0.5643138244290995  1.0000
  H   H43       1.0  0.17647453034066274  0.8672766710553077  0.5828032368192524  1.0000
  H   H44       1.0  0.17022121602881407  0.862994933595182  0.4605232000390487  1.0000
  H   H45       1.0  0.074878472952129  0.051122987771201195  0.21188629226136163  1.0000
  H   H46       1.0  0.0866560214632202  0.060242429284684804  0.09120194248021822  1.0000
  H   H47       1.0  0.18038171980838064  0.8540171537032321  0.0963075202926191  1.0000
  H   H48       1.0  0.16817830573204162  0.8549140690406669  0.21742700642020196  1.0000
  H   H49       1.0  0.38056431205549063  0.14614321563090021  0.792307740607498  1.0000
  H   H50       1.0  0.39471337558608616  0.12029554003491676  0.9115635294672019  1.0000
  H   H51       1.0  0.3790511258161261  0.908804883411065  0.8668544850796563  1.0000
  H   H52       1.0  0.3707299725913344  0.9345229913344185  0.748114950284311  1.0000
  H   H53       1.0  0.3347790310417694  0.1387251485683407  0.45171500434297224  1.0000
  H   H54       1.0  0.3350950885815251  0.13420082601878386  0.5737282260199521  1.0000
  H   H55       1.0  0.4070156282240589  0.924217656180133  0.562777217468188  1.0000
  H   H56       1.0  0.40597323840439975  0.9378347881926035  0.4419950001817838  1.0000
  H   H57       1.0  0.29981587909547613  0.1407600947341621  0.2022340435308436  1.0000
  H   H58       1.0  0.2993275189322944  0.14152545823687748  0.0801178068720816  1.0000
  H   H59       1.0  0.4039672552929828  0.9382003528093957  0.0929243663604495  1.0000
  H   H60       1.0  0.4009992145001605  0.9465915852283613  0.2143612945781896  1.0000
  H   H61       1.0  0.2541714692409371  0.2106816823962205  0.3368885815375151  1.0000
  H   H62       1.0  0.18273643430632086  0.33304394705445617  0.3375606085342824  1.0000
  H   H63       1.0  0.23318918041051973  0.7891978245648515  0.339454642345153  1.0000
  H   H64       1.0  0.30487926925286507  0.6670449673220273  0.3410710018530452  1.0000
  H   H65       1.0  0.6085242985439693  0.4724973418497952  0.6632359777673146  1.0000
  H   H66       1.0  0.66295309856163  0.5878616003126139  0.9984283492787823  1.0000
  H   H67       1.0  0.9035489306737502  0.5271321747617322  0.6609693630798361  1.0000
  H   H68       1.0  0.8293494588422234  0.4161493247434223  0.9860695396541955  1.0000
  H   H69       1.0  0.6518044774786488  0.4340872824953835  0.7552672007202261  1.0000
  H   H70       1.0  0.6392787575721285  0.40914858625581735  0.8727152182601258  1.0000
  H   H71       1.0  0.6159307951340836  0.6209864920219984  0.9121661857271519  1.0000
  H   H72       1.0  0.6336880870937378  0.6456439549965366  0.7955451728372153  1.0000
  H   H73       1.0  0.5959436081912841  0.43653428895859037  0.4432016774431702  1.0000
  H   H74       1.0  0.5998876011015143  0.4233415146249086  0.5643121396998865  1.0000
  H   H75       1.0  0.6764564090361347  0.63272629826907  0.5827953571518876  1.0000
  H   H76       1.0  0.6702010107776246  0.6370095645543755  0.4605146688981279  1.0000
  H   H77       1.0  0.5748806207779609  0.4488808148096835  0.21188204518620068  1.0000
  H   H78       1.0  0.5866560751005849  0.43976139347429205  0.0911966607400103  1.0000
  H   H79       1.0  0.6803782178935834  0.645984394070318  0.09630532654480818  1.0000
  H   H80       1.0  0.6681754515407833  0.6450894634344168  0.21742094900973546  1.0000
  H   H81       1.0  0.8805692794984382  0.35385387954209335  0.7923112650447593  1.0000
  H   H82       1.0  0.8947141923589328  0.37970005679463276  0.9115665926540187  1.0000
  H   H83       1.0  0.879052474872566  0.5911887891574921  0.8668544919045473  1.0000
  H   H84       1.0  0.8707347847627745  0.5654782052959817  0.7481158637025018  1.0000
  H   H85       1.0  0.8347880983635889  0.361273783807313  0.451713345781222  1.0000
  H   H86       1.0  0.8351055552647751  0.36579657602585763  0.5737275956718477  1.0000
  H   H87       1.0  0.9070114316301954  0.5757836188152651  0.562777492944754  1.0000
  H   H88       1.0  0.9059662754407896  0.5621700150871405  0.44199619052711364  1.0000
  H   H89       1.0  0.7998111880568645  0.35923388734310174  0.2022408397202327  1.0000
  H   H90       1.0  0.7993311184072455  0.3584655351466637  0.08012267678630991  1.0000
  H   H91       1.0  0.9039589000423902  0.5617918230044125  0.0929249848484019  1.0000
  H   H92       1.0  0.9009866742452177  0.5534045872361517  0.21435976583051541  1.0000
  H   H93       1.0  0.7541687266170882  0.2893186689834621  0.3368867644684315  1.0000
  H   H94       1.0  0.6827406105831173  0.16695735789357966  0.3375626332780399  1.0000
  H   H95       1.0  0.7331898658628972  0.7108002007450764  0.3394526819319807  1.0000
  H   H96       1.0  0.8048773704932728  0.8329561028225071  0.3410806230935535  1.0000
  H   H97       1.0  0.8914707466592448  0.9725087098518941  0.3367541783606285  1.0000
  H   H98       1.0  0.8370563619508076  0.08785042914479388  0.0015647696729387984  1.0000
  H   H99       1.0  0.5964509165574228  0.0271360865352364  0.33903342079548093  1.0000
  H   H100      1.0  0.6706463903348308  0.9161497145896857  0.013932356463705286  1.0000
  H   H101      1.0  0.8482072604868877  0.9340898569751346  0.2447301568314089  1.0000
  H   H102      1.0  0.8607364946493521  0.9091476386928858  0.1272874425090293  1.0000
  H   H103      1.0  0.8840959402212791  0.12098014777326677  0.08782187093787291  1.0000
  H   H104      1.0  0.8663309970012492  0.145644651838218  0.20443928278197632  1.0000
  H   H105      1.0  0.9040403722125846  0.9365372818595216  0.5567915026860248  1.0000
  H   H106      1.0  0.9001054040381647  0.9233475345422447  0.4356831687785884  1.0000
  H   H107      1.0  0.8235384746037228  0.13273672557223648  0.41719357284338093  1.0000
  H   H108      1.0  0.8297855665926905  0.13701193443898768  0.5394746920094278  1.0000
  H   H109      1.0  0.9251220590829308  0.9488823736697752  0.7881102361834991  1.0000
  H   H110      1.0  0.9133514657157137  0.9397543947656359  0.9087969707982353  1.0000
  H   H111      1.0  0.8196188574478498  0.14597715934352348  0.9036929217472932  1.0000
  H   H112      1.0  0.8318118840303798  0.14508677258823607  0.7825737719455077  1.0000
  H   H113      1.0  0.6194356341287418  0.8538490885972081  0.20769803977106696  1.0000
  H   H114      1.0  0.6052907131598602  0.8796972663985867  0.08844104014210788  1.0000
  H   H115      1.0  0.6209494344812826  0.0911884252438924  0.1331444893824667  1.0000
  H   H116      1.0  0.6292706216242437  0.06547533929806089  0.2518869593214745  1.0000
  H   H117      1.0  0.6652195569026986  0.8612822216190356  0.5482931363407815  1.0000
  H   H118      1.0  0.6649111138431537  0.8657995133873087  0.4262794071303375  1.0000
  H   H119      1.0  0.5929925861263285  0.07578368764876589  0.4372246737583295  1.0000
  H   H120      1.0  0.5940294186143831  0.062173586425942076  0.5580055702097653  1.0000
  H   H121      1.0  0.700167975286469  0.8592347205415437  0.7977580333403154  1.0000
  H   H122      1.0  0.7006633132060927  0.8584668460278024  0.9198786115845223  1.0000
  H   H123      1.0  0.5960403110265773  0.0617979778090572  0.9070813956269249  1.0000
  H   H124      1.0  0.5990041979526026  0.0534102607807156  0.7856446997747142  1.0000
  H   H125      1.0  0.7458243343828742  0.7893176526113095  0.6631184095805196  1.0000
  H   H126      1.0  0.8172635062261407  0.6669548857625642  0.6624446826245389  1.0000
  H   H127      1.0  0.7668101007864722  0.21080452363268168  0.6605535411608798  1.0000
  H   H128      1.0  0.6951177682503556  0.33295738093512023  0.6589228666220492  1.0000
  C   C1        1.0  0.3398247641558072  0.4366904918633807  0.3003064713430987  1.0000
  C   C2        1.0  0.37628042612592344  0.5074369194815488  0.0292022760163348  1.0000
  C   C3        1.0  0.35538887022364923  0.4578147811146209  0.231893401204772  1.0000
  C   C4        1.0  0.3549588034973965  0.5246932125781142  0.2105016165902924  1.0000
  C   C5        1.0  0.36161936767595654  0.539102083609741  0.1445887595371929  1.0000
  C   C6        1.0  0.369491423836557  0.4874295180215568  0.09892803709041693  1.0000
  C   C7        1.0  0.3728301740887332  0.42053400975692073  0.1210210053979495  1.0000
  C   C8        1.0  0.3651536822705595  0.405959916072817  0.1866643569451085  1.0000
  C   C9        1.0  0.38527456444816016  0.5213588052204301  0.5242779241566922  1.0000
  C   C10       1.0  0.3832363248559361  0.5286002952923212  0.45700089386323833  1.0000
  C   C11       1.0  0.3603062185028421  0.4730959219948471  0.4160138716172952  1.0000
  C   C12       1.0  0.3408543839068372  0.41182851605336884  0.4463020760584939  1.0000
  C   C13       1.0  0.34453413730905424  0.40960800856591817  0.5143902385578656  1.0000
  C   C14       1.0  0.4008672613734561  0.5088382637511372  0.8156448694189962  1.0000
  C   C15       1.0  0.3953923271499633  0.5139197306576477  0.8827840367350673  1.0000
  C   C16       1.0  0.3660562107900134  0.45759494988687505  0.9164294176917025  1.0000
  C   C17       1.0  0.3432060060664668  0.3990537608053372  0.8798391233376393  1.0000
  C   C18       1.0  0.34979808482263053  0.3991047680118739  0.8126760291748027  1.0000
  C   C19       1.0  0.1429276693624715  0.5645070715283111  0.3077543924823162  1.0000
  C   C20       1.0  0.11538515545752401  0.4920544677072699  0.0325992165596531  1.0000
  C   C21       1.0  0.1265557627902467  0.5427832388364706  0.23743815728228407  1.0000
  C   C22       1.0  0.11954660914882712  0.5943668036936103  0.1904515201141948  1.0000
  C   C23       1.0  0.11417595217356791  0.5793061346507854  0.12393283238248638  1.0000
  C   C24       1.0  0.11686374206429662  0.5121536816030597  0.1030014781518176  1.0000
  C   C25       1.0  0.1203846636365427  0.4607252954533864  0.1499115784214311  1.0000
  C   C26       1.0  0.12496823748210062  0.4756584049863761  0.2166006735830095  1.0000
  C   C27       1.0  0.1494895220355942  0.5919819810414566  0.5216609664255357  1.0000
  C   C28       1.0  0.1496454653185069  0.5896540725339463  0.4538032881563794  1.0000
  C   C29       1.0  0.1298937996972782  0.528071548979227  0.4215746497916228  1.0000
  C   C30       1.0  0.11016573765008529  0.47244179310424517  0.4603316358968499  1.0000
  C   C31       1.0  0.11089703681825111  0.4799734909058343  0.5274540997339017  1.0000
  C   C32       1.0  0.17794880145994094  0.5968319579671829  0.8240562113281412  1.0000
  C   C33       1.0  0.17750392173044102  0.5970355649362985  0.891849129577274  1.0000
  C   C34       1.0  0.14735199766091972  0.5395361477050001  0.923778651517516  1.0000
  C   C35       1.0  0.11971635951017838  0.4837163832282839  0.8848627142595334  1.0000
  C   C36       1.0  0.12220810895269811  0.4884087134111537  0.817409289519958  1.0000
  C   C37       1.0  0.3776835968210079  0.5989509368544359  0.6720790208861231  1.0000
  C   C38       1.0  0.9970982407529619  0.15527542188745258  0.6671988819508385  1.0000
  C   C39       1.0  0.3877542691966839  0.6725838672217819  0.669862761378262  1.0000
  C   C40       1.0  0.3196992537820195  0.7219490212296763  0.6652647911967549  1.0000
  C   C41       1.0  0.3579519064275658  0.7870942883808352  0.6647152327529184  1.0000
  C   C42       1.0  0.4541349549641184  0.7865730183907758  0.6689481283849688  1.0000
  C   C43       1.0  0.1376972920413024  0.400924762691659  0.6715330826945589  1.0000
  C   C44       1.0  0.5172684187807307  0.844915494656476  0.6710693813696196  1.0000
  C   C45       1.0  0.1268894147156416  0.32733906132041557  0.6684042583700744  1.0000
  C   C46       1.0  0.193586988296218  0.27800207157784473  0.6631420088914055  1.0000
  C   C47       1.0  0.1550404538951113  0.21288895194555119  0.6620597455181283  1.0000
  C   C48       1.0  0.06003632145181831  0.2134814984963  0.6663859850271336  1.0000
  C   C49       1.0  0.16017241079073594  0.9366911218644842  0.6996950824855901  1.0000
  C   C50       1.0  0.12371307339230242  0.007437030564560097  0.9707970778451623  1.0000
  C   C51       1.0  0.1446186994509233  0.9578153268969274  0.7681076491903269  1.0000
  C   C52       1.0  0.1450465041957258  0.024693860726458197  0.7894997960034614  1.0000
  C   C53       1.0  0.13838316063147724  0.039102172038788297  0.8554113894944778  1.0000
  C   C54       1.0  0.13050574587174418  0.9874294364610066  0.9010711586456993  1.0000
  C   C55       1.0  0.12716974572769152  0.9205346144825909  0.8789788906543236  1.0000
  C   C56       1.0  0.13485592114461303  0.9059625854961622  0.8133347860246688  1.0000
  C   C57       1.0  0.11471683181257931  0.021359567735743202  0.47571874521039353  1.0000
  C   C58       1.0  0.11674884590985361  0.028601998677608292  0.54299631138975  1.0000
  C   C59       1.0  0.13968400245850887  0.9730990208428522  0.583984031065647  1.0000
  C   C60       1.0  0.1591461979186235  0.9118343934650001  0.5536954856617342  1.0000
  C   C61       1.0  0.15546991002300103  0.9096139553001237  0.48560755473724987  1.0000
  C   C62       1.0  0.09912551710682042  0.008838458858285499  0.18435198458624308  1.0000
  C   C63       1.0  0.1045997541643402  0.0139220016736346  0.11721224507381578  1.0000
  C   C64       1.0  0.13393749374129982  0.9575932230142997  0.0835707784028372  1.0000
  C   C65       1.0  0.15679253119402867  0.8990547531847356  0.1201618353938869  1.0000
  C   C66       1.0  0.15019559968158086  0.8991051901735428  0.1873246295386224  1.0000
  C   C67       1.0  0.3570700713973665  0.06449762494813169  0.6922501479689132  1.0000
  C   C68       1.0  0.3846196642326163  0.9920514767369183  0.9674023702092285  1.0000
  C   C69       1.0  0.37343643015788075  0.04277873416471321  0.7625667017483977  1.0000
  C   C70       1.0  0.3804518237837655  0.0943629118547875  0.809551848554449  1.0000
  C   C71       1.0  0.3858266294696122  0.07930268998658359  0.8760704230271443  1.0000
  C   C72       1.0  0.38313741877257  0.012148552235288396  0.8970012444133247  1.0000
  C   C73       1.0  0.3796153038577543  0.960718770235715  0.8500909349300727  1.0000
  C   C74       1.0  0.3750324453374461  0.9756519367228973  0.7834032320391984  1.0000
  C   C75       1.0  0.350508250745591  0.09198538148959301  0.47834531343810477  1.0000
  C   C76       1.0  0.3503509088522705  0.08965288339079787  0.5462019461453024  1.0000
  C   C77       1.0  0.37010947461509147  0.0280695985008421  0.5784305212356174  1.0000
  C   C78       1.0  0.3898412003084389  0.9724429125453752  0.5396741479405947  1.0000
  C   C79       1.0  0.38910851721286127  0.9799771843892415  0.47255153891666885  1.0000
  C   C80       1.0  0.3220572015750419  0.09682784506924239  0.1759427167306384  1.0000
  C   C81       1.0  0.32250140507971997  0.09703252587130609  0.10815122164617463  1.0000
  C   C82       1.0  0.35265818484591444  0.039531387994351505  0.0762244108962733  1.0000
  C   C83       1.0  0.3802995946020289  0.9837130393994119  0.11514353685072358  1.0000
  C   C84       1.0  0.377802289433717  0.9884073105085064  0.1825956036615395  1.0000
  C   C85       1.0  0.12232038936225112  0.09895345200735049  0.3279251431122816  1.0000
  C   C86       1.0  0.5028972251489421  0.655275529355329  0.3327796394633111  1.0000
  C   C87       1.0  0.1122463098493469  0.17258585512163194  0.3301435413749019  1.0000
  C   C88       1.0  0.18029921718387953  0.22195151561018633  0.3347370791427053  1.0000
  C   C89       1.0  0.14204795639282963  0.2870977583578096  0.3352847403400503  1.0000
  C   C90       1.0  0.0458641861599887  0.28657646325866176  0.3310493600590618  1.0000
  C   C91       1.0  0.3622949387449666  0.9009266403817191  0.328461605686016  1.0000
  C   C92       1.0  0.9827329350742177  0.34491873131700146  0.3289319529977064  1.0000
  C   C93       1.0  0.37310543387118866  0.8273389107211526  0.3315799317932289  1.0000
  C   C94       1.0  0.3064099909917389  0.7780003278477351  0.3368485702428147  1.0000
  C   C95       1.0  0.3449564917923809  0.7128902366540116  0.3379303702277099  1.0000
  C   C96       1.0  0.43995851076071096  0.7134803687326822  0.3336010624707412  1.0000
  C   C97       1.0  0.660169511638543  0.5633053278026452  0.6996882043359918  1.0000
  C   C98       1.0  0.62372080481574  0.4925704507533624  0.9707947844169099  1.0000
  C   C99       1.0  0.6446171795729114  0.5421840517501122  0.7681010237156157  1.0000
  C   C100      1.0  0.6450521442960663  0.4753066246683915  0.7894970214943983  1.0000
  C   C101      1.0  0.6383874205973967  0.46089875803451  0.8554096217290308  1.0000
  C   C102      1.0  0.6305173989745542  0.5125753412311909  0.9010665590158099  1.0000
  C   C103      1.0  0.6271806832592759  0.5794698451144454  0.8789698055681258  1.0000
  C   C104      1.0  0.6348571637713433  0.5940419300067177  0.8133254756410722  1.0000
  C   C105      1.0  0.6147044371611515  0.4786420364428706  0.4757138530737208  1.0000
  C   C106      1.0  0.6167412958990751  0.4713980353739017  0.5429912869661919  1.0000
  C   C107      1.0  0.6396748741718667  0.5269019064705134  0.583979012420123  1.0000
  C   C108      1.0  0.6591384714633648  0.5881668014259559  0.5536895788542324  1.0000
  C   C109      1.0  0.6554517855279515  0.5903908243059348  0.4856009883168113  1.0000
  C   C110      1.0  0.5991290715705303  0.4911635823111026  0.1843479778678301  1.0000
  C   C111      1.0  0.6046033294996465  0.48608412419432756  0.11721023532315661  1.0000
  C   C112      1.0  0.6339415312730452  0.5424114159580995  0.0835654719577548  1.0000
  C   C113      1.0  0.6567910710069358  0.6009485874373937  0.12015816949489992  1.0000
  C   C114      1.0  0.6501941281712648  0.6008970780357217  0.1873199856549732  1.0000
  C   C115      1.0  0.8570771013322941  0.4354927656951943  0.692249241513764  1.0000
  C   C116      1.0  0.884624468010131  0.5079408497256068  0.9674047170712045  1.0000
  C   C117      1.0  0.8734448540373806  0.4572181049817061  0.7625657090872622  1.0000
  C   C118      1.0  0.880461661730479  0.4056350423136763  0.809555263049532  1.0000
  C   C119      1.0  0.8858309152402413  0.4206952091636182  0.8760723975966442  1.0000
  C   C120      1.0  0.883137573669501  0.48784716001410533  0.8970029202160531  1.0000
  C   C121      1.0  0.8796180329508799  0.5392740395689514  0.8500924163633101  1.0000
  C   C122      1.0  0.8750358343065657  0.5243424366371271  0.7834024284127638  1.0000
  C   C123      1.0  0.8505152712701047  0.4080143407808876  0.47834462436012615  1.0000
  C   C124      1.0  0.8503600099354075  0.4103457646854808  0.5462013670299513  1.0000
  C   C125      1.0  0.8701088912376066  0.4719297948411238  0.5784288557912518  1.0000
  C   C126      1.0  0.8898362826427758  0.5275585463098479  0.539673783663261  1.0000
  C   C127      1.0  0.8891049834742688  0.5200248397123062  0.47255131983416016  1.0000
  C   C128      1.0  0.8220518323259042  0.4031668748498661  0.1759491226330994  1.0000
  C   C129      1.0  0.8225022411232814  0.40296025469331204  0.10815507923344113  1.0000
  C   C130      1.0  0.8526611090328872  0.4604626851148126  0.0762269636932729  1.0000
  C   C131      1.0  0.8802940024339208  0.5162789341881506  0.11514517572510388  1.0000
  C   C132      1.0  0.8777939226453312  0.5115881106059064  0.1825971084418967  1.0000
  C   C133      1.0  0.6223121446208213  0.4010468915787868  0.3279225891047375  1.0000
  C   C134      1.0  0.0028987910973797  0.844726926371756  0.3327944973303332  1.0000
  C   C135      1.0  0.6122408468262819  0.32741345898769936  0.3301446761392199  1.0000
  C   C136      1.0  0.6802965102715961  0.2780503137922778  0.3347387755638351  1.0000
  C   C137      1.0  0.6420486990936923  0.21290354004854345  0.3352876552426949  1.0000
  C   C138      1.0  0.5458670653280606  0.2134233034314191  0.3310572911910299  1.0000
  C   C139      1.0  0.8623005122021824  0.5990740701458391  0.3284671881178198  1.0000
  C   C140      1.0  0.48273634060766574  0.1550808271782316  0.3289332742525204  1.0000
  C   C141      1.0  0.8731083612637677  0.6726617803233308  0.331593566464754  1.0000
  C   C142      1.0  0.8064129239721751  0.7219987700454168  0.3368608362898726  1.0000
  C   C143      1.0  0.8449566797069608  0.7871123918786082  0.33794243925758843  1.0000
  C   C144      1.0  0.9399600623679519  0.786519343149429  0.3336112650089404  1.0000
  C   C145      1.0  0.8398336729246764  0.0633167505696832  0.3003022775625723  1.0000
  C   C146      1.0  0.8762937261860417  0.9925592912846781  0.029202281826776814  1.0000
  C   C147      1.0  0.8553901798891133  0.042190034534215194  0.2318918388531088  1.0000
  C   C148      1.0  0.8549645001272667  0.9753099940913613  0.21050373400454703  1.0000
  C   C149      1.0  0.8616271447845564  0.9608976651891439  0.1445916085330836  1.0000
  C   C150      1.0  0.8695065827745623  0.012564374399772801  0.09892707587373911  1.0000
  C   C151      1.0  0.8728488108935296  0.07946070297963097  0.12101875069304671  1.0000
  C   C152      1.0  0.865168170199084  0.0940397627563243  0.1866622193263794  1.0000
  C   C153      1.0  0.8852774383302632  0.9786442871161608  0.524275441243006  1.0000
  C   C154      1.0  0.8832481972469354  0.9714043671693915  0.45699804626337237  1.0000
  C   C155      1.0  0.8603227801633366  0.0269098559872702  0.4160138609748856  1.0000
  C   C156      1.0  0.8408619372931057  0.08817699437249621  0.4462995568101674  1.0000
  C   C157      1.0  0.844538213882622  0.09039542374554087  0.5143865093547646  1.0000
  C   C158      1.0  0.9008708610598078  0.9911608761925451  0.8156447762618768  1.0000
  C   C159      1.0  0.8954007891751061  0.9860753245794102  0.8827852617906587  1.0000
  C   C160      1.0  0.8660658395697993  0.042401090038794095  0.9164283672649773  1.0000
  C   C161      1.0  0.8432087053987088  0.10094207086936537  0.8798357142749894  1.0000
  C   C162      1.0  0.8497980224299228  0.10089263827398301  0.8126734276875496  1.0000
  C   C163      1.0  0.6429270961209782  0.9354976924758134  0.3077549719941501  1.0000
  C   C164      1.0  0.6153739748372828  0.007944845107459702  0.032597154604665904  1.0000
  C   C165      1.0  0.6265558902399418  0.9572180898538679  0.23743860778572673  1.0000
  C   C166      1.0  0.6195466963240365  0.905632405581592  0.19045042184992414  1.0000
  C   C167      1.0  0.6141760558110934  0.9206911208510035  0.12393259339160072  1.0000
  C   C168      1.0  0.6168652721606733  0.9878432498042854  0.10300226120728691  1.0000
  C   C169      1.0  0.6203880577173351  0.039273031812136594  0.1499106567172674  1.0000
  C   C170      1.0  0.6249667793293341  0.024342376311423695  0.2166000595594042  1.0000
  C   C171      1.0  0.6494958493084441  0.908020984312479  0.5216602345054184  1.0000
  C   C172      1.0  0.6496587428810872  0.9103499670166073  0.4538044334253685  1.0000
  C   C173      1.0  0.629896000639157  0.9719322475145303  0.4215741339427765  1.0000
  C   C174      1.0  0.610162161268633  0.027560440079206196  0.4603274436610647  1.0000
  C   C175      1.0  0.6108934522053387  0.0200306880282142  0.5274494778683732  1.0000
  C   C176      1.0  0.6779253002173604  0.9031664679950423  0.8240522097011932  1.0000
  C   C177      1.0  0.6774825001781793  0.9029622893858685  0.8918452579702676  1.0000
  C   C178      1.0  0.6473326699046069  0.9604644316550119  0.923773964322109  1.0000
  C   C179      1.0  0.6197003120127106  0.016283282435026098  0.8848588191545089  1.0000
  C   C180      1.0  0.6221927417962477  0.0115915223288354  0.8174044959411759  1.0000
  C   C181      1.0  0.8776726073309079  0.9010468874103591  0.6720787416285887  1.0000
  C   C182      1.0  0.4970997332140783  0.3447278233286326  0.6672073802929219  1.0000
  C   C183      1.0  0.8877474479316235  0.8274134798734281  0.6698662564994037  1.0000
  C   C184      1.0  0.8196987001171154  0.778046312788142  0.6652729755520497  1.0000
  C   C185      1.0  0.8579527169631973  0.7129010744448222  0.6647240179786351  1.0000
  C   C186      1.0  0.9541350498136723  0.7134243783583897  0.668954909901565  1.0000
  C   C187      1.0  0.6376994048850195  0.09907520564745198  0.671538940296287  1.0000
  C   C188      1.0  0.017269795431104705  0.6550841190858989  0.6710749769366515  1.0000
  C   C189      1.0  0.6268902114720448  0.17266142874202467  0.668413361891055  1.0000
  C   C190      1.0  0.6935863702165007  0.22200051380622904  0.6631467230175829  1.0000
  C   C191      1.0  0.6550391535514565  0.2871136182020848  0.6620629234426758  1.0000
  C   C192      1.0  0.5600378221832827  0.2865214773295576  0.666391784816085  1.0000
  S   S1        1.0  0.0176595593302693  0.2937464218304129  0.6713590732662951  1.0000
  S   S2        1.0  0.49781801598892633  0.7062367451548255  0.6730064433003592  1.0000
  S   S3        1.0  0.4823302666999752  0.7937473696292514  0.3286113855465658  1.0000
  S   S4        1.0  0.002181171114848701  0.20623969438710776  0.32699804008537825  1.0000
  S   S5        1.0  0.9823353927594952  0.7062534154337428  0.3286341776175661  1.0000
  S   S6        1.0  0.5021777254523841  0.2937580700844649  0.3269951667024245  1.0000
  S   S7        1.0  0.5176610438842744  0.20625698748945348  0.6713664862958098  1.0000
  S   S8        1.0  0.9978133251430849  0.7937626537854428  0.6730157141307842  1.0000
  N   N1        1.0  0.36028226486067183  0.4831713209294932  0.34889443631922756  1.0000
  N   N2        1.0  0.3658349720771525  0.4629544405975705  0.5534073329855431  1.0000
  N   N3        1.0  0.3587427022414502  0.45637281400426116  0.9836892506099774  1.0000
  N   N4        1.0  0.37832639758672576  0.4531942540268332  0.7806452990757009  1.0000
  N   N5        1.0  0.1270403743509121  0.5176597396373308  0.3543744584866246  1.0000
  N   N6        1.0  0.1307832445613926  0.5386071067906926  0.558556447586092  1.0000
  N   N7        1.0  0.1462035379038014  0.541000273563675  0.9916542467568163  1.0000
  N   N8        1.0  0.15060955485478897  0.5433790503817448  0.7868093935450204  1.0000
  N   N9        1.0  0.13970727760269602  0.9831728497079835  0.6511043222641035  1.0000
  N   N10       1.0  0.1341573138659058  0.9629566851115925  0.4465897999341166  1.0000
  N   N11       1.0  0.1412544681385626  0.956372663018577  0.0163111691568787  1.0000
  N   N12       1.0  0.12166311200092393  0.9531968992104396  0.2193517398307847  1.0000
  N   N13       1.0  0.3729615211951156  0.017656220196506905  0.6456316876819059  1.0000
  N   N14       1.0  0.36921936271772887  0.0386118344141835  0.441450554057127  1.0000
  N   N15       1.0  0.35380663379869054  0.0409960866388772  0.008347825686385604  1.0000
  N   N16       1.0  0.34940064592685627  0.043376147422542  0.2131951060477988  1.0000
  N   N17       1.0  0.639704373840651  0.5168239965412411  0.6510987901474365  1.0000
  N   N18       1.0  0.6341447227852868  0.5370448944687993  0.4465844870532507  1.0000
  N   N19       1.0  0.6412571082758945  0.5436330496459617  0.016304789060875204  1.0000
  N   N20       1.0  0.6216685601561026  0.5468065876332346  0.2193484409981039  1.0000
  N   N21       1.0  0.872962322236596  0.48234009758399304  0.6456295362961271  1.0000
  N   N22       1.0  0.8692215600502422  0.4613902194255103  0.4414501215834363  1.0000
  N   N23       1.0  0.8538061138287815  0.4589980570528311  0.0083521328317318  1.0000
  N   N24       1.0  0.8493876352757823  0.45662028462586324  0.2131976831778388  1.0000
  N   N25       1.0  0.8602905040311555  0.016837031515493102  0.3488939917289002  1.0000
  N   N26       1.0  0.8658390247315637  0.0370486763415059  0.553403536532727  1.0000
  N   N27       1.0  0.8587544225055198  0.04362265442868111  0.9836892973141219  1.0000
  N   N28       1.0  0.8783297885928647  0.04680143144633318  0.7806438286213933  1.0000
  N   N29       1.0  0.6270418629931456  0.9823451236238795  0.354371860703381  1.0000
  N   N30       1.0  0.630780549552128  0.9613975445918823  0.5585522910903862  1.0000
  N   N31       1.0  0.6461897726315017  0.9589982264117648  0.9916513811511934  1.0000
  N   N32       1.0  0.6505895268763172  0.9566211788196171  0.7868042047500481  1.0000
  O   O1        1.0  0.3079408862622728  0.38022017406392905  0.3098695033122993  1.0000
  O   O2        1.0  0.3951207988542293  0.565506260341678  0.013563188044336998  1.0000
  O   O3        1.0  0.1722733729912207  0.6218169697049092  0.3208607707482969  1.0000
  O   O4        1.0  0.09032290269134792  0.4355682044643032  0.013028839910518302  1.0000
  O   O5        1.0  0.21740830306126926  0.4277899305498492  0.6696834526348638  1.0000
  O   O6        1.0  0.0647525215979172  0.4362087206829131  0.6757252945239571  1.0000
  O   O7        1.0  0.9101470124186264  0.16511497929462848  0.6671724518570058  1.0000
  O   O8        1.0  0.0322990278446582  0.0961667953420573  0.6678934441733233  1.0000
  O   O9        1.0  0.2974156548962767  0.572109891280796  0.669916045346433  1.0000
  O   O10       1.0  0.4516337865861928  0.5635700226094471  0.6755201152765977  1.0000
  O   O11       1.0  0.6044525354497524  0.8351638157857763  0.6726050776755343  1.0000
  O   O12       1.0  0.48201656371085017  0.9039349115411209  0.6714165556589222  1.0000
  O   O13       1.0  0.19205349633568863  0.8802254246039138  0.6901323259397643  1.0000
  O   O14       1.0  0.10486787342691883  0.06550823650557189  0.9864358960880537  1.0000
  O   O15       1.0  0.32772580781732324  0.12181514801132207  0.6791463371491843  1.0000
  O   O16       1.0  0.4096853921887699  0.9355650643837877  0.9869758536180484  1.0000
  O   O17       1.0  0.28258384647742935  0.9277902357053591  0.330303196159484  1.0000
  O   O18       1.0  0.43524266952302787  0.9362121863454291  0.3242844509934883  1.0000
  O   O19       1.0  0.5898483551002586  0.6651136349392529  0.3327971862464523  1.0000
  O   O20       1.0  0.46769438334500535  0.5961682068040374  0.33209493480281793  1.0000
  O   O21       1.0  0.20258616884895284  0.07211344336265307  0.3300818430185828  1.0000
  O   O22       1.0  0.0483695620635984  0.0635725199964554  0.3244901560914215  1.0000
  O   O23       1.0  0.8955508609081163  0.3351619883051598  0.3273935270863291  1.0000
  O   O24       1.0  0.017983423909896604  0.40393835955262597  0.3285898311934403  1.0000
  O   O25       1.0  0.6920547929968065  0.619771628004095  0.6901267255692787  1.0000
  O   O26       1.0  0.604883205099924  0.4344950835055243  0.9864340436224026  1.0000
  O   O27       1.0  0.8277376935123755  0.37818035650340687  0.6791481404186541  1.0000
  O   O28       1.0  0.9097005745376238  0.5644240997795434  0.9869749713927192  1.0000
  O   O29       1.0  0.7825909611760411  0.5722063912660074  0.33032326331323963  1.0000
  O   O30       1.0  0.9352466861116684  0.563794129740387  0.3242765294591266  1.0000
  O   O31       1.0  0.08984996855584629  0.8348878711821044  0.3328165246768933  1.0000
  O   O32       1.0  0.9676938501380264  0.9038340463178969  0.3321001674932377  1.0000
  O   O33       1.0  0.7025765863619498  0.42789145255751043  0.33008241545492467  1.0000
  O   O34       1.0  0.5483584264067575  0.43642629924927695  0.3244758995750203  1.0000
  O   O35       1.0  0.39555216175743624  0.164835519265516  0.3273921968015614  1.0000
  O   O36       1.0  0.5179903263138144  0.0960624146731419  0.3285906311117728  1.0000
  O   O37       1.0  0.8079456491935559  0.11978546102585597  0.30986411687841553  1.0000
  O   O38       1.0  0.8951348118542201  0.9344880853269615  0.013567120320765009  1.0000
  O   O39       1.0  0.6722720699140011  0.8781856935953481  0.3208602931762102  1.0000
  O   O40       1.0  0.5903013934868399  0.0644262354414948  0.0130300919064368  1.0000
  O   O41       1.0  0.7174098095518032  0.07221010372474979  0.6696977962202837  1.0000
  O   O42       1.0  0.5647503271707279  0.0637916684651998  0.6757194337334838  1.0000
  O   O43       1.0  0.41014779129830714  0.3348867045939983  0.6671795176469502  1.0000
  O   O44       1.0  0.5322992839907742  0.40383665241284916  0.6679070359469108  1.0000
  O   O45       1.0  0.7974060893680106  0.9278884026684648  0.6699180853625535  1.0000
  O   O46       1.0  0.9516234515882972  0.936428321614059  0.6755151962292274  1.0000
  O   O47       1.0  0.10445398892727552  0.6648393554864711  0.672616955618679  1.0000
  O   O48       1.0  0.9820193405126433  0.5960639886389245  0.6714200339064291  1.0000
