data_image0
_chemical_formula_structural       Al4H28C56O24
_chemical_formula_sum              "Al4 H28 C56 O24"
_cell_length_a       6.690714591283594
_cell_length_b       19.398269429652384
_cell_length_c       21.50622566848377
_cell_angle_alpha    92.96908272365154
_cell_angle_beta     90.00035712841377
_cell_angle_gamma    89.99966155908604

_space_group_name_H-M_alt    "P 1"
_space_group_IT_number       1

loop_
  _space_group_symop_operation_xyz
  'x, y, z'

loop_
  _atom_site_type_symbol
  _atom_site_label
  _atom_site_symmetry_multiplicity
  _atom_site_fract_x
  _atom_site_fract_y
  _atom_site_fract_z
  _atom_site_occupancy
  Al  Al1       1.0  0.26626746610163826  0.25137944674514756  0.2503965636419778  1.0000
  Al  Al2       1.0  0.7336854800993039  0.7486169184207582  0.7496396324172281  1.0000
  Al  Al3       1.0  0.7662619880165026  0.24861562415556895  0.24963501355361467  1.0000
  Al  Al4       1.0  0.23368049610324704  0.7513757917550521  0.7503951051434042  1.0000
  H   H1        1.0  0.27560884700362465  0.6541461616602431  0.9162664312399968  1.0000
  H   H2        1.0  0.7244038834899271  0.3458520053865611  0.08376465427905802  1.0000
  H   H3        1.0  0.7755448910470338  0.8458437018981186  0.5837596298666128  1.0000
  H   H4        1.0  0.22433183066657142  0.15413732346300427  0.41625879687791917  1.0000
  H   H5        1.0  0.7044433210343046  0.5739080593977304  0.8556329130784801  1.0000
  H   H6        1.0  0.2955529684612658  0.4260984116723918  0.1444093877002004  1.0000
  H   H7        1.0  0.20437435012819094  0.9260796690377403  0.6443974812692872  1.0000
  H   H8        1.0  0.795482942111157  0.07388853598675378  0.3556222740155377  1.0000
  H   H9        1.0  0.5551038588669215  0.4747168259222504  0.9056599799794113  1.0000
  H   H10       1.0  0.4449058823554213  0.5252826570300256  0.094376698174031  1.0000
  H   H11       1.0  0.054974401964436516  0.025244158074435998  0.5943469642537451  1.0000
  H   H12       1.0  0.9447663126400058  0.9746723853633198  0.40563015935945407  1.0000
  H   H13       1.0  0.4361429512051557  0.3595027419351027  0.902187888379906  1.0000
  H   H14       1.0  0.29658758417475894  0.42327154707911047  0.9477396741357396  1.0000
  H   H15       1.0  0.2783414486793987  0.3341190372185352  0.9648800055712955  1.0000
  H   H16       1.0  0.703410200232348  0.5767256482574865  0.05231281797471609  1.0000
  H   H17       1.0  0.563842876099102  0.6405016901976809  0.09785486706041978  1.0000
  H   H18       1.0  0.7216802495071022  0.6658772867667153  0.0351654998831634  1.0000
  H   H19       1.0  0.9358359907287837  0.140441886802428  0.5978010798481606  1.0000
  H   H20       1.0  0.7964361032537328  0.07663686458138837  0.5522377886454849  1.0000
  H   H21       1.0  0.7780583483043558  0.16578222936701079  0.5350801170813071  1.0000
  H   H22       1.0  0.203246325005189  0.9231837297749618  0.44767738468276974  1.0000
  H   H23       1.0  0.06354900821192193  0.8594416293560766  0.40213490659237994  1.0000
  H   H24       1.0  0.22139839475708106  0.8340189172113384  0.46480748993334947  1.0000
  H   H25       1.0  0.5215301250693328  0.3403528338279429  0.2457207068483029  1.0000
  H   H26       1.0  0.4784332842194844  0.6596242249845689  0.7542097246683853  1.0000
  H   H27       1.0  0.021529937821569006  0.15963483523252356  0.254256235067416  1.0000
  H   H28       1.0  0.9784289872333859  0.8403519092816152  0.7457226568991758  1.0000
  C   C1        1.0  0.5144264061233059  0.16553930728902339  0.16269972434097474  1.0000
  C   C2        1.0  0.48551757258656647  0.8344528790601943  0.837325278231134  1.0000
  C   C3        1.0  0.014442347400297704  0.334448877068226  0.3373283914225169  1.0000
  C   C4        1.0  0.9854956531607899  0.6655347802501694  0.6627012207381496  1.0000
  C   C5        1.0  0.5140165527218344  0.1675899650280286  0.33054902650580686  1.0000
  C   C6        1.0  0.485906501187209  0.8324096837502851  0.6694909106483279  1.0000
  C   C7        1.0  0.014061552262902  0.3324138120257132  0.1694917378165002  1.0000
  C   C8        1.0  0.9859212857400338  0.6675931272401384  0.8305496344639209  1.0000
  C   C9        1.0  0.15346767084108145  0.617998435744326  0.9219072736192474  1.0000
  C   C10       1.0  0.8465390809058136  0.3820086634856636  0.07812711746222328  1.0000
  C   C11       1.0  0.6534087216491786  0.8819921174290356  0.578121982568348  1.0000
  C   C12       1.0  0.3464545487929343  0.11798281487544668  0.4218982737990514  1.0000
  C   C13       1.0  0.9896504585988453  0.6181820904318157  0.8813124290977186  1.0000
  C   C14       1.0  0.010342841656246504  0.3818252222162855  0.11872615234220522  1.0000
  C   C15       1.0  0.4896040388922743  0.8818178263976506  0.6187216002612104  1.0000
  C   C16       1.0  0.5102816502060818  0.11817047172659301  0.3813080363415722  1.0000
  C   C17       1.0  0.8310441599563491  0.5721249881914402  0.8874188296805556  1.0000
  C   C18       1.0  0.1689521296239249  0.4278792068003553  0.11261926979610591  1.0000
  C   C19       1.0  0.3309736703385653  0.9278666398113697  0.6126070168951543  1.0000
  C   C20       1.0  0.6688641918578642  0.0721057554793774  0.38740391652932255  1.0000
  C   C21       1.0  0.8349511803793633  0.5232524096523434  0.9332579058829608  1.0000
  C   C22       1.0  0.16504361459613656  0.47675148312583077  0.0667843812498248  1.0000
  C   C23       1.0  0.33484907771368455  0.9767254961508482  0.5667613684197264  1.0000
  C   C24       1.0  0.6649499254246438  0.023225371523530193  0.4332317630296458  1.0000
  C   C25       1.0  0.9990083090771196  0.5238278401658577  0.9759726604572947  1.0000
  C   C26       1.0  0.000992464442426  0.476172911246145  0.024068679120126998  1.0000
  C   C27       1.0  0.4989004002175435  0.9761419183984188  0.5240454238892127  1.0000
  C   C28       1.0  0.5008731948824092  0.0238000644572409  0.47594533312629045  1.0000
  C   C29       1.0  0.15771983208406937  0.5723262734435507  0.9702172596222172  1.0000
  C   C30       1.0  0.8422869196951981  0.4276798419037035  0.0298180571995204  1.0000
  C   C31       1.0  0.6576025943188172  0.9276545419375564  0.5298026539824435  1.0000
  C   C32       1.0  0.34216801140361514  0.0722918507700214  0.4701937120386006  1.0000
  C   C33       1.0  0.6781146156057292  0.4738126687477687  0.9387203501948419  1.0000
  C   C34       1.0  0.3218891471018637  0.5261890191207143  0.0613191324515441  1.0000
  C   C35       1.0  0.17799715574338393  0.0261539833620006  0.5612866947376531  1.0000
  C   C36       1.0  0.8217585044869937  0.9737759672094907  0.43869049984994035  1.0000
  C   C37       1.0  0.6809738260329398  0.4275251744884373  0.984888693501695  1.0000
  C   C38       1.0  0.3190478720016686  0.5724761576734351  0.015143805204125702  1.0000
  C   C39       1.0  0.18084286663465587  0.0724402927024244  0.5151150992815445  1.0000
  C   C40       1.0  0.8188978478742327  0.9274791786671417  0.4848587815122016  1.0000
  C   C41       1.0  0.9889634503006877  0.6154963776485615  0.6107298365027276  1.0000
  C   C42       1.0  0.0109536255665148  0.3844923650525871  0.3892984061013678  1.0000
  C   C43       1.0  0.48893992080349596  0.8845088229121101  0.8892865298894463  1.0000
  C   C44       1.0  0.5109666916864981  0.11551337788153396  0.1107204779646267  1.0000
  C   C45       1.0  0.9925625609628244  0.5712170031484901  0.5679108032118236  1.0000
  C   C46       1.0  0.007344052739291802  0.4287688115980827  0.43212068218880967  1.0000
  C   C47       1.0  0.4924910176647402  0.9287978681664198  0.9321028370951298  1.0000
  C   C48       1.0  0.5072915416287601  0.07124471540063838  0.0678893831996419  1.0000
  C   C49       1.0  0.9973605047504608  0.5225382479968487  0.5213279515158932  1.0000
  C   C50       1.0  0.0025326574097519006  0.4774492797083099  0.4787068012314463  1.0000
  C   C51       1.0  0.49727052587772397  0.9774862044873484  0.97868110562883  1.0000
  C   C52       1.0  0.5024597217256571  0.022568161842265497  0.0212995400694851  1.0000
  C   C53       1.0  0.3784938227839376  0.37420404265102997  0.9489930071661661  1.0000
  C   C54       1.0  0.6215114346633116  0.6257936859734129  0.0510497128459022  1.0000
  C   C55       1.0  0.8782732108885158  0.12572223388396958  0.5509844415168459  1.0000
  C   C56       1.0  0.121289647654919  0.8741279424343986  0.4489346118646225  1.0000
  O   O1        1.0  0.6842190664240277  0.18404182921049989  0.30899753342961134  1.0000
  O   O2        1.0  0.315721922807434  0.8159575350103337  0.6910368165799171  1.0000
  O   O3        1.0  0.18421879665140753  0.3159635773216394  0.1910411884214511  1.0000
  O   O4        1.0  0.8157476007910206  0.6840395862896429  0.8089969055326806  1.0000
  O   O5        1.0  0.3450372008112908  0.18559950077915494  0.18357165501848272  1.0000
  O   O6        1.0  0.6549202293188972  0.8143938178828235  0.8164654558767097  1.0000
  O   O7        1.0  0.8450135443963802  0.31439244550714557  0.3164630417686425  1.0000
  O   O8        1.0  0.1549110047723588  0.6855881950871917  0.6835781912293228  1.0000
  O   O9        1.0  0.3455345890554541  0.1890249838199551  0.3117973830112533  1.0000
  O   O10       1.0  0.6544123781030323  0.8109887537839738  0.6882458870560414  1.0000
  O   O11       1.0  0.8455354786019668  0.3109858603917743  0.1882439326171124  1.0000
  O   O12       1.0  0.15442942387822006  0.6890273615934246  0.8117993347609415  1.0000
  O   O13       1.0  0.18641117525638148  0.31645304492771936  0.317159082746457  1.0000
  O   O14       1.0  0.8135283195712689  0.683540735817715  0.682866859198711  1.0000
  O   O15       1.0  0.686434289211938  0.18353998930501086  0.1828693428342874  1.0000
  O   O16       1.0  0.31352613032650817  0.8164484451775493  0.8171528470822196  1.0000
  O   O17       1.0  0.5176039759902409  0.29113723726908336  0.2510939031561037  1.0000
  O   O18       1.0  0.4823489702799507  0.7088575748210884  0.7489320442755911  1.0000
  O   O19       1.0  0.0175974341496428  0.20885963218108117  0.2489324104713262  1.0000
  O   O20       1.0  0.9823510282621869  0.7911361637820632  0.7510926112102752  1.0000
  O   O21       1.0  0.5381970071249853  0.37905650304910665  0.9932417748769566  1.0000
  O   O22       1.0  0.4618231962455468  0.6209461687378733  0.006796782065187299  1.0000
  O   O23       1.0  0.038031357107804795  0.1208923750611461  0.5067515328088917  1.0000
  O   O24       1.0  0.9616391118152521  0.87899825454992  0.49320264534701147  1.0000
