data_image0
_chemical_formula_structural       Cd4H56C44N8O20
_chemical_formula_sum              "Cd4 H56 C44 N8 O20"
_cell_length_a       5.876334820119128
_cell_length_b       15.474285948536766
_cell_length_c       15.998474737383138
_cell_angle_alpha    89.99856889559483
_cell_angle_beta     90.00066651321809
_cell_angle_gamma    90.00036926256675

_space_group_name_H-M_alt    "P 1"
_space_group_IT_number       1

loop_
  _space_group_symop_operation_xyz
  'x, y, z'

loop_
  _atom_site_type_symbol
  _atom_site_label
  _atom_site_symmetry_multiplicity
  _atom_site_fract_x
  _atom_site_fract_y
  _atom_site_fract_z
  _atom_site_occupancy
  Cd  Cd1       1.0  0.0740478382475089  0.2954782483182116  0.1558031724267508  1.0000
  Cd  Cd2       1.0  0.42595798966698334  0.7045227980407206  0.6558075555369811  1.0000
  Cd  Cd3       1.0  0.5740458819602665  0.2045212416090436  0.8441941736941345  1.0000
  Cd  Cd4       1.0  0.9259553330547448  0.7954811334305276  0.3441958070083118  1.0000
  H   H1        1.0  0.5536789152168496  0.3793365587891557  0.09551857566872002  1.0000
  H   H2        1.0  0.9463151219023799  0.6206783585253605  0.5955221180469721  1.0000
  H   H3        1.0  0.053678528800176706  0.12067910688362102  0.9044782386543346  1.0000
  H   H4        1.0  0.4463276707398406  0.8793255528683448  0.404489276978353  1.0000
  H   H5        1.0  0.8072099906233985  0.50308750023531  0.1258861440098542  1.0000
  H   H6        1.0  0.6927750888102153  0.496929274562973  0.6258847140856005  1.0000
  H   H7        1.0  0.3072253735719527  0.9969339954449552  0.8741215128057434  1.0000
  H   H8        1.0  0.1927812753743012  0.0030688066294644006  0.3741245893008767  1.0000
  H   H9        1.0  0.0609597280087826  0.4677804968434103  0.2581849459761401  1.0000
  H   H10       1.0  0.43905435843396373  0.5322017011393712  0.7581709252389075  1.0000
  H   H11       1.0  0.5609714258660929  0.0322183595867926  0.7418143352532027  1.0000
  H   H12       1.0  0.939028336589203  0.9677763684693873  0.24182112636795233  1.0000
  H   H13       1.0  0.28788621290671296  0.5991051788419028  0.29419246520495795  1.0000
  H   H14       1.0  0.2121092546350098  0.4008844374157619  0.7941808964083492  1.0000
  H   H15       1.0  0.7879077174540255  0.9008943638199653  0.7058134050094934  1.0000
  H   H16       1.0  0.7121055591979226  0.09910199307552153  0.20581144185342742  1.0000
  H   H17       1.0  0.10738878805280902  0.6800991461038707  0.4586251861209405  1.0000
  H   H18       1.0  0.3925954513904983  0.3199172816425246  0.9586182763983473  1.0000
  H   H19       1.0  0.6074148203890388  0.8199134975602649  0.5413808858766913  1.0000
  H   H20       1.0  0.8925960709997796  0.18008835956420916  0.0413719848358198  1.0000
  H   H21       1.0  0.9147061220455297  0.5526490774818454  0.46634883033497937  1.0000
  H   H22       1.0  0.5853120835701517  0.4473600499025565  0.9663469398112525  1.0000
  H   H23       1.0  0.414727201942533  0.9473619735506774  0.533653958621919  1.0000
  H   H24       1.0  0.0853024773185709  0.05264330643908011  0.0336497296523603  1.0000
  H   H25       1.0  0.950243103129175  0.5384880245304374  0.35753841856266877  1.0000
  H   H26       1.0  0.5497781294376692  0.46152861030632414  0.8575347307393102  1.0000
  H   H27       1.0  0.4502515222932644  0.9615216993123071  0.6424648326852491  1.0000
  H   H28       1.0  0.049764919536059396  0.03847736572510739  0.1424602263336325  1.0000
  H   H29       1.0  0.5215213612001363  0.7132463083979063  0.3106394058731681  1.0000
  H   H30       1.0  0.9784629751651507  0.2867575846071588  0.810642302477916  1.0000
  H   H31       1.0  0.0215459468765786  0.7867631880946605  0.6893620590352327  1.0000
  H   H32       1.0  0.47846314592146644  0.21324280262501108  0.189357566351255  1.0000
  H   H33       1.0  0.9021407916051416  0.6141304425099816  0.23742560175296748  1.0000
  H   H34       1.0  0.5978449294789882  0.3858722391698421  0.737420271971132  1.0000
  H   H35       1.0  0.40215951974310116  0.8858760969103088  0.762588495859525  1.0000
  H   H36       1.0  0.09785499579402308  0.1141239962672742  0.2625800904109781  1.0000
  H   H37       1.0  0.7181118756163799  0.6862693915103578  0.1879035861390435  1.0000
  H   H38       1.0  0.781865623887924  0.3137310067084513  0.6879053464872271  1.0000
  H   H39       1.0  0.21811206336401057  0.8137353892601951  0.8120994784598707  1.0000
  H   H40       1.0  0.2818902521777176  0.1862618177900259  0.31209417283859153  1.0000
  H   H41       1.0  0.5549649735080848  0.5727494855472771  0.3899454355505796  1.0000
  H   H42       1.0  0.9450440960491803  0.42724888121551174  0.8899395172986785  1.0000
  H   H43       1.0  0.05497735331243089  0.9272632093772942  0.6100590014626945  1.0000
  H   H44       1.0  0.44503423406366954  0.07275153880891592  0.1100542540556404  1.0000
  H   H45       1.0  0.47230625546868765  0.31525083517074387  0.35672447969480453  1.0000
  H   H46       1.0  0.0277021037551677  0.6847133335622928  0.8567333061774177  1.0000
  H   H47       1.0  0.9723043655229019  0.18474891199891635  0.643268541690638  1.0000
  H   H48       1.0  0.527675598252962  0.8152625527396324  0.1432700058123757  1.0000
  H   H49       1.0  0.7055030076987023  0.3287340445396723  0.42872014347305754  1.0000
  H   H50       1.0  0.7944809045823787  0.6712115153461511  0.928728453680975  1.0000
  H   H51       1.0  0.20550629621013874  0.1712633782983062  0.5712753503021588  1.0000
  H   H52       1.0  0.29447769279911273  0.8287414923372652  0.0712661354455051  1.0000
  H   H53       1.0  0.6264686143288429  0.22415622380664496  0.3935772877799835  1.0000
  H   H54       1.0  0.8735237919154243  0.775805788912649  0.8936014855312848  1.0000
  H   H55       1.0  0.1264693697251928  0.2758432150381438  0.6064141926491969  1.0000
  H   H56       1.0  0.3735214422879167  0.724162650619249  0.1064164937010261  1.0000
  C   C1        1.0  0.4997368326208686  0.4299583106510383  0.13821386760943  1.0000
  C   C2        1.0  0.00026388014898519996  0.5700474089979509  0.6382110061087188  1.0000
  C   C3        1.0  0.9997447264576137  0.07005498042057207  0.8617877788826219  1.0000
  C   C4        1.0  0.500268411005571  0.9299459523652377  0.3617936815764082  1.0000
  C   C5        1.0  0.641262721531234  0.4995875389719373  0.15632943671931798  1.0000
  C   C6        1.0  0.8587236178629353  0.50041881140708  0.6563247253680089  1.0000
  C   C7        1.0  0.1412804520669582  0.00042480971247020003  0.8436782274069685  1.0000
  C   C8        1.0  0.35873174335011276  0.9995741997567934  0.3436795702581108  1.0000
  C   C9        1.0  0.2248872600979368  0.480170669010235  0.22874047646468648  1.0000
  C   C10       1.0  0.2751205582407366  0.5198167383404594  0.7287297812240539  1.0000
  C   C11       1.0  0.7249030201441258  0.019826734758467506  0.7712605540154129  1.0000
  C   C12       1.0  0.775103010655286  0.9801685999736025  0.2712630213529579  1.0000
  C   C13       1.0  0.5706428449836451  0.5621035321333423  0.21398115699592776  1.0000
  C   C14       1.0  0.9293525072894936  0.4378950401933608  0.7139796221946  1.0000
  C   C15       1.0  0.07064895461754618  0.9379026852018415  0.786020707989522  1.0000
  C   C16       1.0  0.4293576310186893  0.062095701383192585  0.28602609717263766  1.0000
  C   C17       1.0  0.3541709988575263  0.5522975376962691  0.2494025588853148  1.0000
  C   C18       1.0  0.1458269176808855  0.44769668978840843  0.7493891379500468  1.0000
  C   C19       1.0  0.8541885573039493  0.9477129260558712  0.7506086331787358  1.0000
  C   C20       1.0  0.645817165729973  0.05229045164615092  0.2506053791539955  1.0000
  C   C21       1.0  0.6171254141675246  0.6815042238901229  0.4688287371192246  1.0000
  C   C22       1.0  0.8828760150125985  0.3184938053881511  0.9688250057388288  1.0000
  C   C23       1.0  0.1171171817710714  0.8185084103499989  0.5311741650536846  1.0000
  C   C24       1.0  0.38288332713095485  0.18150796766936855  0.0311759260311248  1.0000
  C   C25       1.0  0.8081214324996181  0.2979948829496096  0.3024435877102434  1.0000
  C   C26       1.0  0.6918774217000133  0.7019848239071393  0.8024484332624412  1.0000
  C   C27       1.0  0.30812294347977337  0.20200760952528898  0.6975508108800881  1.0000
  C   C28       1.0  0.1918392972266076  0.7979960720871092  0.1975453757869516  1.0000
  C   C29       1.0  0.9154662683715811  0.5869137334248933  0.4060961070478157  1.0000
  C   C30       1.0  0.5845460746417075  0.4131019972611156  0.9060887998743183  1.0000
  C   C31       1.0  0.4154713948506624  0.9130999017497956  0.5939091786938562  1.0000
  C   C32       1.0  0.08454202447169479  0.0869032985827758  0.0939053728416468  1.0000
  C   C33       1.0  0.7246666599842583  0.6365793924143901  0.2370584059484457  1.0000
  C   C34       1.0  0.7753122185236448  0.3634245983058975  0.7370548979520279  1.0000
  C   C35       1.0  0.224689614719864  0.8634305517240081  0.7629483789116662  1.0000
  C   C36       1.0  0.27532493603411706  0.13656823260023293  0.2629446514234317  1.0000
  C   C37       1.0  0.6779986497181554  0.6264520134639753  0.3922220848355451  1.0000
  C   C38       1.0  0.8220004310092363  0.37355077393795716  0.8922164271109949  1.0000
  C   C39       1.0  0.17800521784402426  0.8735612075227978  0.6077811634896334  1.0000
  C   C40       1.0  0.32199763913677504  0.12644847382831162  0.1077772828570502  1.0000
  C   C41       1.0  0.6422118943256406  0.29235364918536527  0.3747777551792453  1.0000
  C   C42       1.0  0.8577820858616293  0.7076079217123379  0.874794308107937  1.0000
  C   C43       1.0  0.14221170201330582  0.20764577429485337  0.6252130280696662  1.0000
  C   C44       1.0  0.35776732504608316  0.7923611796911275  0.1252124921939597  1.0000
  N   N1        1.0  0.2949831991090761  0.4196236754451448  0.1743490622894868  1.0000
  N   N2        1.0  0.2050227310382766  0.5803752396633186  0.6743439507091296  1.0000
  N   N3        1.0  0.7949794889102934  0.0803827071538095  0.8256503969665374  1.0000
  N   N4        1.0  0.7050284306526179  0.9196172755417111  0.3256554235202174  1.0000
  N   N5        1.0  0.6740650305124801  0.6803418416864845  0.3162784426752623  1.0000
  N   N6        1.0  0.8259147488724847  0.31965791897421525  0.8162743401624225  1.0000
  N   N7        1.0  0.17408360048832347  0.8196687981894328  0.6837254487103905  1.0000
  N   N8        1.0  0.32592494392226706  0.1803342163099941  0.18372310222249408  1.0000
  O   O1        1.0  0.624794699123953  0.7632374293713015  0.4601120186302694  1.0000
  O   O2        1.0  0.8752177942409387  0.2367681028211308  0.9601075621932722  1.0000
  O   O3        1.0  0.12475505739828917  0.7367784285308405  0.539892098589668  1.0000
  O   O4        1.0  0.37522417678660247  0.26323367781690615  0.03988902924542259  1.0000
  O   O5        1.0  0.5731922791146785  0.640698915044716  0.5355371943125533  1.0000
  O   O6        1.0  0.9267959213228918  0.35929932889770544  0.0355351879698276  1.0000
  O   O7        1.0  0.0731860247773568  0.8593144082600335  0.4644696594771744  1.0000
  O   O8        1.0  0.42680559018634057  0.14070240136764062  0.9644605421128745  1.0000
  O   O9        1.0  0.0911167970632007  0.6500738385336079  0.40239432793044466  1.0000
  O   O10       1.0  0.40889260301764097  0.3499490102815841  0.9023940392450455  1.0000
  O   O11       1.0  0.5911103828365754  0.8499407598693838  0.5976061931443937  1.0000
  O   O12       1.0  0.9088940669928078  0.15005855364807275  0.09759864755947939  1.0000
  O   O13       1.0  0.7339674907758748  0.2785960141308977  0.228744289988029  1.0000
  O   O14       1.0  0.7660378070754843  0.721404475063764  0.7287511796957133  1.0000
  O   O15       1.0  0.23398206767556926  0.22140978197167266  0.7712491981563545  1.0000
  O   O16       1.0  0.26600946675441856  0.7786041364024285  0.2712472899823197  1.0000
  O   O17       1.0  0.012395205118671999  0.3199210357727651  0.3151753082124458  1.0000
  O   O18       1.0  0.4876074093540836  0.680055998862855  0.8151714297153064  1.0000
  O   O19       1.0  0.5123886592221609  0.1800804530835833  0.6848223203551811  1.0000
  O   O20       1.0  0.9875732241621618  0.8199207310792502  0.1848103985302885  1.0000
