data_image0
_chemical_formula_structural       Hg2H28C30N4Cl4O8
_chemical_formula_sum              "Hg2 H28 C30 N4 Cl4 O8"
_cell_length_a       7.546364809869207
_cell_length_b       9.163170876051156
_cell_length_c       14.225687168672852
_cell_angle_alpha    70.62149982976845
_cell_angle_beta     78.12727094391936
_cell_angle_gamma    66.46330211673785

_space_group_name_H-M_alt    "P 1"
_space_group_IT_number       1

loop_
  _space_group_symop_operation_xyz
  'x, y, z'

loop_
  _atom_site_type_symbol
  _atom_site_label
  _atom_site_symmetry_multiplicity
  _atom_site_fract_x
  _atom_site_fract_y
  _atom_site_fract_z
  _atom_site_occupancy
  Hg  Hg1       1.0  0.4820401239036015  0.834008445120638  0.7296607137103097  1.0000
  Hg  Hg2       1.0  0.5179576887598999  0.1659873987420681  0.2703416663287399  1.0000
  H   H1        1.0  0.8530338922019496  0.023438038328869495  0.4316958633697965  1.0000
  H   H2        1.0  0.14696046295271986  0.9765627679497155  0.5683051532929113  1.0000
  H   H3        1.0  0.11155331665121793  0.022122602095265596  0.28802918776508324  1.0000
  H   H4        1.0  0.8884432895624386  0.9778794190772543  0.7119741249440068  1.0000
  H   H5        1.0  0.3994755104745237  0.5146187735158989  0.39669760369097423  1.0000
  H   H6        1.0  0.600522937886261  0.48538202378886547  0.6033043527168545  1.0000
  H   H7        1.0  0.1584488738145851  0.49988860307378497  0.5502972001587594  1.0000
  H   H8        1.0  0.8415481218404184  0.50011223403132  0.449700695933295  1.0000
  H   H9        1.0  0.5219066415435736  0.658806610468467  0.2635759025274496  1.0000
  H   H10       1.0  0.47809094223618603  0.3411929597488238  0.7364250078492205  1.0000
  H   H11       1.0  0.44087977326158523  0.8784712171832183  0.23534515775839537  1.0000
  H   H12       1.0  0.5591210225863181  0.1215271238744862  0.764654943757094  1.0000
  H   H13       1.0  0.15425744895201635  0.8902178447042813  0.15596196764977321  1.0000
  H   H14       1.0  0.8457431345690909  0.10978421580630739  0.8440373667784729  1.0000
  H   H15       1.0  0.3865959516454823  0.8366494020410257  0.08961482702108736  1.0000
  H   H16       1.0  0.6134048773163202  0.1633489252132776  0.9103866796446809  1.0000
  H   H17       1.0  0.41954381897134846  0.550857175522914  0.12908028702167232  1.0000
  H   H18       1.0  0.5804600097317947  0.44914364202469403  0.8709196436956717  1.0000
  H   H19       1.0  0.24436772727663233  0.563183487271246  0.2335883518525463  1.0000
  H   H20       1.0  0.7556343888214345  0.436814869199715  0.7664101893776163  1.0000
  H   H21       1.0  0.2759125402120333  0.7740988664288863  0.9688975346335695  1.0000
  H   H22       1.0  0.7240922826141658  0.22589949326179948  0.0311006963264902  1.0000
  H   H23       1.0  0.029631686698657175  0.8275222103533648  0.8566117745993225  1.0000
  H   H24       1.0  0.9703651463004095  0.17248232549952996  0.14338746213091008  1.0000
  H   H25       1.0  0.7275300097886586  0.5835039650599398  0.11163312952272259  1.0000
  H   H26       1.0  0.27247331357448706  0.4164980848669799  0.8883672997856992  1.0000
  H   H27       1.0  0.9857833969190679  0.540749903219357  0.21619221495427612  1.0000
  H   H28       1.0  0.014222257374242988  0.4592496973621961  0.7838056568866706  1.0000
  C   C1        1.0  0.833711013032399  0.7534626425274168  0.5886765613245187  1.0000
  C   C2        1.0  0.16628195564430112  0.24653817594470678  0.41132320532296524  1.0000
  C   C3        1.0  0.9874119982378958  0.7605080760943678  0.5017442122783463  1.0000
  C   C4        1.0  0.012581492335762307  0.23949150309674389  0.4982557583531957  1.0000
  C   C5        1.0  0.9729423300825745  0.9089153390876843  0.4276656424753327  1.0000
  C   C6        1.0  0.027054422230072803  0.0910829902387391  0.5723356270204505  1.0000
  C   C7        1.0  0.11139069675440542  0.9104264319444866  0.3472744530044167  1.0000
  C   C8        1.0  0.8886058432314529  0.0895756168348285  0.6527260494041228  1.0000
  C   C9        1.0  0.2775222756293729  0.6225376507233803  0.4104485518195844  1.0000
  C   C10       1.0  0.7224747862534359  0.3774631587749225  0.5895521545730205  1.0000
  C   C11       1.0  0.14425293680211837  0.616502360949454  0.49305400838425584  1.0000
  C   C12       1.0  0.8557419071356097  0.3834972198515202  0.5069458071122384  1.0000
  C   C13       1.0  0.39507412538542747  0.7737232807052122  0.24787038518651633  1.0000
  C   C14       1.0  0.6049256266685674  0.22627753891450908  0.7521293083608499  1.0000
  C   C15       1.0  0.2995749082642618  0.7936186666593201  0.15726771223762634  1.0000
  C   C16       1.0  0.7004280724148231  0.2063809168991213  0.8427318750237021  1.0000
  C   C17       1.0  0.28307166452366783  0.6319753177588934  0.15841501932779076  1.0000
  C   C18       1.0  0.7169318214954147  0.36802303342022913  0.84158406934246  1.0000
  C   C19       1.0  0.14756940777920144  0.7408300837565278  0.9969092745488695  1.0000
  C   C20       1.0  0.8524365395273251  0.25917200389860545  0.003087331613763029  1.0000
  C   C21       1.0  0.010108774499528208  0.7686963049146983  0.9360003519716358  1.0000
  C   C22       1.0  0.9898921020347872  0.23130824266947772  0.063997716778303  1.0000
  C   C23       1.0  0.8540148183125141  0.7149515314424021  0.9762956398787211  1.0000
  C   C24       1.0  0.14598659667570496  0.2850517699590612  0.023703335430411688  1.0000
  C   C25       1.0  0.842662637365386  0.6326141650448632  0.07810694496628662  1.0000
  C   C26       1.0  0.15733657623469816  0.36738790075757066  0.9218918420218785  1.0000
  C   C27       1.0  0.9831068095720356  0.6075810646658794  0.1369266430757321  1.0000
  C   C28       1.0  0.01689886127822861  0.39241852901397317  0.8630719313403503  1.0000
  C   C29       1.0  0.7056564631548453  0.7380045234436922  0.9100367224865522  1.0000
  C   C30       1.0  0.29434247398898356  0.2619950483834685  0.08996403275506282  1.0000
  N   N1        1.0  0.25860282680102403  0.7683493547191772  0.3392055498703925  1.0000
  N   N2        1.0  0.7413931912878767  0.23165393334114975  0.660794748554089  1.0000
  N   N3        1.0  0.13188338080136217  0.6617805726870287  0.09551139820404582  1.0000
  N   N4        1.0  0.8681222734919487  0.3382190278945245  0.9044864736369007  1.0000
  Cl  Cl1       1.0  0.31059416871881507  0.6683216932614754  0.7053653666569063  1.0000
  Cl  Cl2       1.0  0.6893950825497511  0.3316815867495464  0.2946357074428363  1.0000
  Cl  Cl3       1.0  0.2251206254060918  0.07753886073671616  0.7822159707496682  1.0000
  Cl  Cl4       1.0  0.7748810019089236  0.9224607212118625  0.21778377164670806  1.0000
  O   O1        1.0  0.6978765466692991  0.8925521285053506  0.5904698453967967  1.0000
  O   O2        1.0  0.302116960461305  0.10744744378406068  0.4095308278098885  1.0000
  O   O3        1.0  0.8490870193541298  0.614558343825479  0.6497464125485095  1.0000
  O   O4        1.0  0.150907009673432  0.3854399891829274  0.3502544646422336  1.0000
  O   O5        1.0  0.7262957653640425  0.8205622475579588  0.8186696084897279  1.0000
  O   O6        1.0  0.27370023616791167  0.17944104740406164  0.1813299873596108  1.0000
  O   O7        1.0  0.5792929522598416  0.6736109551918402  0.9479101227746513  1.0000
  O   O8        1.0  0.4207161760992478  0.32638367607213314  0.05208981501777289  1.0000
