data_image0
_chemical_formula_structural       Zn4H22C24N2O20
_chemical_formula_sum              "Zn4 H22 C24 N2 O20"
_cell_length_a       9.008874378187564
_cell_length_b       8.902295333146043
_cell_length_c       9.896114561795196
_cell_angle_alpha    94.19849992432793
_cell_angle_beta     107.33087852670485
_cell_angle_gamma    97.23105247533593

_space_group_name_H-M_alt    "P 1"
_space_group_IT_number       1

loop_
  _space_group_symop_operation_xyz
  'x, y, z'

loop_
  _atom_site_type_symbol
  _atom_site_label
  _atom_site_symmetry_multiplicity
  _atom_site_fract_x
  _atom_site_fract_y
  _atom_site_fract_z
  _atom_site_occupancy
  Zn  Zn1       1.0  0.7564579318966979  0.13652542311106688  0.9667460703721317  1.0000
  Zn  Zn2       1.0  0.2435425657661483  0.8634755542810238  0.033254451585300174  1.0000
  Zn  Zn3       1.0  0.29125144537321296  0.4573287428297659  0.9795704124495469  1.0000
  Zn  Zn4       1.0  0.7087477302654223  0.5426711020498729  0.020430712380068886  1.0000
  H   H1        1.0  0.3721971231114267  0.8295421234502739  0.6154645092665587  1.0000
  H   H2        1.0  0.6278077941898631  0.17045767753962335  0.384536012506743  1.0000
  H   H3        1.0  0.38034762672544536  0.7124757651972756  0.3802593983333579  1.0000
  H   H4        1.0  0.619651132930926  0.28752180151438  0.6197404504306404  1.0000
  H   H5        1.0  0.21577093924874896  0.27445253111265083  0.47727462374092494  1.0000
  H   H6        1.0  0.7842249463751826  0.7255484825947318  0.5227257695922559  1.0000
  H   H7        1.0  0.9751891363628858  0.23560809466482624  0.6145588495887893  1.0000
  H   H8        1.0  0.024810200494904667  0.7643928923075405  0.38544138560037294  1.0000
  H   H9        1.0  0.9801497573025983  0.42672023459729747  0.6834106359285739  1.0000
  H   H10       1.0  0.019848257530973995  0.5732796198626174  0.31659020213276523  1.0000
  H   H11       1.0  0.277741984697002  0.16505681258392707  0.6441668737908797  1.0000
  H   H12       1.0  0.7222586741849993  0.8349453069008843  0.35583275852611246  1.0000
  H   H13       1.0  0.21266351852640494  0.13413855261040197  0.7928067082829882  1.0000
  H   H14       1.0  0.7873383635232898  0.8658635532824872  0.20719524769994985  1.0000
  H   H15       1.0  0.05244360183615981  0.17441913169866297  0.16407693170690854  1.0000
  H   H16       1.0  0.9475523837339493  0.8255750258895487  0.835926030890732  1.0000
  H   H17       1.0  0.006511004729091482  0.9979737917030957  0.1297795749897047  1.0000
  H   H18       1.0  0.9934848355595777  0.0020226801579070965  0.8702063315944456  1.0000
  H   H19       1.0  0.551607966021585  0.8945034481142569  0.8909273832486376  1.0000
  H   H20       1.0  0.4483922768781525  0.10549639320257137  0.10907097300272986  1.0000
  H   H21       1.0  0.70235941570035  0.8383614348298137  0.8624525151263283  1.0000
  H   H22       1.0  0.2976396663943318  0.1616384160672908  0.13754555435676954  1.0000
  C   C1        1.0  0.2801618247379808  0.706960072604751  0.8114625703275207  1.0000
  C   C2        1.0  0.7198411869354544  0.29304202571368876  0.18853865397485237  1.0000
  C   C3        1.0  0.28794882384987364  0.6193614072105118  0.6797111664781922  1.0000
  C   C4        1.0  0.7120549638276827  0.380638401353842  0.3202900869756816  1.0000
  C   C5        1.0  0.33834723111812787  0.7071355058241621  0.58411773625793  1.0000
  C   C6        1.0  0.6616577173644771  0.29286429315990853  0.41588380396421326  1.0000
  C   C7        1.0  0.3438890378440291  0.6425453755219621  0.4540508406206242  1.0000
  C   C8        1.0  0.6561102990137613  0.35745561145040466  0.545949394568538  1.0000
  C   C9        1.0  0.2963824712731693  0.4853998446570669  0.4160252969402548  1.0000
  C   C10       1.0  0.7036153199786169  0.5145988717217734  0.5839743938638547  1.0000
  C   C11       1.0  0.2915478096949897  0.4095099414625593  0.27370797867782665  1.0000
  C   C12       1.0  0.7084521419477596  0.5904876136629935  0.7262931753032829  1.0000
  C   C13       1.0  0.2502342998885823  0.3963213096511069  0.5111520112773176  1.0000
  C   C14       1.0  0.7497637149449973  0.6036785448088152  0.4888488267840216  1.0000
  C   C15       1.0  0.2467844701607902  0.4593477487550144  0.6432915363791023  1.0000
  C   C16       1.0  0.7532160275020489  0.5406532286370691  0.3567089855783364  1.0000
  C   C17       1.0  0.030921573804334884  0.3221750717838105  0.7073687454032721  1.0000
  C   C18       1.0  0.9690767946488634  0.6778270648557337  0.29263133182600837  1.0000
  C   C19       1.0  0.989190588883318  0.2715708625412602  0.837593816239874  1.0000
  C   C20       1.0  0.01081049238317177  0.7284266850098431  0.16240660606067073  1.0000
  C   C21       1.0  0.2772664375964952  0.21930682663196416  0.7472595650159446  1.0000
  C   C22       1.0  0.722734252466829  0.7806952908470277  0.25274108574988213  1.0000
  C   C23       1.0  0.4444414674184003  0.2509434997957243  0.8494822462818515  1.0000
  C   C24       1.0  0.5555605758504427  0.749059748189893  0.1505188200606326  1.0000
  N   N1        1.0  0.2025565547016868  0.3580265039165907  0.7384073314155157  1.0000
  N   N2        1.0  0.7974431981383602  0.6419767612237592  0.2615941798392639  1.0000
  O   O1        1.0  0.34384835166626715  0.844839033046128  0.8433730555600503  1.0000
  O   O2        1.0  0.6561533068016345  0.15516193476568668  0.1566277531656652  1.0000
  O   O3        1.0  0.0774798474865648  0.3278281450437247  0.9601331760090941  1.0000
  O   O4        1.0  0.9225212337799248  0.6721694025073787  0.03986724629145034  1.0000
  O   O5        1.0  0.20314400502090987  0.6445300991319554  0.8906222768841088  1.0000
  O   O6        1.0  0.7968601674575809  0.3554719896062081  0.10937923418654091  1.0000
  O   O7        1.0  0.4733031595626542  0.35531047439988567  0.9542774322592389  1.0000
  O   O8        1.0  0.5266974993193402  0.6446916450849256  0.04572220005774597  1.0000
  O   O9        1.0  0.5413347843238867  0.1700809534721301  0.8271681851670889  1.0000
  O   O10       1.0  0.45866738898280346  0.8299234386120347  0.172830973086107  1.0000
  O   O11       1.0  0.8648455000006764  0.17358387726127938  0.8138795254771336  1.0000
  O   O12       1.0  0.13515461286122127  0.8264148199570013  0.18612073886352212  1.0000
  O   O13       1.0  0.3340795293160426  0.49645712097894523  0.19074201809656435  1.0000
  O   O14       1.0  0.6659192615216513  0.5035404437268908  0.8092588491162686  1.0000
  O   O15       1.0  0.24677868937443043  0.266393426196501  0.24799239627956374  1.0000
  O   O16       1.0  0.7532192942778265  0.7336064302692334  0.7520074233329409  1.0000
  O   O17       1.0  0.9603828820992107  0.09185168179054409  0.1301486371178626  1.0000
  O   O18       1.0  0.03961300992694559  0.9081424818151331  0.8698512701332601  1.0000
  O   O19       1.0  0.6681386863287814  0.909265910510335  0.9281424396463364  1.0000
  O   O20       1.0  0.3318617489714343  0.0907350708934018  0.07185604541342631  1.0000
