data_image0
_chemical_formula_structural       Cd4H44C60N16O16
_chemical_formula_sum              "Cd4 H44 C60 N16 O16"
_cell_length_a       10.06340968760363
_cell_length_b       13.24108033656551
_cell_length_c       17.915819540017306
_cell_angle_alpha    78.19299841801771
_cell_angle_beta     73.6817994595764
_cell_angle_gamma    67.68164144858449

_space_group_name_H-M_alt    "P 1"
_space_group_IT_number       1

loop_
  _space_group_symop_operation_xyz
  'x, y, z'

loop_
  _atom_site_type_symbol
  _atom_site_label
  _atom_site_symmetry_multiplicity
  _atom_site_fract_x
  _atom_site_fract_y
  _atom_site_fract_z
  _atom_site_occupancy
  Cd  Cd1       1.0  0.4244348051509517  0.9002428140552753  0.9319652582703242  1.0000
  Cd  Cd2       1.0  0.25658529277871606  0.599749376696785  0.5681560970022445  1.0000
  Cd  Cd3       1.0  0.5755732502671264  0.0997479195171778  0.0680373231761848  1.0000
  Cd  Cd4       1.0  0.7434022283431148  0.4002597042339744  0.4318365266670057  1.0000
  H   H1        1.0  0.6721887102449738  0.7932986080651432  0.7798337568331988  1.0000
  H   H2        1.0  0.24503531621461844  0.7066561616885068  0.720381734037396  1.0000
  H   H3        1.0  0.3278144908071069  0.2066862319876677  0.2201737414839045  1.0000
  H   H4        1.0  0.7549675349947619  0.2933513809879997  0.27960772558794383  1.0000
  H   H5        1.0  0.7483200695358573  0.6442474231083609  0.6946508734057842  1.0000
  H   H6        1.0  0.08739279842141179  0.8561672743591658  0.805225215815966  1.0000
  H   H7        1.0  0.25167470082821797  0.3557389779065758  0.3053590764340299  1.0000
  H   H8        1.0  0.9126073502427869  0.1438333748152232  0.19477482237441984  1.0000
  H   H9        1.0  0.38942337557367784  0.5429975956686163  0.8452622943558055  1.0000
  H   H10       1.0  0.7779055762841549  0.95705052971838  0.6546983191388732  1.0000
  H   H11       1.0  0.6105797380937616  0.456986971185934  0.1547537763023925  1.0000
  H   H12       1.0  0.22209666439506034  0.042972428777346715  0.34529602129464365  1.0000
  H   H13       1.0  0.32213447752273044  0.702018775925154  0.91806908820341  1.0000
  H   H14       1.0  0.9423320944723486  0.7979844955811471  0.5819617330096775  1.0000
  H   H15       1.0  0.677876243461249  0.29796667052303866  0.08194509828845752  1.0000
  H   H16       1.0  0.057671310262826105  0.20204864114783314  0.4180218233932536  1.0000
  H   H17       1.0  0.3767012462601398  0.308186394200618  0.8085622096097467  1.0000
  H   H18       1.0  0.4938415314244365  0.1918797947058408  0.6914778649374611  1.0000
  H   H19       1.0  0.6232993721559553  0.6917961305416397  0.19144079144103193  1.0000
  H   H20       1.0  0.5061701219733193  0.808125658463517  0.3085257277079805  1.0000
  H   H21       1.0  0.3871792107988697  0.18644680493323307  0.9357561891287601  1.0000
  H   H22       1.0  0.5097811089738259  0.31326607568822595  0.5641322302987106  1.0000
  H   H23       1.0  0.6128287991595728  0.8135365585585673  0.06424620935058564  1.0000
  H   H24       1.0  0.49022215712738426  0.6867273743511717  0.4358622610378403  1.0000
  H   H25       1.0  0.7406176417747903  0.2555738477968319  0.9602374020093832  1.0000
  H   H26       1.0  0.956817536226822  0.24429206781262994  0.5394007677953212  1.0000
  H   H27       1.0  0.2593803846048885  0.7444177635105476  0.039763353593052414  1.0000
  H   H28       1.0  0.043189192996962125  0.7557148016341557  0.46058410076525996  1.0000
  H   H29       1.0  0.7411160914945044  0.3837652505891853  0.8380212643969145  1.0000
  H   H30       1.0  0.9633432656432602  0.116168142453752  0.6616854329720069  1.0000
  H   H31       1.0  0.258877836095486  0.6162189933504507  0.16197922311312143  1.0000
  H   H32       1.0  0.036672397146730845  0.8838507479744848  0.338307976758088  1.0000
  H   H33       1.0  0.011000957148901744  0.3487680667537205  0.6424331012027976  1.0000
  H   H34       1.0  0.002576093718900564  0.1512995519169422  0.8575106796205034  1.0000
  H   H35       1.0  0.9889964971463382  0.6512446737895773  0.35754755407406696  1.0000
  H   H36       1.0  0.9974261670407855  0.848697493342847  0.14249957928756626  1.0000
  H   H37       1.0  0.9008352119030149  0.43370372751819275  0.7166355144195575  1.0000
  H   H38       1.0  0.051415961405041274  0.0664179960172504  0.7832820851129226  1.0000
  H   H39       1.0  0.09916504721457636  0.566285624461294  0.2833589873075226  1.0000
  H   H40       1.0  0.9485866544406674  0.9335882659092292  0.21672184605503733  1.0000
  H   H41       1.0  0.8631683668534574  0.4875473023627848  0.5443599996254206  1.0000
  H   H42       1.0  0.895339254297461  0.012499347586100404  0.9555731294694424  1.0000
  H   H43       1.0  0.13680311479738091  0.5124689271461378  0.45563975725622896  1.0000
  H   H44       1.0  0.10467225552061162  0.9874856964024447  0.044427969807479414  1.0000
  C   C1        1.0  0.6122484237952931  0.7361866075920885  0.7915699211835657  1.0000
  C   C2        1.0  0.1399273449019772  0.7638931321064247  0.7085044728476078  1.0000
  C   C3        1.0  0.38775697600369335  0.2637981353492265  0.2084406242718018  1.0000
  C   C4        1.0  0.8600755661685752  0.2361183785284169  0.2914890586789767  1.0000
  C   C5        1.0  0.655741767493232  0.652124236848806  0.7450482185235429  1.0000
  C   C6        1.0  0.0530760677458631  0.8481868783263734  0.7548636122310768  1.0000
  C   C7        1.0  0.3442611795257803  0.34785149121809406  0.2549623228883462  1.0000
  C   C8        1.0  0.9469290507388092  0.15181636692612696  0.24513211337747257  1.0000
  C   C9        1.0  0.5782177137508243  0.5780466565065082  0.764581297051528  1.0000
  C   C10       1.0  0.9210086255870987  0.9221662582008676  0.7353516987111206  1.0000
  C   C11       1.0  0.42176858918818994  0.4219530443811833  0.2354227807374515  1.0000
  C   C12       1.0  0.07899400764841137  0.0778509444460695  0.2646432387941502  1.0000
  C   C13       1.0  0.4563857100054277  0.5953654917540235  0.8290182020579165  1.0000
  C   C14       1.0  0.88097720796555  0.9047343858989124  0.6709386183861951  1.0000
  C   C15       1.0  0.5436286746852018  0.40461277341066904  0.17098987744073918  1.0000
  C   C16       1.0  0.11902415741501927  0.0952821105282382  0.32905276320781945  1.0000
  C   C17       1.0  0.41936659976097673  0.683780501116857  0.8700100987628473  1.0000
  C   C18       1.0  0.9732625874044346  0.8162566148652673  0.6300130945251395  1.0000
  C   C19       1.0  0.5806418690824698  0.31620260702817404  0.13000031191822356  1.0000
  C   C20       1.0  0.026736463041522922  0.1837665097197529  0.36997603440352117  1.0000
  C   C21       1.0  0.5574118447315257  0.3572723337225057  0.812288877132353  1.0000
  C   C22       1.0  0.7273979786842374  0.14276717766308175  0.6875596580518817  1.0000
  C   C23       1.0  0.44260863332161177  0.6426920581641156  0.18771735108886387  1.0000
  C   C24       1.0  0.272616191754018  0.8572318567099728  0.3124396179682449  1.0000
  C   C25       1.0  0.45662281926851017  0.2999246762710968  0.8417313317886934  1.0000
  C   C26       1.0  0.5986715918416433  0.2000260912149727  0.6581759440658174  1.0000
  C   C27       1.0  0.5433819910562361  0.7000702551856791  0.15826810700378496  1.0000
  C   C28       1.0  0.4013349482113284  0.7999836339576093  0.3418221802428647  1.0000
  C   C29       1.0  0.46174232272892335  0.233227917422667  0.912027014382673  1.0000
  C   C30       1.0  0.6074268118731042  0.2665335769195423  0.5878017995066499  1.0000
  C   C31       1.0  0.5382565948173762  0.7667602866212918  0.08797779147000279  1.0000
  C   C32       1.0  0.39258000674813326  0.7334672226360937  0.4121935200616774  1.0000
  C   C33       1.0  0.6581364287755564  0.2728770856334037  0.9263391101636528  1.0000
  C   C34       1.0  0.8577701804543734  0.2269740775443978  0.5733505096918491  1.0000
  C   C35       1.0  0.34185782711020335  0.727116836128168  0.07366629508693018  1.0000
  C   C36       1.0  0.14223612368855498  0.7730342427578805  0.42664026528724713  1.0000
  C   C37       1.0  0.6585125527875273  0.34394227045307696  0.8582986364802636  1.0000
  C   C38       1.0  0.8611969794814059  0.15597648013853418  0.6414303445216305  1.0000
  C   C39       1.0  0.3414823568883704  0.6560533063844574  0.14170626721433885  1.0000
  C   C40       1.0  0.13881156886806392  0.844039113132908  0.35856366056289346  1.0000
  C   C41       1.0  0.569748525508615  0.5510526605242063  0.585363744504086  1.0000
  C   C42       1.0  0.7064032669611532  0.9488785151492607  0.9146920330600636  1.0000
  C   C43       1.0  0.43023153975497747  0.4489437380655801  0.4146410899554808  1.0000
  C   C44       1.0  0.2936017591377932  0.0511164571516076  0.0853061241375173  1.0000
  C   C45       1.0  0.6804029364478122  0.5062143750123127  0.6362069556764779  1.0000
  C   C46       1.0  0.8228978114015959  0.9938440963227747  0.8638147577314825  1.0000
  C   C47       1.0  0.31958057381533667  0.49378773586925473  0.3637986484314766  1.0000
  C   C48       1.0  0.17710360585077467  0.0061540254665715  0.1361874376084913  1.0000
  C   C49       1.0  0.8262000474189433  0.4772317528772447  0.6079263906225307  1.0000
  C   C50       1.0  0.9114880101209908  0.022884866731168102  0.8920227811269539  1.0000
  C   C51       1.0  0.17378322546771585  0.5227754203437059  0.3920746616791959  1.0000
  C   C52       1.0  0.08852167617205003  0.9771108550617741  0.10797757419606313  1.0000
  C   C53       1.0  0.9437480222428712  0.4346086432689376  0.6529853831946965  1.0000
  C   C54       1.0  0.03154472275321735  0.0654910098434556  0.8469304180090446  1.0000
  C   C55       1.0  0.056239168383505914  0.5654004606544163  0.3470065190190326  1.0000
  C   C56       1.0  0.9684587171971798  0.9345095779224339  0.1530715470408596  1.0000
  C   C57       1.0  0.05032548087676509  0.49944339665898957  0.6265859550255256  1.0000
  C   C58       1.0  0.17652064787505128  0.0005435403520408035  0.8733436000806164  1.0000
  C   C59       1.0  0.9496543232083638  0.5005728682681863  0.3734126905116995  1.0000
  C   C60       1.0  0.8234859765742895  0.9994521151760267  0.1266588344837416  1.0000
  N   N1        1.0  0.4960617248177712  0.752809040615702  0.8532229122373209  1.0000
  N   N2        1.0  0.10198693894613338  0.7471398820423899  0.6469188923669335  1.0000
  N   N3        1.0  0.503944759586524  0.2471806726946042  0.1467859672339245  1.0000
  N   N4        1.0  0.8980109042392781  0.2528832706763282  0.3530693537900547  1.0000
  N   N5        1.0  0.6176588076985609  0.4923379189150623  0.7189821962270811  1.0000
  N   N6        1.0  0.829028443169385  0.007754731410273097  0.7809990436247888  1.0000
  N   N7        1.0  0.3823486400668799  0.5076280187951028  0.28102695853098675  1.0000
  N   N8        1.0  0.17097533521045696  0.9922408986970056  0.2190041885860197  1.0000
  N   N9        1.0  0.5625195594661605  0.4109909488438603  0.7385672988803761  1.0000
  N   N10       1.0  0.7124838078440092  0.08931769030208872  0.7613741592368227  1.0000
  N   N11       1.0  0.43746680632230533  0.5890270628449414  0.2614279682130771  1.0000
  N   N12       1.0  0.2875346360217322  0.9107198928224918  0.23862417227730498  1.0000
  N   N13       1.0  0.5613949013510647  0.2185234668625142  0.9541025889499579  1.0000
  N   N14       1.0  0.7344054833326439  0.28124295323419096  0.5456488124023052  1.0000
  N   N15       1.0  0.4386052703818846  0.781465611918712  0.045900485118210065  1.0000
  N   N16       1.0  0.26559908314806796  0.7187555080182833  0.4543427313552257  1.0000
  O   O1        1.0  0.436069579684421  0.5914655245443116  0.6221806809434085  1.0000
  O   O2        1.0  0.6497006509814935  0.9085924396758357  0.8779083755494523  1.0000
  O   O3        1.0  0.5639072628213597  0.4085267351414786  0.3778254455015855  1.0000
  O   O4        1.0  0.35030221462942285  0.0914117008783535  0.12208497300997583  1.0000
  O   O5        1.0  0.6140739764053722  0.5474089895698384  0.5123051276746224  1.0000
  O   O6        1.0  0.6744123402308728  0.95224053261812  0.9877678854373141  1.0000
  O   O7        1.0  0.38589485902681275  0.4525898474322574  0.487700341397904  1.0000
  O   O8        1.0  0.325596962906303  0.0477495431479227  0.012229620995967087  1.0000
  O   O9        1.0  0.16009211008351823  0.4687184576487766  0.6575269781654284  1.0000
  O   O10       1.0  0.2865917015158598  0.0312099179257999  0.8424400179071299  1.0000
  O   O11       1.0  0.8398807390087553  0.5313050499704133  0.34247584750549714  1.0000
  O   O12       1.0  0.7134147476178326  0.968785067085463  0.15755774046722587  1.0000
  O   O13       1.0  0.023694661937795767  0.5803662253997928  0.5733272534711347  1.0000
  O   O14       1.0  0.177383389164106  0.9196074996076077  0.9265763349102869  1.0000
  O   O15       1.0  0.976286673435794  0.4196484558574056  0.4266696530645788  1.0000
  O   O16       1.0  0.8226207666372785  0.0803890103780489  0.07342500419985494  1.0000
