data_image0
_chemical_formula_structural       Ca2H24C32O20
_chemical_formula_sum              "Ca2 H24 C32 O20"
_cell_length_a       7.510492882694164
_cell_length_b       10.510035147140238
_cell_length_c       10.509994998615744
_cell_angle_alpha    65.58219777251259
_cell_angle_beta     78.57660233448712
_cell_angle_gamma    78.57645408666339

_space_group_name_H-M_alt    "P 1"
_space_group_IT_number       1

loop_
  _space_group_symop_operation_xyz
  'x, y, z'

loop_
  _atom_site_type_symbol
  _atom_site_label
  _atom_site_symmetry_multiplicity
  _atom_site_fract_x
  _atom_site_fract_y
  _atom_site_fract_z
  _atom_site_occupancy
  Ca  Ca1       1.0  0.24999878710998036  0.5570513108459353  0.4429502217698412  1.0000
  Ca  Ca2       1.0  0.7499981875399796  0.4429483406496289  0.5570489835382303  1.0000
  H   H1        1.0  0.18635835020926808  0.39785606590418615  0.0005193869695218937  1.0000
  H   H2        1.0  0.3136468011946503  0.9994773380645727  0.6021434173735044  1.0000
  H   H3        1.0  0.8136415204968868  0.6021425269632915  0.9994788990962815  1.0000
  H   H4        1.0  0.6863629223390787  0.0005191080528916998  0.3978553355117426  1.0000
  H   H5        1.0  0.07755814118291929  0.9690481201007805  0.21812281638716502  1.0000
  H   H6        1.0  0.4224466536353404  0.7818776017522283  0.03095370724984289  1.0000
  H   H7        1.0  0.922448347673253  0.030951497377735407  0.7818750878504588  1.0000
  H   H8        1.0  0.5775569167623116  0.218123054467533  0.9690489334375273  1.0000
  H   H9        1.0  0.9829444135898765  0.19855530327392057  0.7845043869612593  1.0000
  H   H10       1.0  0.51704830837987  0.2154953872622728  0.8014452725982577  1.0000
  H   H11       1.0  0.017045748396746777  0.8014443576044032  0.21549861058845463  1.0000
  H   H12       1.0  0.4829440836213976  0.784507450397335  0.19855136132566273  1.0000
  H   H13       1.0  0.25573547329579327  0.2817554745792067  0.3422669890086352  1.0000
  H   H14       1.0  0.2442701349806669  0.6577311317673279  0.7182464464346693  1.0000
  H   H15       1.0  0.7442650737393776  0.7182473339229319  0.6577285297120452  1.0000
  H   H16       1.0  0.7557361714770748  0.3422610885478008  0.2817592627375943  1.0000
  H   H17       1.0  0.9537918874239675  0.7824310309655473  0.45637065595882115  1.0000
  H   H18       1.0  0.5462081606028021  0.5436289884168347  0.21757412305694854  1.0000
  H   H19       1.0  0.04620829298691828  0.21757386541101917  0.5436278663813068  1.0000
  H   H20       1.0  0.4537884530234635  0.45637275592486076  0.7824271315687097  1.0000
  H   H21       1.0  0.11690086037679492  0.8708972461184529  0.4293975761754537  1.0000
  H   H22       1.0  0.38309850337339657  0.5706017813163627  0.12910565280866837  1.0000
  H   H23       1.0  0.883101195539325  0.12910448375663466  0.5706019806795053  1.0000
  H   H24       1.0  0.6168981158534591  0.4293999679970427  0.8708946475151149  1.0000
  C   C1        1.0  0.1066526317452769  0.43133751144318216  0.7433727189236307  1.0000
  C   C2        1.0  0.39334283053587876  0.25662524444671675  0.5686617204476716  1.0000
  C   C3        1.0  0.8933414524490785  0.5686632036521716  0.2566264513248483  1.0000
  C   C4        1.0  0.606655680997953  0.7433733532803405  0.4313367514853395  1.0000
  C   C5        1.0  0.08411954754163273  0.3088580172025886  0.8804502078033423  1.0000
  C   C6        1.0  0.415880952908786  0.11954791442900617  0.69113977917965  1.0000
  C   C7        1.0  0.9158747143642783  0.6911416489838373  0.1195484149372774  1.0000
  C   C8        1.0  0.5841199327477398  0.8804527813401606  0.3088575074309219  1.0000
  C   C9        1.0  0.1382378860367695  0.30602483339770004  0.001631377567235852  1.0000
  C   C10       1.0  0.3617620256681207  0.9983676261849156  0.693973730811308  1.0000
  C   C11       1.0  0.8617606142958962  0.6939737543859439  0.998369002969518  1.0000
  C   C12       1.0  0.6382419057532189  0.001630937188707501  0.3060268605584822  1.0000
  C   C13       1.0  0.12858517112830006  0.18280691644729075  0.12405117403185527  1.0000
  C   C14       1.0  0.3714179881409336  0.8759455138621351  0.8171933306485071  1.0000
  C   C15       1.0  0.8714170793011249  0.817193779434007  0.8759449724096411  1.0000
  C   C16       1.0  0.6285822211865764  0.12405096627237101  0.18280672330719477  1.0000
  C   C17       1.0  0.1777221714828841  0.17200834478431665  0.25893092727603306  1.0000
  C   C18       1.0  0.3222789789869794  0.7410678763160093  0.8279904688744679  1.0000
  C   C19       1.0  0.8222776936226807  0.827990243111458  0.7410683130916381  1.0000
  C   C20       1.0  0.677723093730897  0.25893386847421607  0.17200622507488106  1.0000
  C   C21       1.0  0.07639523760679617  0.06356295105606341  0.12191666323114696  1.0000
  C   C22       1.0  0.4236101401371145  0.8780821809519422  0.936437040231844  1.0000
  C   C23       1.0  0.9236127825326721  0.9364356076822418  0.8780814619332842  1.0000
  C   C24       1.0  0.5763893695453389  0.12191850476168041  0.06356329515153897  1.0000
  C   C25       1.0  0.025037776241504207  0.06426112067953942  0.0007352226749972936  1.0000
  C   C26       1.0  0.4749597413795711  0.9992668843029623  0.9357386801635169  1.0000
  C   C27       1.0  0.9749605463796055  0.9357385160130253  0.9992657053696089  1.0000
  C   C28       1.0  0.5250351800536065  0.0007369826029944014  0.0642600381375829  1.0000
  C   C29       1.0  0.0233774970568703  0.19094563636916462  0.8815207894236889  1.0000
  C   C30       1.0  0.47661820827848794  0.11847871408534164  0.8090536307184877  1.0000
  C   C31       1.0  0.9766124928187806  0.8090550783897899  0.11848180133200961  1.0000
  C   C32       1.0  0.5233770461754614  0.8815230351159404  0.19094780977437129  1.0000
  O   O1        1.0  0.011871941326987183  0.4520801399523649  0.6468307745080678  1.0000
  O   O2        1.0  0.48812135760659436  0.35316844998735775  0.5479197043812148  1.0000
  O   O3        1.0  0.9881194189221528  0.5479205798904304  0.35316972177668754  1.0000
  O   O4        1.0  0.5118786740093596  0.6468290790560761  0.45208089708233945  1.0000
  O   O5        1.0  0.2340553532366059  0.506353305881298  0.7196876133753278  1.0000
  O   O6        1.0  0.2659388711348214  0.28031173347457644  0.4936470652288846  1.0000
  O   O7        1.0  0.7659375326952399  0.49364635024957715  0.2803140581381029  1.0000
  O   O8        1.0  0.7340633792946036  0.7196889624067214  0.5063490812126188  1.0000
  O   O9        1.0  0.22708213117882536  0.2914989432968511  0.24859623706079495  1.0000
  O   O10       1.0  0.2729230060837011  0.7514000311019302  0.7085041065656197  1.0000
  O   O11       1.0  0.7729170454828562  0.7085038601214466  0.7514013761308287  1.0000
  O   O12       1.0  0.7270833003740335  0.24859218921319845  0.2915016026066438  1.0000
  O   O13       1.0  0.1734041526542995  0.06430563387142743  0.3685149880861188  1.0000
  O   O14       1.0  0.32660090889570637  0.631482858391216  0.935701265296515  1.0000
  O   O15       1.0  0.8266043549014553  0.9356981794670391  0.6314828258447774  1.0000
  O   O16       1.0  0.6734087362298309  0.3685135181223276  0.06431084781489456  1.0000
  O   O17       1.0  0.08807649923046766  0.7829054354415704  0.43053857495920056  1.0000
  O   O18       1.0  0.4119232471589598  0.5694625274721049  0.21709549161450767  1.0000
  O   O19       1.0  0.9119228383410202  0.2170963041526762  0.5694613536301673  1.0000
  O   O20       1.0  0.5880743982194401  0.43054133468640293  0.7829019006503087  1.0000
