data_image0
_chemical_formula_structural       Co3H16C30N8O8
_chemical_formula_sum              "Co3 H16 C30 N8 O8"
_cell_length_a       9.177420508292705
_cell_length_b       10.673952719603356
_cell_length_c       11.055251117952881
_cell_angle_alpha    63.30339968624183
_cell_angle_beta     86.68602989487601
_cell_angle_gamma    74.04314673040315

_space_group_name_H-M_alt    "P 1"
_space_group_IT_number       1

loop_
  _space_group_symop_operation_xyz
  'x, y, z'

loop_
  _atom_site_type_symbol
  _atom_site_label
  _atom_site_symmetry_multiplicity
  _atom_site_fract_x
  _atom_site_fract_y
  _atom_site_fract_z
  _atom_site_occupancy
  Co  Co1       1.0  0.4996946620760881  0.4991732754091202  0.5005991071408642  1.0000
  Co  Co2       1.0  0.21666435971673076  0.27046144340239664  0.4789964782746948  1.0000
  Co  Co3       1.0  0.783169892860009  0.7294994526238838  0.5212346568678967  1.0000
  H   H1        1.0  0.5984434805404463  0.21821912933413048  0.8925615640508439  1.0000
  H   H2        1.0  0.40180193332891184  0.7816939399269316  0.10786153361275531  1.0000
  H   H3        1.0  0.6751008767809878  0.036760747215915004  0.13661227177622237  1.0000
  H   H4        1.0  0.3253391467890766  0.9629458945478505  0.8636114785084386  1.0000
  H   H5        1.0  0.639033242773408  0.5323644147574244  0.16603854717732947  1.0000
  H   H6        1.0  0.36147499989708354  0.4672334832599674  0.8340604088809865  1.0000
  H   H7        1.0  0.707112488016094  0.6210768888307997  0.9234665773941156  1.0000
  H   H8        1.0  0.2934128277005002  0.3784675949991865  0.07663192439525089  1.0000
  H   H9        1.0  0.8942041343091063  0.22469974049085548  0.3012571662515242  1.0000
  H   H10       1.0  0.10554596482622006  0.7753562425941566  0.6986133569082184  1.0000
  H   H11       1.0  0.8589875120330674  0.9937180349046387  0.3164125768983438  1.0000
  H   H12       1.0  0.1409173224916955  0.0062191175735222  0.6836362300810989  1.0000
  H   H13       1.0  0.6908681201480533  0.8845844399748941  0.6951053854070749  1.0000
  H   H14       1.0  0.3087893535144133  0.11562009556820393  0.3048043455473959  1.0000
  H   H15       1.0  0.7178026007360855  0.11244973718964253  0.6957646429905465  1.0000
  H   H16       1.0  0.2820425614197364  0.8876222219740696  0.30417840517460343  1.0000
  C   C1        1.0  0.41205835340043956  0.2096298312290727  0.7180356284100496  1.0000
  C   C2        1.0  0.5887030129340687  0.7899217504779514  0.28208337983584625  1.0000
  C   C3        1.0  0.45694959691560666  0.10145836800005274  0.8640046534900419  1.0000
  C   C4        1.0  0.543272152028706  0.8984635277313872  0.13622857335892735  1.0000
  C   C5        1.0  0.5565522161194566  0.12202587078656532  0.9405681780517979  1.0000
  C   C6        1.0  0.4435747968915393  0.8779466802559951  0.05973386443903193  1.0000
  C   C7        1.0  0.5990447130370454  0.02133972441028221  0.07568275008799928  1.0000
  C   C8        1.0  0.4011758411128738  0.9785592520803592  0.9245739763445537  1.0000
  C   C9        1.0  0.423133807335141  0.3979512454032914  0.2803506933872626  1.0000
  C   C10       1.0  0.5768463520016168  0.6023493978429214  0.7196210296794233  1.0000
  C   C11       1.0  0.4628085536618585  0.44986607194370265  0.13559880095578333  1.0000
  C   C12       1.0  0.5374497785494371  0.5500052715614457  0.8644562865586279  1.0000
  C   C13       1.0  0.5797881985248737  0.5180789404752772  0.09245969682142166  1.0000
  C   C14       1.0  0.42057649713856904  0.48166947854798536  0.9076141134184041  1.0000
  C   C15       1.0  0.6166608148532832  0.5677246255121347  0.9580453202569075  1.0000
  C   C16       1.0  0.3837305563640713  0.4319908564455304  0.04203954396574251  1.0000
  C   C17       1.0  0.9453819640257706  0.46343336294323484  0.5027731877597857  1.0000
  C   C18       1.0  0.05391111498894219  0.5371137916243357  0.49655205874467606  1.0000
  C   C19       1.0  0.8388920269730916  0.3127661962574351  0.5016759188622828  1.0000
  C   C20       1.0  0.1606846083881734  0.6874536596776721  0.4981715240076453  1.0000
  C   C21       1.0  0.8108320656328232  0.18543601446914695  0.49930573075545936  1.0000
  C   C22       1.0  0.18880175868606136  0.8147822018062172  0.5005278211044342  1.0000
  C   C23       1.0  0.8492986391370964  0.15202603078880364  0.390524233518633  1.0000
  C   C24       1.0  0.15037295388466274  0.8481079374458461  0.6093464456219521  1.0000
  C   C25       1.0  0.8296901415770181  0.024393447119671  0.3983179590486472  1.0000
  C   C26       1.0  0.16999506370952844  0.9757195014910778  0.6015981851514666  1.0000
  C   C27       1.0  0.7349389132460972  0.9636578245542393  0.6101805864176126  1.0000
  C   C28       1.0  0.26465909609819255  0.03655617543874  0.38970450037493254  1.0000
  C   C29       1.0  0.7498750048359851  0.0897079502948515  0.6098393892946063  1.0000
  C   C30       1.0  0.24979869555548379  0.9104771050856683  0.39002093991424397  1.0000
  N   N1        1.0  0.977286355261569  0.34182104893527304  0.48486684847348016  1.0000
  N   N2        1.0  0.02206164165541937  0.6588832280333037  0.5142043707407282  1.0000
  N   N3        1.0  0.8036354799415549  0.5095646008526628  0.5276420832450198  1.0000
  N   N4        1.0  0.19586250058301855  0.49040361297598184  0.47251213171784195  1.0000
  N   N5        1.0  0.7331101824235375  0.41299531292139596  0.5267962204931533  1.0000
  N   N6        1.0  0.2664817714307759  0.5868575021058788  0.47363279397541874  1.0000
  N   N7        1.0  0.7764618284012527  0.9294895001873658  0.507258294519637  1.0000
  N   N8        1.0  0.22310530133917442  0.07071393787404653  0.49263377854060747  1.0000
  O   O1        1.0  0.4700860050251166  0.3149969128561522  0.6666463333836175  1.0000
  O   O2        1.0  0.5289496434266496  0.6858401386898834  0.33411813778756977  1.0000
  O   O3        1.0  0.3194832843665694  0.18103526973398232  0.6574282592355302  1.0000
  O   O4        1.0  0.6837432714651827  0.8172133022228322  0.34155753400395383  1.0000
  O   O5        1.0  0.49791011972536847  0.414685427474666  0.36140383402138093  1.0000
  O   O6        1.0  0.5018957105551678  0.5864831333383618  0.6380986807276654  1.0000
  O   O7        1.0  0.3152506481218609  0.33499144712769185  0.3110906489057967  1.0000
  O   O8        1.0  0.6848060033885089  0.6652554397925029  0.6890343070182892  1.0000
