data_image0
_chemical_formula_structural       CuH24C24N12Cl2
_chemical_formula_sum              "Cu1 H24 C24 N12 Cl2"
_cell_length_a       7.547162999446053
_cell_length_b       8.324680682533465
_cell_length_c       11.100362725213486
_cell_angle_alpha    77.87965620461209
_cell_angle_beta     88.60730865662663
_cell_angle_gamma    72.14516064704645

_space_group_name_H-M_alt    "P 1"
_space_group_IT_number       1

loop_
  _space_group_symop_operation_xyz
  'x, y, z'

loop_
  _atom_site_type_symbol
  _atom_site_label
  _atom_site_symmetry_multiplicity
  _atom_site_fract_x
  _atom_site_fract_y
  _atom_site_fract_z
  _atom_site_occupancy
  Cu  Cu1       1.0  0.9999967395746766  1.8701872974991382e-06  0.9999985066337442  1.0000
  H   H1        1.0  0.21494136779887194  0.48305336807604965  0.3999270871648121  1.0000
  H   H2        1.0  0.7850635255037234  0.5169529733997962  0.6000713241225737  1.0000
  H   H3        1.0  0.6368369969617903  0.1010892510235024  0.6493176521497047  1.0000
  H   H4        1.0  0.363164776250642  0.8989145106680851  0.35068121746080283  1.0000
  H   H5        1.0  0.8021388778964536  0.9909691152593538  0.471852202551716  1.0000
  H   H6        1.0  0.19785934661710772  0.0090333582583781  0.528146925416408  1.0000
  H   H7        1.0  0.6697684333514645  0.1261951435819952  0.2578176132795704  1.0000
  H   H8        1.0  0.3302306135125903  0.873800867768537  0.7421816338634811  1.0000
  H   H9        1.0  0.2914512706139334  0.5322590522099944  0.1704037709462156  1.0000
  H   H10       1.0  0.7085522024708624  0.4677356430507231  0.8295920173035821  1.0000
  H   H11       1.0  0.4550855399674918  0.3612082350937058  0.11680623308707536  1.0000
  H   H12       1.0  0.5449183167068555  0.6387813001316403  0.8831912746054654  1.0000
  H   H13       1.0  0.42206144570135956  0.36941415176013953  0.7132811697550065  1.0000
  H   H14       1.0  0.5779455354734323  0.6305818737601713  0.2867215610705074  1.0000
  H   H15       1.0  0.23312012479451744  0.5081953539990353  0.6101658729337345  1.0000
  H   H16       1.0  0.7668860137253548  0.4918071547313544  0.3898403391835216  1.0000
  H   H17       1.0  0.7807317339167881  0.3476034434409385  0.11010048727325737  1.0000
  H   H18       1.0  0.2192661323877587  0.6524041638085761  0.8898924206687864  1.0000
  H   H19       1.0  0.35336077875953725  0.0948413124736049  0.09408255880192938  1.0000
  H   H20       1.0  0.6466350275193806  0.9051444138070366  0.9059255863187301  1.0000
  H   H21       1.0  0.8411937852431707  0.15898249587495172  0.7216091354487373  1.0000
  H   H22       1.0  0.15880451474620122  0.8410238145034441  0.27838307234215154  1.0000
  H   H23       1.0  0.3369697599153413  0.1704806408645112  0.8824522415892415  1.0000
  H   H24       1.0  0.6630231310647831  0.8295218687995886  0.11755236493502251  1.0000
  C   C1        1.0  0.4326464004484265  0.3117806643104331  0.31487786518593447  1.0000
  C   C2        1.0  0.567355287801803  0.6882153552705004  0.6851231432623806  1.0000
  C   C3        1.0  0.34405228996742215  0.37546856646805793  0.4150701332087222  1.0000
  C   C4        1.0  0.6559521246311917  0.624535203453938  0.5849304977070557  1.0000
  C   C5        1.0  0.41884342953058273  0.3026136027214859  0.5350501976391158  1.0000
  C   C6        1.0  0.5811601082119824  0.6973888556927577  0.4649470522395374  1.0000
  C   C7        1.0  0.5829048907039153  0.1627461098286176  0.5550707548581497  1.0000
  C   C8        1.0  0.4170964437475889  0.8372589539948122  0.4449297150201871  1.0000
  C   C9        1.0  0.6744338960340956  0.1000972508911815  0.455919444517029  1.0000
  C   C10       1.0  0.3255704938497886  0.8999026295629804  0.5440791054093168  1.0000
  C   C11       1.0  0.5993514588606318  0.1747813056131093  0.3359488154833769  1.0000
  C   C12       1.0  0.40064979570477277  0.8252160108389434  0.6640528931161  1.0000
  C   C13       1.0  0.34967712569624615  0.39133102980696316  0.18571183292170448  1.0000
  C   C14       1.0  0.6503214824068736  0.6086662836753974  0.8142890144891766  1.0000
  C   C15       1.0  0.3217741624760465  0.37406872721042106  0.6415740423402096  1.0000
  C   C16       1.0  0.678233347498001  0.6259337330279919  0.35842404926300725  1.0000
  C   C17       1.0  0.9307248522210334  0.3156380909080169  0.12091147954998148  1.0000
  C   C18       1.0  0.06927116459117857  0.6843630775081948  0.8790851869617241  1.0000
  C   C19       1.0  0.2209460641968306  0.18379019503418453  0.1112250465626801  1.0000
  C   C20       1.0  0.7790520151070341  0.8162006837300808  0.8887804400704905  1.0000
  C   C21       1.0  0.971953775748219  0.18278208713445573  0.7335909437151287  1.0000
  C   C22       1.0  0.02804669199945653  0.8172216546597825  0.26640434489275566  1.0000
  C   C23       1.0  0.22011524637932212  0.18664179516311918  0.8202568785926301  1.0000
  C   C24       1.0  0.7798833915146234  0.8133594025263662  0.17974514969100847  1.0000
  N   N1        1.0  0.20031057726690452  0.3263923457485874  0.15499573361697827  1.0000
  N   N2        1.0  0.7996924367525154  0.6736036726868306  0.8450052553673046  1.0000
  N   N3        1.0  0.016098561694526812  0.4122363143437937  0.16272183723153683  1.0000
  N   N4        1.0  0.9839018959009351  0.5877674379718769  0.8372752516096753  1.0000
  N   N5        1.0  0.05180364705943674  0.17313457682671188  0.08856311393295609  1.0000
  N   N6        1.0  0.9481914522878584  0.8268653221674853  0.9114373724749641  1.0000
  N   N7        1.0  0.20254285763599  0.275329183716309  0.7032510722584957  1.0000
  N   N8        1.0  0.7974606699543613  0.7246732852193675  0.2967479778534993  1.0000
  N   N9        1.0  0.045485876111172295  0.27450027615859807  0.6459491646284263  1.0000
  N   N10       1.0  0.9545163257099819  0.7255021939225942  0.35404990494759386  1.0000
  N   N11       1.0  0.07471208554062511  0.1257967037033296  0.8421477372151784  1.0000
  N   N12       1.0  0.9252825953501684  0.8742044763798376  0.1578507489938943  1.0000
  Cl  Cl1       1.0  0.3793726898693209  0.7975324874191755  0.0498601721163396  1.0000
  Cl  Cl2       1.0  0.6206219757931423  0.20246870844614048  0.9501410144427355  1.0000
