data_image0
_chemical_formula_structural       NiH28C36Br4N8O4
_chemical_formula_sum              "Ni1 H28 C36 Br4 N8 O4"
_cell_length_a       8.77499238469127
_cell_length_b       9.415778321462223
_cell_length_c       12.309300735139136
_cell_angle_alpha    68.08840450614471
_cell_angle_beta     75.5773829813889
_cell_angle_gamma    89.12117120979929

_space_group_name_H-M_alt    "P 1"
_space_group_IT_number       1

loop_
  _space_group_symop_operation_xyz
  'x, y, z'

loop_
  _atom_site_type_symbol
  _atom_site_label
  _atom_site_symmetry_multiplicity
  _atom_site_fract_x
  _atom_site_fract_y
  _atom_site_fract_z
  _atom_site_occupancy
  Ni  Ni1       1.0  0.4999961917815553  4.070994926109396e-06  0.9999962622833752  1.0000
  H   H1        1.0  0.603774772885778  0.8743716284828195  0.8019050258754918  1.0000
  H   H2        1.0  0.39622082486656757  0.1256269437144724  0.19809119836253333  1.0000
  H   H3        1.0  0.6283807999876528  0.6993392353847766  0.16604984056696287  1.0000
  H   H4        1.0  0.3716175725875246  0.30067668515830087  0.8339456017595669  1.0000
  H   H5        1.0  0.7765322612585165  0.5057956237313873  0.05330746515361536  1.0000
  H   H6        1.0  0.22346426961138377  0.49421239208204065  0.9466963471700542  1.0000
  H   H7        1.0  0.7342609660132736  0.6810756288185758  0.7259080405139927  1.0000
  H   H8        1.0  0.2657341483919069  0.3189172767572188  0.2740932048926582  1.0000
  H   H9        1.0  0.7304335953985797  0.49511706575547965  0.8370047420560954  1.0000
  H   H10       1.0  0.2695651474739265  0.504876069031539  0.1630055274054456  1.0000
  H   H11       1.0  0.9820507653456191  0.7977204022005822  0.8454217866776478  1.0000
  H   H12       1.0  0.0179486871985119  0.20226710350046057  0.15459490145995156  1.0000
  H   H13       1.0  0.2741169932040322  0.8222478627538761  0.7832212562479558  1.0000
  H   H14       1.0  0.7258835864776072  0.17773952500980528  0.21679038735357647  1.0000
  H   H15       1.0  0.41770730171899834  0.667776843921139  0.6682732386897926  1.0000
  H   H16       1.0  0.5822927995116203  0.3322185289740317  0.33173368194324143  1.0000
  H   H17       1.0  0.26830822284740913  0.4923285300065883  0.6180272369451175  1.0000
  H   H18       1.0  0.7316879274724001  0.5076622319662079  0.38198095756033035  1.0000
  H   H19       1.0  0.8563656090756027  0.4815355891009148  0.633809249530451  1.0000
  H   H20       1.0  0.14363644535301032  0.5184688568295996  0.36618974633148593  1.0000
  H   H21       1.0  0.0342649103362902  0.39216364267514336  0.6114744485117358  1.0000
  H   H22       1.0  0.9657397613504981  0.6078432343719269  0.3885290380726048  1.0000
  H   H23       1.0  0.6513511620067689  0.26906384368847114  0.7503533205024485  1.0000
  H   H24       1.0  0.3486454600860256  0.730946197790594  0.2496384981863572  1.0000
  H   H25       1.0  0.05670974105319001  0.2538613921429373  0.8839285293452764  1.0000
  H   H26       1.0  0.9432879863501711  0.7461221046868401  0.11606609947624943  1.0000
  H   H27       1.0  0.8228666265479345  0.027446761674738696  0.056646922112136636  1.0000
  H   H28       1.0  0.17712850052805607  0.9725470789974292  0.9433451054553362  1.0000
  C   C1        1.0  0.4795911351525248  0.15547156117705188  0.6712942592915853  1.0000
  C   C2        1.0  0.5204341371337619  0.8445430438036322  0.3286910071969233  1.0000
  C   C3        1.0  0.4939255440334519  0.08095065418565638  0.5780114177851349  1.0000
  C   C4        1.0  0.5060821285157715  0.9190386152087129  0.42198131737277605  1.0000
  C   C5        1.0  0.36443264187007424  0.06546800334181312  0.5352428038647334  1.0000
  C   C6        1.0  0.6355667821690645  0.9345203402850542  0.46476064015649854  1.0000
  C   C7        1.0  0.3686796620357882  0.9843269034042874  0.45986704265423856  1.0000
  C   C8        1.0  0.6313319487534345  0.0156660418160683  0.5401336364704221  1.0000
  C   C9        1.0  0.6330810144472352  0.801623044257738  0.8844893273666232  1.0000
  C   C10       1.0  0.3669126597087384  0.19838016495952357  0.11550749327165737  1.0000
  C   C11       1.0  0.648097866499178  0.7063470985877273  0.0733689658213877  1.0000
  C   C12       1.0  0.3518954901094419  0.2936653806713707  0.9266284086070729  1.0000
  C   C13       1.0  0.7198579016205074  0.6102532982786286  0.018719541326475922  1.0000
  C   C14       1.0  0.28013613995425857  0.38975349359215977  0.9812818360117321  1.0000
  C   C15       1.0  0.7780322945736985  0.6150458045038789  0.8052077016928438  1.0000
  C   C16       1.0  0.2219677198696814  0.3849484583879245  0.19480118948042977  1.0000
  C   C17       1.0  0.9572939998329131  0.6291891222453642  0.769456511877188  1.0000
  C   C18       1.0  0.042707587718851414  0.37080969593187524  0.23054911566426042  1.0000
  C   C19       1.0  0.04380288492572498  0.7291351911093924  0.7965331029040361  1.0000
  C   C20       1.0  0.95619252658134  0.27086022598478365  0.20347628025366055  1.0000
  C   C21       1.0  0.2089639460734531  0.7430269191932624  0.7614519510769501  1.0000
  C   C22       1.0  0.7910266395118555  0.2569673154918987  0.23855703361305564  1.0000
  C   C23       1.0  0.2890979366764626  0.6575440357793738  0.697294497598094  1.0000
  C   C24       1.0  0.7108977681329661  0.3424547890613425  0.3027121949606055  1.0000
  C   C25       1.0  0.204307891000191  0.5583507147944855  0.6686503002822309  1.0000
  C   C26       1.0  0.7956830993801987  0.44164809594291643  0.33135643903482764  1.0000
  C   C27       1.0  0.039016802154073105  0.5430526972487542  0.7046018212228946  1.0000
  C   C28       1.0  0.9609753565396204  0.4569460927218358  0.29540389983527165  1.0000
  C   C29       1.0  0.9514924466261832  0.43073474841749265  0.6757848822427663  1.0000
  C   C30       1.0  0.0485072382351674  0.5692696613101943  0.3242129291151984  1.0000
  C   C31       1.0  0.7284548832468046  0.2318883977192741  0.8114683552130163  1.0000
  C   C32       1.0  0.27153782911098284  0.7681171300079652  0.18852876362539933  1.0000
  C   C33       1.0  0.939718562321751  0.22075782318021447  0.8825695010243993  1.0000
  C   C34       1.0  0.06027660593004211  0.7792361146625025  0.11742655282025548  1.0000
  C   C35       1.0  0.8248136865567232  0.10938981678415158  0.9666837420120377  1.0000
  C   C36       1.0  0.17517943013564968  0.8906075509046117  0.03331085249595137  1.0000
  Br  Br1       1.0  0.18353762822637518  0.9517439112416709  0.4153796639568058  1.0000
  Br  Br2       1.0  0.8164622796204242  0.048262835097418105  0.5846190378532798  1.0000
  Br  Br3       1.0  0.178753002926328  0.15743795124114257  0.5856392944861284  1.0000
  Br  Br4       1.0  0.8212478448917082  0.8425400498760353  0.4143669637926097  1.0000
  N   N1        1.0  0.5959423891437085  0.8250480737898298  0.9877346900805722  1.0000
  N   N2        1.0  0.4040540429042849  0.17495970881427067  0.012259459177862204  1.0000
  N   N3        1.0  0.7094981556525608  0.6722084946548391  0.8998981521753042  1.0000
  N   N4        1.0  0.29049310332471384  0.32779366552677647  0.10010348077643982  1.0000
  N   N5        1.0  0.8769187956190547  0.29653945054559466  0.7856520890369512  1.0000
  N   N6        1.0  0.1230806415513825  0.7034625642683636  0.2143424161025891  1.0000
  N   N7        1.0  0.6947331250890157  0.118386214558825  0.9208447213997534  1.0000
  N   N8        1.0  0.3052560411530436  0.8816192782982881  0.07915142593813583  1.0000
  O   O1        1.0  0.42919003042936776  0.060199797757853384  0.7798190023213183  1.0000
  O   O2        1.0  0.5708545164028039  0.9398185628943099  0.22017546536628174  1.0000
  O   O3        1.0  0.5182283812088002  0.29706264847045105  0.633274310201422  1.0000
  O   O4        1.0  0.48179379980392417  0.7029584261874291  0.3666917195015671  1.0000
