data_image0
_chemical_formula_structural       Cu4H12C16N8Cl8
_chemical_formula_sum              "Cu4 H12 C16 N8 Cl8"
_cell_length_a       3.708053473600469
_cell_length_b       12.587621450291724
_cell_length_c       12.779630864006482
_cell_angle_alpha    90.00010018070985
_cell_angle_beta     90.00007250168518
_cell_angle_gamma    91.85797816563598

_space_group_name_H-M_alt    "P 1"
_space_group_IT_number       1

loop_
  _space_group_symop_operation_xyz
  'x, y, z'

loop_
  _atom_site_type_symbol
  _atom_site_label
  _atom_site_symmetry_multiplicity
  _atom_site_fract_x
  _atom_site_fract_y
  _atom_site_fract_z
  _atom_site_occupancy
  Cu  Cu1       1.0  0.4556800152185474  0.6822063182209844  0.6537316518697267  1.0000
  Cu  Cu2       1.0  0.4556927331984966  0.18220545683170283  0.8462711826048803  1.0000
  Cu  Cu3       1.0  0.5443228402954503  0.31779433961627024  0.34627018527372405  1.0000
  Cu  Cu4       1.0  0.5443154579310631  0.8177944226491219  0.153730654538947  1.0000
  H   H1        1.0  0.21190698261130336  0.38528430204210196  0.9227883966518462  1.0000
  H   H2        1.0  0.2119099001720741  0.8852819038305029  0.5772061042899069  1.0000
  H   H3        1.0  0.7880853803818225  0.6147202969257748  0.0772110930074419  1.0000
  H   H4        1.0  0.7880927766141497  0.11471636958168566  0.4227894728895976  1.0000
  H   H5        1.0  0.6874600221726298  0.2912018531902447  0.6431191397113665  1.0000
  H   H6        1.0  0.6874423196010895  0.7911974788793754  0.8568800768991522  1.0000
  H   H7        1.0  0.31254840724522376  0.7088012055175881  0.3568834799306444  1.0000
  H   H8        1.0  0.3125359597071976  0.20879913089724056  0.1431194127499325  1.0000
  H   H9        1.0  0.70657005841376  0.47859369465321316  0.5810024981138824  1.0000
  H   H10       1.0  0.7065687944582069  0.9785894749987563  0.9189978530982758  1.0000
  H   H11       1.0  0.2934436470495783  0.521407790892269  0.4190009040229654  1.0000
  H   H12       1.0  0.293420275221365  0.021407167676855497  0.08100007156260598  1.0000
  C   C1        1.0  0.33892275596162597  0.5107462460916068  0.8108862445629513  1.0000
  C   C2        1.0  0.338929319379666  0.010743512213323899  0.6891107498654563  1.0000
  C   C3        1.0  0.6610775210989247  0.48925599313241  0.1891140275909962  1.0000
  C   C4        1.0  0.6610761145766376  0.9892555642325148  0.31088717480099604  1.0000
  C   C5        1.0  0.3240396779823911  0.40634280235167336  0.8465264551711726  1.0000
  C   C6        1.0  0.32404308494211154  0.9063429178477447  0.653471260091969  1.0000
  C   C7        1.0  0.6759632370969085  0.5936586502895054  0.153472251992163  1.0000
  C   C8        1.0  0.6759570133938484  0.09365693695253438  0.3465243170884662  1.0000
  C   C9        1.0  0.5844204134037126  0.35371792253044265  0.6923733374807456  1.0000
  C   C10       1.0  0.584411019958999  0.8537190530400947  0.8076243870738793  1.0000
  C   C11       1.0  0.4155874798674688  0.6462779829174538  0.3076284996593657  1.0000
  C   C12       1.0  0.4155755308403783  0.1462799658295282  0.1923727550934586  1.0000
  C   C13       1.0  0.5940024053658419  0.45788509242900927  0.657338776872919  1.0000
  C   C14       1.0  0.5940035875904145  0.9578815463929543  0.8426591429824698  1.0000
  C   C15       1.0  0.4060114192328753  0.5421179827263245  0.3426607127893462  1.0000
  C   C16       1.0  0.40598829882771537  0.042116694121574504  0.15733956417566466  1.0000
  N   N1        1.0  0.4694968810254494  0.5385993789574073  0.7159320673831217  1.0000
  N   N2        1.0  0.4695039504148183  0.0385983956667744  0.7840658138718127  1.0000
  N   N3        1.0  0.5305113101025184  0.4614005005227568  0.2840689872654849  1.0000
  N   N4        1.0  0.5304933907606326  0.9614006561038337  0.2159321107929628  1.0000
  N   N5        1.0  0.44713973286245323  0.32655950338516954  0.7871412800727029  1.0000
  N   N6        1.0  0.447132412660153  0.826557302236786  0.7128579036866824  1.0000
  N   N7        1.0  0.55285784661244  0.6734427276170859  0.21286290455676496  1.0000
  N   N8        1.0  0.5528622309232744  0.1734417413094036  0.2871408034727523  1.0000
  Cl  Cl1       1.0  0.9543793301510703  0.6811108709921216  0.5377041443834472  1.0000
  Cl  Cl2       1.0  0.9543926399530774  0.18111179591638654  0.9623004560680783  1.0000
  Cl  Cl3       1.0  0.04562070862596101  0.31888818900688426  0.4622976927579644  1.0000
  Cl  Cl4       1.0  0.04560733925706732  0.81888646927802  0.0377037285582347  1.0000
  Cl  Cl5       1.0  0.19579592023398357  0.6109443955870971  0.8908987907026072  1.0000
  Cl  Cl6       1.0  0.1958185815424258  0.1109447546415794  0.6090975470859661  1.0000
  Cl  Cl7       1.0  0.8041963831858752  0.38905940857352306  0.1090999164607283  1.0000
  Cl  Cl8       1.0  0.8041923071727836  0.8890551330610136  0.3909003775823408  1.0000
