data_image0
_chemical_formula_structural       Li3H9C21N6O18
_chemical_formula_sum              "Li3 H9 C21 N6 O18"
_cell_length_a       5.80800630077721
_cell_length_b       10.938425061338837
_cell_length_c       10.93841788367834
_cell_angle_alpha    119.99931691078856
_cell_angle_beta     90.012184339444
_cell_angle_gamma    89.98713434206816

_space_group_name_H-M_alt    "P 1"
_space_group_IT_number       1

loop_
  _space_group_symop_operation_xyz
  'x, y, z'

loop_
  _atom_site_type_symbol
  _atom_site_label
  _atom_site_symmetry_multiplicity
  _atom_site_fract_x
  _atom_site_fract_y
  _atom_site_fract_z
  _atom_site_occupancy
  Li  Li1       1.0  0.9999943965035174  0.09414126238883821  0.09414410290315091  1.0000
  Li  Li2       1.0  0.33339920155586356  0.9059164158008173  4.09657205224786e-05  1.0000
  Li  Li3       1.0  0.6666013428772644  3.829527774709999e-05  0.9059191677020099  1.0000
  H   H1        1.0  0.14313318837748307  0.7204521337690295  0.1252104873927139  1.0000
  H   H2        1.0  0.47617809388204074  0.8747271602449161  0.5952551770420699  1.0000
  H   H3        1.0  0.8568611642750382  0.1252168242799314  0.7204692568510256  1.0000
  H   H4        1.0  0.8095998988103402  0.4047587294476145  0.2795378281202901  1.0000
  H   H5        1.0  0.1903756483199786  0.27954405077701244  0.40476240495074495  1.0000
  H   H6        1.0  0.5238176751341256  0.5952623211240609  0.8747292266402414  1.0000
  H   H7        1.0  0.8335361807125993  0.31538405255707863  0.9999794333722892  1.0000
  H   H8        1.0  0.1664472710103553  0.9999992249770463  0.3153967438384702  1.0000
  H   H9        1.0  0.49998985713017424  0.6846155112407146  0.6846195804653308  1.0000
  C   C1        1.0  0.83338386796796  0.8106779805135318  6.548460810105227e-06  1.0000
  C   C2        1.0  0.1666194958291385  0.9999948593623815  0.8106736951967765  1.0000
  C   C3        1.0  0.4999938367813924  0.18935478416887014  0.18934984665252594  1.0000
  C   C4        1.0  0.8334105989098646  0.6727552818844699  1.1074715352796341e-05  1.0000
  C   C5        1.0  0.16657024872799298  3.685457299999376e-09  0.6727532097769429  1.0000
  C   C6        1.0  0.49998880594382905  0.3272712839864838  0.3272707622351022  1.0000
  C   C7        1.0  0.006664650654322199  0.6440938278226156  0.07075088064576113  1.0000
  C   C8        1.0  0.3397181706684336  0.9292323152526478  0.5733471201315297  1.0000
  C   C9        1.0  0.9933225975573378  0.07075454988648741  0.6440975172179437  1.0000
  C   C10       1.0  0.6731847903080208  0.42665471805428723  0.35594156420933143  1.0000
  C   C11       1.0  0.32678962604600775  0.3559405790023434  0.4266568823730098  1.0000
  C   C12       1.0  0.6602686155280183  0.5733496235441109  0.9292364377916303  1.0000
  C   C13       1.0  0.0020816782614901  0.5163486916267672  0.06987865612615003  1.0000
  C   C14       1.0  0.3350600293035697  0.9300419755774386  0.4464563009634121  1.0000
  C   C15       1.0  0.9979053292528661  0.0698927533906826  0.5163632861125863  1.0000
  C   C16       1.0  0.6686018898178573  0.5535126684759322  0.48365681585119824  1.0000
  C   C17       1.0  0.3313799251508129  0.4836616508272087  0.5535188446171235  1.0000
  C   C18       1.0  0.6649264860350143  0.44645492141697923  0.9300369431185375  1.0000
  C   C19       1.0  0.8335328918230259  0.41477191669874713  0.9999590970501019  1.0000
  C   C20       1.0  0.1664531830340152  0.9999703153876357  0.4147791328768522  1.0000
  C   C21       1.0  0.49998755841480147  0.5852261989474103  0.5852317627833231  1.0000
  N   N1        1.0  0.18418565380990506  0.4830985378097949  0.14165003394526823  1.0000
  N   N2        1.0  0.5171753963616511  0.8582993360439632  0.34146890399939894  1.0000
  N   N3        1.0  0.8158009092266028  0.14166692762783842  0.48311153834019666  1.0000
  N   N4        1.0  0.8506388459873265  0.6585285527054907  0.5168959519741494  1.0000
  N   N5        1.0  0.14933621211752515  0.5168990112411507  0.6585353807429543  1.0000
  N   N6        1.0  0.48281315207268694  0.3414720218696701  0.8582886133549794  1.0000
  O   O1        1.0  0.0105732628012447  0.8888550313270261  0.04820733191456126  1.0000
  O   O2        1.0  0.3438186063776456  0.9517902941764408  0.8406495502970447  1.0000
  O   O3        1.0  0.9894217595378193  0.048201592919617994  0.8888616109413906  1.0000
  O   O4        1.0  0.677128189081472  0.1593930846611613  0.11114175618411085  1.0000
  O   O5        1.0  0.32285040018707173  0.11114225092165948  0.15938675693553256  1.0000
  O   O6        1.0  0.656182058298576  0.8406581372431817  0.9517944431998945  1.0000
  O   O7        1.0  0.3462807528139038  0.5672125493413988  0.19480171924463738  1.0000
  O   O8        1.0  0.6793099793163863  0.8052054598653555  0.3724600653013894  1.0000
  O   O9        1.0  0.6537093949156725  0.19482231674622602  0.5672299359545364  1.0000
  O   O10       1.0  0.012683814568262605  0.6275599408304585  0.43277101049571354  1.0000
  O   O11       1.0  0.987285681180296  0.4327748165287276  0.6275641236162743  1.0000
  O   O12       1.0  0.3206994843287418  0.37246003016205265  0.8051891004741666  1.0000
  O   O13       1.0  0.16781619390325628  0.37033332887826026  0.14250566938245876  1.0000
  O   O14       1.0  0.500717506138308  0.857454179644684  0.22783978940845653  1.0000
  O   O15       1.0  0.8321630497040148  0.1425167646862349  0.37034370036249703  1.0000
  O   O16       1.0  0.8342100465303018  0.7721484136418226  0.6296576087664861  1.0000
  O   O17       1.0  0.16576412794616863  0.6296550092480829  0.7721569650604112  1.0000
  O   O18       1.0  0.4992637536565283  0.22783980170740387  0.8574501285338131  1.0000
