data_image0
_chemical_formula_structural       K2H42C40S4Cl4O8
_chemical_formula_sum              "K2 H42 C40 S4 Cl4 O8"
_cell_length_a       7.281137192223638
_cell_length_b       9.35502027288404
_cell_length_c       17.05750690344426
_cell_angle_alpha    77.93891117543818
_cell_angle_beta     76.99079406107377
_cell_angle_gamma    84.87565042680036

_space_group_name_H-M_alt    "P 1"
_space_group_IT_number       1

loop_
  _space_group_symop_operation_xyz
  'x, y, z'

loop_
  _atom_site_type_symbol
  _atom_site_label
  _atom_site_symmetry_multiplicity
  _atom_site_fract_x
  _atom_site_fract_y
  _atom_site_fract_z
  _atom_site_occupancy
  K   K1        1.0  0.6382448893596688  0.6881314597450652  0.9638020640358248  1.0000
  K   K2        1.0  0.3617597010668945  0.3118662943458901  0.036203859778844064  1.0000
  H   H1        1.0  0.3880976388720613  0.9129998655847229  0.5587698759415787  1.0000
  H   H2        1.0  0.6118778389001349  0.08699234325417389  0.4412363015807229  1.0000
  H   H3        1.0  0.5506798276513222  0.8277446065371236  0.6200491716534983  1.0000
  H   H4        1.0  0.44929057237624903  0.17223883480671273  0.37995787709655804  1.0000
  H   H5        1.0  0.3084446235213036  0.7997004344898714  0.6558247513948315  1.0000
  H   H6        1.0  0.6915243924067837  0.20030054757224036  0.344186840221269  1.0000
  H   H7        1.0  0.3525049597669607  0.16747951732249794  0.551338201175916  1.0000
  H   H8        1.0  0.6474818570867386  0.8325116198064322  0.44866710925563064  1.0000
  H   H9        1.0  0.20580388424385632  0.4386308804989127  0.7881402127703365  1.0000
  H   H10       1.0  0.7942088571364962  0.5613821427173349  0.21185091899585726  1.0000
  H   H11       1.0  0.418597205928414  0.3799358362358163  0.8223670647825188  1.0000
  H   H12       1.0  0.5814110070375378  0.6200826461569164  0.17762324510883326  1.0000
  H   H13       1.0  0.4255481708926682  0.4951041179564725  0.7246187704139117  1.0000
  H   H14       1.0  0.5744610203698386  0.5049001280525544  0.2753707546609191  1.0000
  H   H15       1.0  0.40979572458458335  0.11855413929434627  0.8395065448251058  1.0000
  H   H16       1.0  0.590205513717365  0.8814577986355019  0.16049158161298036  1.0000
  H   H17       1.0  0.10687267516887287  0.860695591516361  0.8621876623268034  1.0000
  H   H18       1.0  0.8931201474494161  0.13929334350938655  0.13781268678933148  1.0000
  H   H19       1.0  0.1511349949116649  0.7426165040567624  0.7901165530563574  1.0000
  H   H20       1.0  0.8488749059079623  0.2573691853176641  0.20988326514412844  1.0000
  H   H21       1.0  0.6877668365461744  0.6094071197148522  0.7449543276898892  1.0000
  H   H22       1.0  0.3122372131086379  0.39060591170888154  0.255042253830041  1.0000
  H   H23       1.0  0.9356437777592674  0.6026985928759314  0.7336557227316048  1.0000
  H   H24       1.0  0.06436946997718711  0.3973045924348213  0.2663382615273235  1.0000
  H   H25       1.0  0.8340645009231338  0.6569236745996035  0.6457217379774461  1.0000
  H   H26       1.0  0.16594439406741657  0.343080602700347  0.35427367319795877  1.0000
  H   H27       1.0  0.8353156143048537  0.4823344611487812  0.5653506469213736  1.0000
  H   H28       1.0  0.16466983203584817  0.5176599305741262  0.4346497158877368  1.0000
  H   H29       1.0  0.7890347715624345  0.9498921441429998  0.6297089724710289  1.0000
  H   H30       1.0  0.21094281069929371  0.0501099301134502  0.370298225871167  1.0000
  H   H31       1.0  0.8901254319346847  0.899967469394902  0.7179536158959647  1.0000
  H   H32       1.0  0.10984641809033488  0.10003569091744419  0.2820545442315279  1.0000
  H   H33       1.0  0.03454050973630268  0.9558415925300354  0.6186818385023826  1.0000
  H   H34       1.0  0.9654336229607452  0.0441451709482763  0.3813303636907364  1.0000
  H   H35       1.0  0.8726019845929898  0.07232869560111509  0.7982374689399234  1.0000
  H   H36       1.0  0.1273936812798127  0.9276777885555275  0.20176705260562497  1.0000
  H   H37       1.0  0.045183920845289514  0.1426908737957788  0.8779130917335607  1.0000
  H   H38       1.0  0.9548376789513069  0.8573145134984229  0.12207932156146482  1.0000
  H   H39       1.0  0.9523580389046061  0.21310475660769873  0.9677493093008065  1.0000
  H   H40       1.0  0.047676521270318496  0.7868941035789021  0.03224507156622991  1.0000
  H   H41       1.0  3.935154957395711e-06  0.499992172776011  1.8713536675803765e-06  1.0000
  H   H42       1.0  0.5000154375927651  9.675792142600527e-06  0.9999947276977325  1.0000
  C   C1        1.0  0.40376285477954355  0.0040265330359546  0.7432377633255243  1.0000
  C   C2        1.0  0.596232138465794  0.9959711732637045  0.25676372735079406  1.0000
  C   C3        1.0  0.3911952433410518  0.014610857031300398  0.6608539144741741  1.0000
  C   C4        1.0  0.6087996541395739  0.9853879465410884  0.3391480440719191  1.0000
  C   C5        1.0  0.41011077536315826  0.8826293543346818  0.621739773916282  1.0000
  C   C6        1.0  0.5898602470152879  0.1173661316516004  0.3782670004318617  1.0000
  C   C7        1.0  0.36428891822007614  0.15445399632083218  0.6150617186301728  1.0000
  C   C8        1.0  0.6357001147488007  0.8455480815947423  0.38494096022063923  1.0000
  C   C9        1.0  0.3527984307943157  0.2788841665893926  0.6493821291044666  1.0000
  C   C10       1.0  0.6472036535291396  0.7211157232440398  0.3506149710365349  1.0000
  C   C11       1.0  0.3678229109800313  0.2705355175335313  0.7308089652156793  1.0000
  C   C12       1.0  0.632186152795896  0.7294654804645901  0.2691873967906416  1.0000
  C   C13       1.0  0.3545707796039964  0.4031828628401967  0.7684477988764442  1.0000
  C   C14       1.0  0.645439563109548  0.5968246746621446  0.2315424177187707  1.0000
  C   C15       1.0  0.39377314926581863  0.13007211278427633  0.7763360092237831  1.0000
  C   C16       1.0  0.6062271132535741  0.8699321664649702  0.22366367448524468  1.0000
  C   C17       1.0  0.2018426350428228  0.7722347743793847  0.8404970644735528  1.0000
  C   C18       1.0  0.7981627146183358  0.2277552894151639  0.15950381842255007  1.0000
  C   C19       1.0  0.187412052811645  0.6406972262301236  0.9103193744681164  1.0000
  C   C20       1.0  0.81259353386708  0.35929281253168444  0.08967679954752578  1.0000
  C   C21       1.0  0.8457051942036883  0.3082344817084817  0.7605637800862866  1.0000
  C   C22       1.0  0.15429624939395134  0.691773085904991  0.23943600653306157  1.0000
  C   C23       1.0  0.8352487489205204  0.42584068141542974  0.694354515442889  1.0000
  C   C24       1.0  0.1647638787395138  0.5741669180189959  0.3056460491755857  1.0000
  C   C25       1.0  0.8218396687125066  0.5816453264410056  0.7050782648662518  1.0000
  C   C26       1.0  0.17816621651262213  0.4183611397959978  0.29491832900645676  1.0000
  C   C27       1.0  0.8422847423222776  0.39341205865285644  0.6174658217200816  1.0000
  C   C28       1.0  0.15770712474352416  0.6065921975129528  0.38253342564211573  1.0000
  C   C29       1.0  0.8632621121321479  0.2492321114576441  0.6060305478644494  1.0000
  C   C30       1.0  0.136725865150396  0.7507655776918725  0.3939709715962181  1.0000
  C   C31       1.0  0.8750209638536858  0.13115193817939289  0.6706696841855901  1.0000
  C   C32       1.0  0.12496787070262629  0.868853422167106  0.3293326324443626  1.0000
  C   C33       1.0  0.8982264265431184  0.9758760547992008  0.6589731723768537  1.0000
  C   C34       1.0  0.10175138375836208  0.024122733897236497  0.3410337995761452  1.0000
  C   C35       1.0  0.8645944902150974  0.16409821705970976  0.7478399929790811  1.0000
  C   C36       1.0  0.13539913730569708  0.8358973075357312  0.2521636284868619  1.0000
  C   C37       1.0  0.915031732882568  0.18424688726326366  0.9142103104765551  1.0000
  C   C38       1.0  0.08499263277876423  0.8157574240120837  0.0857843310412179  1.0000
  C   C39       1.0  0.7749886669259354  0.06280830894167619  0.9456085058056016  1.0000
  C   C40       1.0  0.22503117032098885  0.9372014615101492  0.05438531383732937  1.0000
  S   S1        1.0  0.44275260206165973  0.8314752760180895  0.8056735474840336  1.0000
  S   S2        1.0  0.5572449290086536  0.16852463982273494  0.19433039780423655  1.0000
  S   S3        1.0  0.8342306950424855  0.35332302228529494  0.8569661198951053  1.0000
  S   S4        1.0  0.16579185569791832  0.646684590520408  0.14303240315108917  1.0000
  Cl  Cl1       1.0  0.3213644146395327  0.4482805267720309  0.5883615534682035  1.0000
  Cl  Cl2       1.0  0.6786421615879944  0.5517149948994629  0.4116356591973016  1.0000
  Cl  Cl3       1.0  0.8802588587085225  0.21668006539274387  0.5077750847748417  1.0000
  Cl  Cl4       1.0  0.119705530765998  0.7833110143524635  0.4922298468785654  1.0000
  O   O1        1.0  0.3298160528961348  0.5787435386856999  0.9341900650183061  1.0000
  O   O2        1.0  0.6702021386345721  0.42124001051762144  0.06581513989003436  1.0000
  O   O3        1.0  0.014922467754189518  0.6021405170104187  0.9420827573333951  1.0000
  O   O4        1.0  0.9850884818686368  0.39785064901550976  0.05791692229684026  1.0000
  O   O5        1.0  0.8330917803451497  0.933166956565387  0.9455232493887775  1.0000
  O   O6        1.0  0.1669284013556407  0.06683516739732911  0.054473769876381084  1.0000
  O   O7        1.0  0.6008657265954653  0.10356989252785097  0.972718894143419  1.0000
  O   O8        1.0  0.39915291371229245  0.8964344169179341  0.027278007120045772  1.0000
