data_image0
_chemical_formula_structural       Cu6H88C80N4O32
_chemical_formula_sum              "Cu6 H88 C80 N4 O32"
_cell_length_a       10.132251485627663
_cell_length_b       16.551305895519654
_cell_length_c       16.96029584124762
_cell_angle_alpha    111.86885808007044
_cell_angle_beta     107.4192994379569
_cell_angle_gamma    90.01684291561229

_space_group_name_H-M_alt    "P 1"
_space_group_IT_number       1

loop_
  _space_group_symop_operation_xyz
  'x, y, z'

loop_
  _atom_site_type_symbol
  _atom_site_label
  _atom_site_symmetry_multiplicity
  _atom_site_fract_x
  _atom_site_fract_y
  _atom_site_fract_z
  _atom_site_occupancy
  Cu  Cu1       1.0  0.49840909963759833  0.5000893592566271  0.5005034653569284  1.0000
  Cu  Cu2       1.0  0.9984224507158928  0.9998593440597077  0.49959393970247856  1.0000
  Cu  Cu3       1.0  0.6500306075630817  0.6283070586527727  0.45124871082447976  1.0000
  Cu  Cu4       1.0  0.1985387526450352  0.8718534034118761  0.5487296417243925  1.0000
  Cu  Cu5       1.0  0.3500940472647968  0.3716729068626279  0.5486105314333258  1.0000
  Cu  Cu6       1.0  0.8017352938186804  0.12824652056204403  0.45136603041349593  1.0000
  H   H1        1.0  0.19346681060444126  0.3760586504650689  0.2338820420579566  1.0000
  H   H2        1.0  0.9591754105917261  0.12349853208699103  0.7657087468744522  1.0000
  H   H3        1.0  0.8048933502490031  0.6243211371805018  0.76611331658534  1.0000
  H   H4        1.0  0.039556873485295754  0.8765621657324373  0.234447533756331  1.0000
  H   H5        1.0  0.04690664646173558  0.3125559668310345  0.07372678659407939  1.0000
  H   H6        1.0  0.9729448199873331  0.18717339751111695  0.9258705576505689  1.0000
  H   H7        1.0  0.952271578725778  0.6876709825969342  0.9260838814316017  1.0000
  H   H8        1.0  0.027414524547275294  0.8130305570284905  0.0746444180778384  1.0000
  H   H9        1.0  0.2894740789301408  0.4873633807226625  0.019480373714394303  1.0000
  H   H10       1.0  0.270577065795358  0.013000552861839803  0.9807067851862215  1.0000
  H   H11       1.0  0.7112800050995957  0.5123632258099421  0.9806827663358604  1.0000
  H   H12       1.0  0.7298118661867007  0.9869457632025346  0.018884196571867965  1.0000
  H   H13       1.0  0.43483773752240745  0.5510090599497559  0.18080282392839558  1.0000
  H   H14       1.0  0.25420339089095  0.9490899834354212  0.819339122472968  1.0000
  H   H15       1.0  0.5653353176040454  0.44873459913602437  0.8194930181971856  1.0000
  H   H16       1.0  0.7449409841587312  0.050860442853675615  0.17999906464075366  1.0000
  H   H17       1.0  0.9575072526479219  0.471546413921331  0.881464518596708  1.0000
  H   H18       1.0  0.07555024197076679  0.0287134380973271  0.1186970405019068  1.0000
  H   H19       1.0  0.04291076521837316  0.5284869395814199  0.11855236963859997  1.0000
  H   H20       1.0  0.9247192160391507  0.9712588570129695  0.8814043969276354  1.0000
  H   H21       1.0  0.017875531168556284  0.5040041106459583  0.7621948226329778  1.0000
  H   H22       1.0  0.25536643467629705  0.9964463060872218  0.23808520092234875  1.0000
  H   H23       1.0  0.9825576853484818  0.49605813411979227  0.23783564986563738  1.0000
  H   H24       1.0  0.7446577665147417  0.0035986196114662994  0.7621261643542355  1.0000
  H   H25       1.0  0.3128519399127824  0.31712173498983987  0.753566707014741  1.0000
  H   H26       1.0  0.5591937608353773  0.18322296353947112  0.24652837587192522  1.0000
  H   H27       1.0  0.6876076280494133  0.6829421689808017  0.24652068809812996  1.0000
  H   H28       1.0  0.441098920780888  0.8166214592547051  0.753429499230016  1.0000
  H   H29       1.0  0.25893471857490613  0.28835438540744457  0.8768465916387668  1.0000
  H   H30       1.0  0.3817919340570981  0.21170055746773644  0.12302507436034922  1.0000
  H   H31       1.0  0.7415271795189253  0.7117462579660059  0.1232534906777759  1.0000
  H   H32       1.0  0.6184800477053117  0.7879281052316929  0.8767641879811664  1.0000
  H   H33       1.0  0.538523881286487  0.6810400024369303  0.6534220248818131  1.0000
  H   H34       1.0  0.8849288660556169  0.8192067228007501  0.34634069655251665  1.0000
  H   H35       1.0  0.461468712336824  0.31959013750288534  0.3464541960500683  1.0000
  H   H36       1.0  0.11541393007146898  0.18061537712178932  0.6537131473736153  1.0000
  H   H37       1.0  0.549777642885921  0.7534870917914206  0.5997285864033941  1.0000
  H   H38       1.0  0.9491650599922747  0.7464240386608836  0.39971504110106076  1.0000
  H   H39       1.0  0.4504840351777871  0.2464431765294961  0.39948671856038237  1.0000
  H   H40       1.0  0.05095931497724134  0.25344063098727787  0.600348661184448  1.0000
  H   H41       1.0  0.7864294355676336  0.7624990210294912  0.7003499253888564  1.0000
  H   H42       1.0  0.08594828602306136  0.7377409631613786  0.29974798742033215  1.0000
  H   H43       1.0  0.21386961472116184  0.2381436261462753  0.2995273294551737  1.0000
  H   H44       1.0  0.9148298215906293  0.2617370648029437  0.7004474403037761  1.0000
  H   H45       1.0  0.7670767330050906  0.6462715701712866  0.6656350040544012  1.0000
  H   H46       1.0  0.10123466635724296  0.8538909556716873  0.33434854031454353  1.0000
  H   H47       1.0  0.23357927764148206  0.35445572795988783  0.33480373575649486  1.0000
  H   H48       1.0  0.8989555812753237  0.1453923860441435  0.6650687087369107  1.0000
  H   H49       1.0  0.9460001285230034  0.8068563926414  0.6450543634032259  1.0000
  H   H50       1.0  0.2998390754488938  0.6932378366478318  0.35481517158406456  1.0000
  H   H51       1.0  0.05451024522978541  0.19316830896402593  0.3546116153871921  1.0000
  H   H52       1.0  0.7003336153697431  0.3066651299971  0.6453006947700786  1.0000
  H   H53       1.0  0.9243042721260365  0.7571161348547264  0.529245442034025  1.0000
  H   H54       1.0  0.3947688494355646  0.7427825069797152  0.4705811976579426  1.0000
  H   H55       1.0  0.07578578558217679  0.2427727840072791  0.4703910175366913  1.0000
  H   H56       1.0  0.605506891691917  0.2571696990899924  0.5295540792024127  1.0000
  H   H57       1.0  0.7105543074469833  0.8556908898383427  0.6122343921804826  1.0000
  H   H58       1.0  0.09756108820378266  0.644514226889605  0.38782150289753053  1.0000
  H   H59       1.0  0.29004767913691865  0.1445764697039493  0.3877152382160746  1.0000
  H   H60       1.0  0.9026445545419008  0.3555302652549983  0.6123121580940917  1.0000
  H   H61       1.0  0.817309193887411  0.8908929373767266  0.5615826322037948  1.0000
  H   H62       1.0  0.2550855229784971  0.6091606434597666  0.43823725642270267  1.0000
  H   H63       1.0  0.1829656582729697  0.10907355747108478  0.4379929437279202  1.0000
  H   H64       1.0  0.7450758800225827  0.39083325900427474  0.5618682702339939  1.0000
  H   H65       1.0  0.9521411649678769  0.49661324431433945  0.555679148038827  1.0000
  H   H66       1.0  0.39705958736569613  0.0034669330222101  0.44456902597528375  1.0000
  H   H67       1.0  0.047104652802815505  0.5033560669315663  0.4448288841931928  1.0000
  H   H68       1.0  0.6023430256231636  0.9966317894003112  0.5551409185417598  1.0000
  H   H69       1.0  0.8220813864318541  0.5315324132621201  0.6060750568451496  1.0000
  H   H70       1.0  0.21647582382603045  0.9685595113873615  0.3940727469024167  1.0000
  H   H71       1.0  0.1764552101772522  0.4687840212357486  0.39372299357525964  1.0000
  H   H72       1.0  0.7829082368682235  0.031219018893658298  0.6062780850025931  1.0000
  H   H73       1.0  0.9974624497625795  0.654777775075793  0.6423412744477943  1.0000
  H   H74       1.0  0.3553593573919117  0.845170102775292  0.3580014350126178  1.0000
  H   H75       1.0  0.0023856398367811645  0.34508215406412285  0.3575974336256991  1.0000
  H   H76       1.0  0.64488716300621  0.154913784329338  0.6421497096600817  1.0000
  H   H77       1.0  0.9691519839934274  0.6306189302702807  0.527468892519977  1.0000
  H   H78       1.0  0.4418116365330178  0.8693704212098224  0.4729140127412066  1.0000
  H   H79       1.0  0.030737536127020283  0.36909278359519954  0.47242591142519785  1.0000
  H   H80       1.0  0.558367686656659  0.1307259631223303  0.5272490099085586  1.0000
  H   H81       1.0  0.6910132859599469  0.778572255809202  0.428485810278211  1.0000
  H   H82       1.0  0.26256895018709503  0.7219915075788707  0.571552742735399  1.0000
  H   H83       1.0  0.3088574560030324  0.22142322316959454  0.5713490632727272  1.0000
  H   H84       1.0  0.7375088506608447  0.278323765944002  0.42865096451046003  1.0000
  H   H85       1.0  0.7831454602487185  0.4928511617561996  0.41947102168397526  1.0000
  H   H86       1.0  0.36432098449652967  0.007009707594257001  0.5807114837646097  1.0000
  H   H87       1.0  0.2173023652800481  0.5070555291511951  0.5804937924270348  1.0000
  H   H88       1.0  0.6367195092920356  0.9929463676200498  0.4194966472084545  1.0000
  C   C1        1.0  0.4139177943178396  0.507644872218556  0.31508326191864466  1.0000
  C   C2        1.0  0.09937843872491912  0.992468983520176  0.684946895599559  1.0000
  C   C3        1.0  0.5846505489975654  0.4925865676973659  0.6852734180311302  1.0000
  C   C4        1.0  0.8996506291824532  0.007550980044761998  0.3147429735694303  1.0000
  C   C5        1.0  0.32413375315286425  0.4683051835236896  0.2185849668600355  1.0000
  C   C6        1.0  0.10566498281401951  0.031621529497989805  0.7813249856508263  1.0000
  C   C7        1.0  0.6751142276058958  0.5317583667947829  0.7815926912806433  1.0000
  C   C8        1.0  0.8935278070155307  0.9684400460869259  0.21842006393573857  1.0000
  C   C9        1.0  0.2146007256167195  0.40072988846657154  0.18724052340301262  1.0000
  C   C10       1.0  0.027169826228266716  0.09898988596583541  0.8124583518482636  1.0000
  C   C11       1.0  0.7843521920845404  0.5994715128227099  0.8127914515560235  1.0000
  C   C12       1.0  0.9720608098708039  0.9010252432412644  0.18750772176200317  1.0000
  C   C13       1.0  0.13212892022789188  0.3647623924659199  0.09762544351193007  1.0000
  C   C14       1.0  0.03421873323349412  0.13497588055646048  0.9020276796754416  1.0000
  C   C15       1.0  0.8672778790828913  0.6353743555768431  0.9023096460455733  1.0000
  C   C16       1.0  0.9655810979656606  0.8650048037392467  0.09806936221681893  1.0000
  C   C17       1.0  0.1590770102430596  0.3961137572969022  0.03712015437064052  1.0000
  C   C18       1.0  0.12184468500077344  0.1037932380306543  0.9626724936166369  1.0000
  C   C19       1.0  0.8409411401849454  0.6038682666388979  0.9628664160066195  1.0000
  C   C20       1.0  0.878169233674484  0.8960778116726118  0.03725917812636941  1.0000
  C   C21       1.0  0.2687788679828884  0.46302261095954833  0.06662399692585552  1.0000
  C   C22       1.0  0.2023758678608516  0.037077563088843093  0.9334122430045327  1.0000
  C   C23       1.0  0.7315363005895605  0.5368018232614417  0.9334919477811708  1.0000
  C   C24       1.0  0.7975420834337045  0.9628090827166105  0.06628708733779824  1.0000
  C   C25       1.0  0.34976253854845407  0.49864410073463733  0.15688260298099269  1.0000
  C   C26       1.0  0.1930512540337758  0.0014052617859832003  0.843178516720883  1.0000
  C   C27       1.0  0.6501802846452235  0.5011939236795087  0.8433278432465557  1.0000
  C   C28       1.0  0.8063908041486484  0.9986044912519318  0.15643304870407349  1.0000
  C   C29       1.0  0.10586690670412942  0.3788635301468376  0.8851244581897861  1.0000
  C   C30       1.0  0.22044341356296832  0.12115604471188848  0.1147684051366582  1.0000
  C   C31       1.0  0.8943801903486911  0.621100606126426  0.11481954650320614  1.0000
  C   C32       1.0  0.7799275882136173  0.8786152195158791  0.8852142327600417  1.0000
  C   C33       1.0  0.036172957161589525  0.43893518993204594  0.8536108899631357  1.0000
  C   C34       1.0  0.18219691257021248  0.06125286320023801  0.14646800498854157  1.0000
  C   C35       1.0  0.9641947662326446  0.5610809532466947  0.14637651611650432  1.0000
  C   C36       1.0  0.8181218117641293  0.9386336772041731  0.8536331935189735  1.0000
  C   C37       1.0  0.06950012200126572  0.4563347001902188  0.7869519907445479  1.0000
  C   C38       1.0  0.2823091797904027  0.04395534353918859  0.2131838540109499  1.0000
  C   C39       1.0  0.9309082589175546  0.5436965593555882  0.213043754403472  1.0000
  C   C40       1.0  0.7179500427983782  0.9559688351809045  0.7869724538803881  1.0000
  C   C41       1.0  0.16838121523379365  0.41206179122283265  0.7503119793101618  1.0000
  C   C42       1.0  0.4179636980663163  0.08821268523753642  0.2497916220493863  1.0000
  C   C43       1.0  0.8319279394977527  0.587906413316695  0.2496531113397468  1.0000
  C   C44       1.0  0.5822961776406288  0.9117001626474917  0.7503314108755533  1.0000
  C   C45       1.0  0.23665134061027251  0.3515504139237962  0.7828844294890372  1.0000
  C   C46       1.0  0.4536788784322212  0.1486399906258598  0.21715757986140724  1.0000
  C   C47       1.0  0.7636969932139834  0.6484410048677917  0.21712898724958762  1.0000
  C   C48       1.0  0.546626304969969  0.8511476069742373  0.7828216984129029  1.0000
  C   C49       1.0  0.2068251578741922  0.33518778804185  0.8509190612260512  1.0000
  C   C50       1.0  0.3557210627133713  0.16487321872720173  0.1489997865720909  1.0000
  C   C51       1.0  0.7935403586699792  0.6648338018842068  0.14910300068070365  1.0000
  C   C52       1.0  0.6446507706001796  0.8348412592029317  0.8509028995804969  1.0000
  C   C53       1.0  0.19794238591369137  0.42660121766169123  0.6746204705001729  1.0000
  C   C54       1.0  0.5233080360177739  0.0736081101604782  0.32545873581360507  1.0000
  C   C55       1.0  0.8024320645113081  0.5732883247006273  0.32532584108965784  1.0000
  C   C56       1.0  0.4771146653901255  0.9264570757463917  0.6747335328714712  1.0000
  C   C57       1.0  0.5834581797581605  0.6923933222264367  0.6062438767575173  1.0000
  C   C58       1.0  0.976790729361923  0.8076462302429022  0.3935462715356621  1.0000
  C   C59       1.0  0.41692361070182227  0.30778158684770324  0.3935817445694028  1.0000
  C   C60       1.0  0.02356063440913666  0.1921564992412428  0.6064437249316796  1.0000
  C   C61       1.0  0.7419823610012769  0.6997069550049064  0.6429437210922657  1.0000
  C   C62       1.0  0.09875780505788606  0.8005112590050275  0.35710328583893153  1.0000
  C   C63       1.0  0.2584116386247999  0.3007812162543075  0.3571514670759868  1.0000
  C   C64       1.0  0.9015240531696095  0.19910693423864964  0.6427947175478295  1.0000
  C   C65       1.0  0.8679831400960009  0.7723794614696545  0.5779825901477622  1.0000
  C   C66       1.0  0.28945678400077673  0.7277087940140134  0.42201770097912567  1.0000
  C   C67       1.0  0.1323400092817693  0.22766084382271157  0.42177986895174513  1.0000
  C   C68       1.0  0.7107983769385554  0.2722723053014491  0.5781326844628012  1.0000
  C   C69       1.0  0.7614031645529309  0.8333410435528492  0.5603936899223213  1.0000
  C   C70       1.0  0.2004334771954531  0.6667574441333102  0.4396185955593025  1.0000
  C   C71       1.0  0.23893262510161153  0.16673359139239352  0.4394156401395009  1.0000
  C   C72       1.0  0.7997507158000093  0.3332531404841674  0.5605382363753365  1.0000
  C   C73       1.0  0.8628110021969986  0.5345257969829262  0.5539018657205048  1.0000
  C   C74       1.0  0.30938812623146106  0.9655528969667914  0.4462965429008178  1.0000
  C   C75       1.0  0.13646529783969194  0.4654873320023968  0.4460567028638991  1.0000
  C   C76       1.0  0.6905063236145351  0.03448208283548129  0.5538983964671971  1.0000
  C   C77       1.0  0.9173425345112208  0.6286427860429029  0.575122619850589  1.0000
  C   C78       1.0  0.34237073052124595  0.8714095560414137  0.4251502877039712  1.0000
  C   C79       1.0  0.08248755134850681  0.37127470119804684  0.4248077942151269  1.0000
  C   C80       1.0  0.6577911770786216  0.1286414808414094  0.574984493519807  1.0000
  N   N1        1.0  0.8072775985423846  0.6880028453362713  0.572008638970587  1.0000
  N   N2        1.0  0.23505159070133888  0.8121829331165672  0.4281599030045484  1.0000
  N   N3        1.0  0.1929282725098885  0.3121577525341551  0.4279462034677408  1.0000
  N   N4        1.0  0.7651944668450952  0.1877690093294647  0.57193280852011  1.0000
  O   O1        1.0  0.49916850453381306  0.5748912976727497  0.33681907395987315  1.0000
  O   O2        1.0  0.16275159294902142  0.9252124733450701  0.6632803872238142  1.0000
  O   O3        1.0  0.5008167505030839  0.4246877984900125  0.6633355613703529  1.0000
  O   O4        1.0  0.837333903771011  0.07520046833144532  0.3366184828742361  1.0000
  O   O5        1.0  0.39915410999592643  0.47144153690262414  0.36715507415566867  1.0000
  O   O6        1.0  0.03307128511831072  0.028897969577691605  0.6329469491357926  1.0000
  O   O7        1.0  0.5973695643840458  0.5297768284789797  0.6335393683275896  1.0000
  O   O8        1.0  0.9647502057557559  0.9705844984836317  0.3665665919054817  1.0000
  O   O9        1.0  0.06978314902324453  0.3598378672836092  0.9501572658507911  1.0000
  O   O10       1.0  0.1193011282228227  0.1400153305506251  0.04955133769558272  1.0000
  O   O11       1.0  0.930421678679714  0.6401418880010185  0.04977273075640208  1.0000
  O   O12       1.0  0.8810343176511211  0.8597757682907032  0.9504645733059434  1.0000
  O   O13       1.0  0.23708251254191026  0.3596935374467806  0.6212938572253037  1.0000
  O   O14       1.0  0.6160859895606094  0.1404486244666998  0.3787439090337656  1.0000
  O   O15       1.0  0.7630022471761605  0.6401163654707674  0.3785922481688218  1.0000
  O   O16       1.0  0.38406697125341077  0.8597459118674282  0.6214117053375432  1.0000
  O   O17       1.0  0.18066138876079646  0.49885381159665343  0.6666555719554593  1.0000
  O   O18       1.0  0.5138206620638996  0.0013532854050950993  0.3334095107155973  1.0000
  O   O19       1.0  0.8200205683571583  0.5010857054235842  0.3333166211006429  1.0000
  O   O20       1.0  0.48711644793603165  0.9987032807084546  0.6668557247099329  1.0000
  O   O21       1.0  0.5301457368549264  0.6230600036800809  0.5201972377774666  1.0000
  O   O22       1.0  0.009332195896533228  0.8767706488566205  0.47975964500358254  1.0000
  O   O23       1.0  0.4714403638700944  0.3764691933921753  0.48009651670853504  1.0000
  O   O24       1.0  0.9915299380591663  0.12335557586501271  0.5200105945798299  1.0000
  O   O25       1.0  0.6505002496566946  0.7923970336502892  0.47676699083140767  1.0000
  O   O26       1.0  0.1735262889055775  0.7076141522557152  0.5232735878141597  1.0000
  O   O27       1.0  0.34957720855522467  0.2075774468135876  0.5231610911264326  1.0000
  O   O28       1.0  0.8265767637110955  0.2924099255286309  0.47684380201590676  1.0000
  O   O29       1.0  0.7514485039000504  0.49508185511726316  0.47118788388519317  1.0000
  O   O30       1.0  0.28092138637179426  0.0050058384761371  0.5290004280589287  1.0000
  O   O31       1.0  0.2484147335826848  0.5048940923603168  0.5285570675907891  1.0000
  O   O32       1.0  0.7197918284531681  0.9949941025397707  0.47143535111642615  1.0000
