data_image0
_chemical_formula_structural       Zn4H50C80N16F2
_chemical_formula_sum              "Zn4 H50 C80 N16 F2"
_cell_length_a       14.736848912619918
_cell_length_b       15.002135554698869
_cell_length_c       16.881738275804185
_cell_angle_alpha    105.27604478410215
_cell_angle_beta     107.10174913023373
_cell_angle_gamma    111.21643373689007

_space_group_name_H-M_alt    "P 1"
_space_group_IT_number       1

loop_
  _space_group_symop_operation_xyz
  'x, y, z'

loop_
  _atom_site_type_symbol
  _atom_site_label
  _atom_site_symmetry_multiplicity
  _atom_site_fract_x
  _atom_site_fract_y
  _atom_site_fract_z
  _atom_site_occupancy
  Zn  Zn1       1.0  0.36893561437562983  0.010366741774767286  0.8884206886357122  1.0000
  Zn  Zn2       1.0  0.616778803548705  0.995562778933582  0.12797064592037102  1.0000
  Zn  Zn3       1.0  0.3555008515594408  0.8600601712056174  0.00014726768392846142  1.0000
  Zn  Zn4       1.0  0.6288178582154839  0.12246843389117856  0.9999018685141511  1.0000
  H   H1        1.0  0.3317535134467064  0.18744418117643138  0.013151637665245613  1.0000
  H   H2        1.0  0.555883175634932  0.6674291650135514  0.12878466101981453  1.0000
  H   H3        1.0  0.25279277231737024  0.3512918897381707  0.7263928665311497  1.0000
  H   H4        1.0  0.8289904385183317  0.7250863950044105  0.06623590467699354  1.0000
  H   H5        1.0  0.13052055817497177  0.19983602416171914  0.5757953892561574  1.0000
  H   H6        1.0  0.9505899781933633  0.8643863121622246  0.22393182350975144  1.0000
  H   H7        1.0  0.41824283298370785  0.5313798732248569  0.7849583181296824  1.0000
  H   H8        1.0  0.6598873559669229  0.49572135587597177  0.03370963809251752  1.0000
  H   H9        1.0  0.9726979601481245  0.7235196308081482  0.587749334965963  1.0000
  H   H10       1.0  0.6998593071494453  0.2942344432550499  0.42105605401614116  1.0000
  H   H11       1.0  0.8441041015411626  0.6503627746045453  0.4222886287756324  1.0000
  H   H12       1.0  0.8869159649210301  0.05669484909883949  0.22151754221730616  1.0000
  H   H13       1.0  0.8035805611965542  0.3705719130140252  0.5891730280969727  1.0000
  H   H14       1.0  0.6111895080544085  0.15178902693854465  0.2939781718830901  1.0000
  H   H15       1.0  0.1231766745573993  0.8574569322048546  0.7105381337790038  1.0000
  H   H16       1.0  0.47728814079572135  0.14193499148482397  0.4232949745691387  1.0000
  H   H17       1.0  0.9611652748886284  0.2841976752549228  0.8540254581368318  1.0000
  H   H18       1.0  0.6135097254132871  0.8723885073052031  0.41052300616917153  1.0000
  H   H19       1.0  0.3394926835290804  0.7712629431227497  0.5748916021346134  1.0000
  H   H20       1.0  0.2664699890829922  0.7270658014146464  0.2698610532723294  1.0000
  H   H21       1.0  0.6867011447014304  0.9146721944434331  0.7151524089045794  1.0000
  H   H22       1.0  0.6997320549966942  0.8971478293542245  0.570472355877442  1.0000
  H   H23       1.0  0.3887452586098091  0.204078584885572  0.3170720826162139  1.0000
  H   H24       1.0  0.2509901240067121  0.7105299343755005  0.40720891237803164  1.0000
  H   H25       1.0  0.3725570972071851  0.9656345277327888  0.4184695081206798  1.0000
  H   H26       1.0  0.9511563929209358  0.434528907910689  0.9503424911392814  1.0000
  H   H27       1.0  0.17887347495022962  0.8543029050941228  0.30875160578750643  1.0000
  H   H28       1.0  0.014414893549812333  0.4835468133490366  0.11757001010276011  1.0000
  H   H29       1.0  0.0909715839869065  0.9171509547698448  0.2021069715488792  1.0000
  H   H30       1.0  0.08148590277267687  0.37926140034473116  0.18619835037046784  1.0000
  H   H31       1.0  0.28473713173184473  0.7477092168671576  0.13942460484425817  1.0000
  H   H32       1.0  0.6801199977381386  0.9846167486424519  0.8523045172993805  1.0000
  H   H33       1.0  0.695828470058572  0.3431471745155435  0.9693008254161061  1.0000
  H   H34       1.0  0.02892480668251812  0.18044564289931492  0.9235084005986213  1.0000
  H   H35       1.0  0.3481025816337109  0.6492884376227578  0.8733428771637012  1.0000
  H   H36       1.0  0.627769374525954  0.9471945549267814  0.30917002547821687  1.0000
  H   H37       1.0  0.3303858955303839  0.830427463633555  0.7115889829719324  1.0000
  H   H38       1.0  0.34828011526995073  0.19870273221066975  0.8242351951935804  1.0000
  H   H39       1.0  0.6934056042569238  0.8450851756005163  0.03634228518584592  1.0000
  H   H40       1.0  0.653931649408534  0.3405725671540407  0.1390282737471296  1.0000
  H   H41       1.0  0.11827743038082879  0.6532453691214714  0.850687439332589  1.0000
  H   H42       1.0  0.2985142355737833  0.9770194446915068  0.14905957742904968  1.0000
  H   H43       1.0  0.8693848087593634  0.18747684519204458  0.020738114307029296  1.0000
  H   H44       1.0  0.05315691646745788  0.07536331175104037  0.23297374097938225  1.0000
  H   H45       1.0  0.20272586724283306  0.09652053201249801  0.49679913591506886  1.0000
  H   H46       1.0  0.2159357875097712  0.22873918081428712  0.05296499716310174  1.0000
  H   H47       1.0  0.8751671097962441  0.9035600983699723  0.3344626946669608  1.0000
  H   H48       1.0  0.39697725686192337  0.14638027112643207  0.5696315050260312  1.0000
  H   H49       1.0  0.6767420015111866  0.8024363086090816  0.2864302449798616  1.0000
  H   H50       1.0  0.5188932623305859  0.297422114258218  0.7204240301922484  1.0000
  C   C1        1.0  0.3304794311161601  0.1282501652573771  0.03914712875302234  1.0000
  C   C2        1.0  0.18125658251280896  0.19507970650314374  0.0936560738240715  1.0000
  C   C3        1.0  0.03867989258685607  0.15428919760072543  0.1436740066587987  1.0000
  C   C4        1.0  0.22302525618541574  0.13884850130630608  0.13353762842710643  1.0000
  C   C5        1.0  0.09401052573041824  0.20739999112510085  0.10041912840601702  1.0000
  C   C6        1.0  0.18161816751262447  0.10521547616261273  0.1924428929304512  1.0000
  C   C7        1.0  0.34294247916557896  0.1275400680489582  0.31565912050373873  1.0000
  C   C8        1.0  0.027128293355033896  0.24799665252671588  0.9660963649938666  1.0000
  C   C9        1.0  0.3337483265366003  0.9939910769722644  0.3729916991421902  1.0000
  C   C10       1.0  0.9826909759021802  0.3902197778463332  0.9810821240842531  1.0000
  C   C11       1.0  0.36526722145009666  0.1911645356126428  0.6040851087228065  1.0000
  C   C12       1.0  0.8666097444954344  0.0867555986444799  0.1707005656733713  1.0000
  C   C13       1.0  0.7107792478730486  0.7870454843344845  0.2383240012262604  1.0000
  C   C14       1.0  0.43374386168066786  0.2762185426495519  0.6885550272700698  1.0000
  C   C15       1.0  0.6425394573738286  0.7102039943909657  0.14969397581850072  1.0000
  C   C16       1.0  0.6177129325503613  0.18439365372467614  0.24438688465384226  1.0000
  C   C17       1.0  0.13733025116815864  0.8202505088116464  0.7566718673468599  1.0000
  C   C18       1.0  0.3945696031232514  0.3354613914801589  0.7338274779458092  1.0000
  C   C19       1.0  0.6843188294964477  0.6869096957200754  0.08685182978100416  1.0000
  C   C20       1.0  0.2846625774211375  0.3068737511965764  0.6916181854263785  1.0000
  C   C21       1.0  0.795947246731714  0.7426978617342924  0.11476401792761241  1.0000
  C   C22       1.0  0.21584276040614  0.22124993613868327  0.6071311110279185  1.0000
  C   C23       1.0  0.6486374706695269  0.28818114622088586  0.25251938953806535  1.0000
  C   C24       1.0  0.8640355044112764  0.8208939018430924  0.20311384287843742  1.0000
  C   C25       1.0  0.2558409053359583  0.1630708602048117  0.5630293566971363  1.0000
  C   C26       1.0  0.8217220471164379  0.8432080796675477  0.26521178496436454  1.0000
  C   C27       1.0  0.47051239466542677  0.5229529651939869  0.8403112562389341  1.0000
  C   C28       1.0  0.6089276600975493  0.5041200957588501  0.9775411306382157  1.0000
  C   C29       1.0  0.538544865181599  0.610965940768146  0.9243082534098407  1.0000
  C   C30       1.0  0.5361169092028959  0.4146594023905408  0.8958361277429463  1.0000
  C   C31       1.0  0.6115192727258999  0.6012867094939053  0.9935886889038844  1.0000
  C   C32       1.0  0.46782988541511367  0.4253179623382835  0.8242024928754932  1.0000
  C   C33       1.0  0.3923774634244167  0.09223343349538737  0.3749532265352898  1.0000
  C   C34       1.0  0.0746666098524925  0.7180905999628349  0.7471573716076139  1.0000
  C   C35       1.0  0.9883125390654114  0.3058442772229951  0.9270650407418944  1.0000
  C   C36       1.0  0.9765715471369771  0.6338787439494238  0.6679953892080306  1.0000
  C   C37       1.0  0.701322579680635  0.38105708568586744  0.33816186674592796  1.0000
  C   C38       1.0  0.8132417152631743  0.5733035703439953  0.4240142235231375  1.0000
  C   C39       1.0  0.8386271035121592  0.4471906352751631  0.5872502024038796  1.0000
  C   C40       1.0  0.37078371732938104  0.80116802569524  0.16973396345384364  1.0000
  C   C41       1.0  0.5937787376470209  0.9544831732056164  0.8304657795793987  1.0000
  C   C42       1.0  0.7422967914205498  0.4855675295949027  0.34423956173264264  1.0000
  C   C43       1.0  0.922083572133701  0.5316981682474945  0.6641851257565038  1.0000
  C   C44       1.0  0.7288961972419228  0.37217575678636894  0.42101457001937354  1.0000
  C   C45       1.0  0.451569283733768  0.831697075202804  0.25597067869168916  1.0000
  C   C46       1.0  0.9347995330546365  0.6466252987580318  0.5886325496837941  1.0000
  C   C47       1.0  0.8022925492117777  0.459185037963408  0.5049851222384734  1.0000
  C   C48       1.0  0.849563087561023  0.5623119506426377  0.5069144016093646  1.0000
  C   C49       1.0  0.4421304333949152  0.8058117371731158  0.3315891909536291  1.0000
  C   C50       1.0  0.5116326571489578  0.8492836901020907  0.656538223074847  1.0000
  C   C51       1.0  0.6208299004729909  0.8700922153813976  0.5716537351073684  1.0000
  C   C52       1.0  0.3304862304728644  0.746358731466195  0.4079977042252311  1.0000
  C   C53       1.0  0.6132293040528863  0.8797360622718314  0.6524492619376263  1.0000
  C   C54       1.0  0.339274654234842  0.7552893263763921  0.3312025281028996  1.0000
  C   C55       1.0  0.4188827431858826  0.7981838750831542  0.574733653022932  1.0000
  C   C56       1.0  0.5070252228394024  0.8844373668905304  0.7440443460774732  1.0000
  C   C57       1.0  0.5335974620875773  0.8368818322885545  0.4091236408285256  1.0000
  C   C58       1.0  0.4239743282653023  0.7882748540286642  0.4907962145723987  1.0000
  C   C59       1.0  0.5275063010379384  0.8300481321283825  0.48937719204176505  1.0000
  C   C60       1.0  0.22487085309391824  0.9314382957218538  0.31126891468970547  1.0000
  C   C61       1.0  0.01794018839770936  0.4174405809764891  0.07471438889821512  1.0000
  C   C62       1.0  0.1752128059276927  0.9668948358848864  0.25200039622771453  1.0000
  C   C63       1.0  0.056237173376679606  0.359409485474302  0.11354143007108061  1.0000
  C   C64       1.0  0.608908105224252  0.29239505253609366  0.9357416124212322  1.0000
  C   C65       1.0  0.4302410896353236  0.7119966944621152  0.9172916981701748  1.0000
  C   C66       1.0  0.2334659339620728  0.0652542337381803  0.2533327738718755  1.0000
  C   C67       1.0  0.5263226015670455  0.31323356393565394  0.8935602117583132  1.0000
  C   C68       1.0  0.059843721930846513  0.272822790828215  0.05948352510186792  1.0000
  C   C69       1.0  0.5455701931450037  0.9021651430107838  0.25597582789232837  1.0000
  C   C70       1.0  0.415507893650819  0.8757150509341328  0.7586731074491624  1.0000
  C   C71       1.0  0.43174338702399234  0.21833925054072267  0.8612903682628005  1.0000
  C   C72       1.0  0.6064205746242664  0.8112684040120115  0.0010834988109848962  1.0000
  C   C73       1.0  0.6392910526970539  0.2804300591765596  0.16495355601622216  1.0000
  C   C74       1.0  0.13513167519957378  0.7162436575544786  0.8281835221046878  1.0000
  C   C75       1.0  0.3136092790958001  0.021067960289109098  0.10854610512367198  1.0000
  C   C76       1.0  0.858061275991538  0.153241918182637  0.06834925222165819  1.0000
  C   C77       1.0  0.2923765163134817  0.1041510493288342  0.10229837089683973  1.0000
  C   C78       1.0  0.5274718831954955  0.7066617412439982  0.942623562997078  1.0000
  C   C79       1.0  0.9300036476464724  0.1365647278269293  0.13131821984521966  1.0000
  C   C80       1.0  0.08873766659146298  0.10975381450032978  0.19301376660806824  1.0000
  N   N1        1.0  0.3682351161982281  0.0631806646817736  0.009491274116790278  1.0000
  N   N2        1.0  0.44647230785044906  0.9373677273788984  0.8458823060039935  1.0000
  N   N3        1.0  0.4564460550844983  0.1472902657396062  0.8831011525737794  1.0000
  N   N4        1.0  0.5588973101430951  0.8724813756407527  0.010781837033775235  1.0000
  N   N5        1.0  0.6082605799512208  0.18077183927810841  0.11141020255409027  1.0000
  N   N6        1.0  0.2252591094690359  0.8089831409697651  0.8804906966324  1.0000
  N   N7        1.0  0.3579274435413565  0.9975476771658904  0.05227746489573089  1.0000
  N   N8        1.0  0.762252769604423  0.1180226886314912  0.07136799247540894  1.0000
  N   N9        1.0  0.7666954371756773  0.0763353710015622  0.13479434919654665  1.0000
  N   N10       1.0  0.595246692366004  0.1221217068740188  0.16023882188233082  1.0000
  N   N11       1.0  0.22647604435108804  0.8738697351029359  0.8361207752633818  1.0000
  N   N12       1.0  0.41369595301444656  0.848934599892516  0.12262522700463312  1.0000
  N   N13       1.0  0.5558571479622499  0.9857889885200847  0.8899477754659771  1.0000
  N   N14       1.0  0.5668976863379525  0.1932313704628469  0.92895724451833  1.0000
  N   N15       1.0  0.45040929284050424  0.8114253911819346  0.9595495063318754  1.0000
  N   N16       1.0  0.5226312525698873  0.9116081911309805  0.1765252560019378  1.0000
  F   F1        1.0  0.9567824369665485  0.5155016354967046  0.7414486272434432  1.0000
  F   F2        1.0  0.7126486655484994  0.4992046935454154  0.2652148956675191  1.0000
