data_image0
_chemical_formula_structural       Cd2P4H32C26Cl4O18
_chemical_formula_sum              "Cd2 P4 H32 C26 Cl4 O18"
_cell_length_a       5.769685603011325
_cell_length_b       9.125121978001516
_cell_length_c       18.760432809004904
_cell_angle_alpha    90.00004498638094
_cell_angle_beta     90.72713517296005
_cell_angle_gamma    90.00005097521306

_space_group_name_H-M_alt    "P 1"
_space_group_IT_number       1

loop_
  _space_group_symop_operation_xyz
  'x, y, z'

loop_
  _atom_site_type_symbol
  _atom_site_label
  _atom_site_symmetry_multiplicity
  _atom_site_fract_x
  _atom_site_fract_y
  _atom_site_fract_z
  _atom_site_occupancy
  Cd  Cd1       1.0  0.7878618495303656  0.23793499164992232  0.511009366228791  1.0000
  Cd  Cd2       1.0  0.2121419734905103  0.7379324964216565  0.4889915984550514  1.0000
  P   P1        1.0  0.29673420543109336  0.4063775675840374  0.573245256559325  1.0000
  P   P2        1.0  0.7032663786853492  0.9063763760763237  0.42675469301490665  1.0000
  P   P3        1.0  0.27185890670538276  0.2936690505867431  0.7301576447474007  1.0000
  P   P4        1.0  0.728146732763584  0.7936665364812183  0.2698422849669059  1.0000
  H   H1        1.0  0.7746201855003606  0.009332099776322902  0.6196046906096202  1.0000
  H   H2        1.0  0.2253798891329026  0.5093327328044737  0.38039509865250665  1.0000
  H   H3        1.0  0.9377031105999338  0.13579952491014782  0.650884039195667  1.0000
  H   H4        1.0  0.0622988654434948  0.635800008770168  0.3491152766675612  1.0000
  H   H5        1.0  0.09471970252704412  0.07458786113956246  0.43516803075353055  1.0000
  H   H6        1.0  0.9052787283176826  0.5745891994271161  0.5648312432962117  1.0000
  H   H7        1.0  0.25074122505323976  0.18921764328345597  0.4783393118798359  1.0000
  H   H8        1.0  0.7492573528809388  0.6892155307953941  0.5216600084525355  1.0000
  H   H9        1.0  0.5888037251789697  0.48598746688304567  0.46205882024466416  1.0000
  H   H10       1.0  0.4111969610934097  0.9859884579742083  0.537941161473576  1.0000
  H   H11       1.0  0.8219481543114855  0.4795875899516273  0.4171994360782422  1.0000
  H   H12       1.0  0.17805252955140113  0.9795896018820686  0.5828000100450552  1.0000
  H   H13       1.0  0.1922592378757173  0.9458904524980267  0.7406423725763889  1.0000
  H   H14       1.0  0.8077431418697855  0.4458827088490763  0.2593565354774726  1.0000
  H   H15       1.0  0.2520674812592389  0.7508454780192222  0.8326660016457911  1.0000
  H   H16       1.0  0.7479138598927406  0.2508386512415014  0.16733165904227584  1.0000
  H   H17       1.0  0.5955225916433307  0.7614055062227151  0.9144663084879668  1.0000
  H   H18       1.0  0.4044639456351434  0.2614027242271106  0.08553298114592423  1.0000
  H   H19       1.0  0.876105679901464  0.9675814601476844  0.9054336107255312  1.0000
  H   H20       1.0  0.12388632772280771  0.4675807102367814  0.09456525479191673  1.0000
  H   H21       1.0  0.8122722025492592  0.16330828484029775  0.8133723390489183  1.0000
  H   H22       1.0  0.18773153631746456  0.6633085955910188  0.18662752948172576  1.0000
  H   H23       1.0  0.9256195291461964  0.5132576147868803  0.8136425655658999  1.0000
  H   H24       1.0  0.07437707807452648  0.013266838757537897  0.18635774119542967  1.0000
  H   H25       1.0  0.6391485309502231  0.5040664920096274  0.9119735923198609  1.0000
  H   H26       1.0  0.36084979780032  0.004071358002299499  0.08802671927885802  1.0000
  H   H27       1.0  0.7095620310441859  0.3418236082866315  0.0166877860019667  1.0000
  H   H28       1.0  0.29044191948594295  0.8418252118674728  0.9833137536402534  1.0000
  H   H29       1.0  0.3428628524302369  0.18830186075579994  0.9204799987607334  1.0000
  H   H30       1.0  0.6571443445450457  0.688300104930917  0.07952362803739281  1.0000
  H   H31       1.0  0.057864006857194304  0.18079104164845458  0.020486045946455506  1.0000
  H   H32       1.0  0.9421432036861861  0.6807853714653119  0.9795154457738351  1.0000
  C   C1        1.0  0.35847855722897043  0.4447486558047017  0.6707080241873629  1.0000
  C   C2        1.0  0.6415238036498678  0.9447483715861793  0.3292924824403159  1.0000
  C   C3        1.0  0.500182311218346  0.06366127028378091  0.7733805741863194  1.0000
  C   C4        1.0  0.4998143896833371  0.5636596440859449  0.2266170878684264  1.0000
  C   C5        1.0  0.34009062032919957  0.9495639020313075  0.7772536263900706  1.0000
  C   C6        1.0  0.659911775736255  0.44955929804999056  0.22274421712540268  1.0000
  C   C7        1.0  0.37517458377224955  0.8410437595195007  0.8288825741004688  1.0000
  C   C8        1.0  0.6248137774189715  0.34104015004091076  0.17111782225980932  1.0000
  C   C9        1.0  0.5677774707601629  0.8468991186184809  0.8746617272832115  1.0000
  C   C10       1.0  0.43221264867874964  0.34689751108435735  0.1253370809576282  1.0000
  C   C11       1.0  0.7261232421753263  0.9621929649873737  0.8696075752085624  1.0000
  C   C12       1.0  0.27386702520519896  0.4621879796510483  0.13039127958304425  1.0000
  C   C13       1.0  0.692415882547145  0.07222672978897289  0.8188503424033586  1.0000
  C   C14       1.0  0.30758253366227717  0.5722260103690074  0.18114999671485074  1.0000
  C   C15       1.0  0.149566927813801  0.3529801033924116  0.8632152523801654  1.0000
  C   C16       1.0  0.8504370428358146  0.8529840349007004  0.1367857587559982  1.0000
  C   C17       1.0  0.954692768883902  0.4430909261000192  0.8597883446565506  1.0000
  C   C18       1.0  0.0453095840694502  0.9430965564903602  0.1402126943141013  1.0000
  C   C19       1.0  0.79561019612715  0.43726962757114757  0.9151780902986605  1.0000
  C   C20       1.0  0.2043887001095683  0.9372752709225691  0.08482133018961953  1.0000
  C   C21       1.0  0.8333736453210535  0.3445531153152572  0.9733718485241812  1.0000
  C   C22       1.0  0.1666303029077483  0.8445520702577198  0.026630225230690006  1.0000
  C   C23       1.0  0.1898614303909198  0.25846525903859435  0.9204295072601244  1.0000
  C   C24       1.0  0.8101458798264362  0.7584646938325931  0.07957201582321012  1.0000
  C   C25       1.0  0.030098050774277896  0.2553540610281217  0.9757801818262878  1.0000
  C   C26       1.0  0.9699023221452805  0.7553546051406244  0.024221305803848705  1.0000
  Cl  Cl1       1.0  0.654358867812988  0.4845805545095346  0.6847743290846184  1.0000
  Cl  Cl2       1.0  0.3456435383747589  0.984578969641021  0.3152267266365812  1.0000
  Cl  Cl3       1.0  0.1845920346611862  0.5989317658906257  0.6959016427309808  1.0000
  Cl  Cl4       1.0  0.8154133491197443  0.0989273836496025  0.3040987413662536  1.0000
  O   O1        1.0  0.9050015125890313  0.07272196880921909  0.6081030075495237  1.0000
  O   O2        1.0  0.09499691005880352  0.5727225389128633  0.3918967987577987  1.0000
  O   O3        1.0  0.1139837465069959  0.1804834465349572  0.44642971738169746  1.0000
  O   O4        1.0  0.8860165535483232  0.6804847555271536  0.5535696079741259  1.0000
  O   O5        1.0  0.6833840787322174  0.4224880468064922  0.4307049678719397  1.0000
  O   O6        1.0  0.31661825938496696  0.9224890277570948  0.5692949967568597  1.0000
  O   O7        1.0  0.4201572877258003  0.261519256370832  0.5579368897107388  1.0000
  O   O8        1.0  0.5798413887876706  0.7615180121166175  0.4420619268034472  1.0000
  O   O9        1.0  0.40066159497604303  0.5361051495855021  0.5329451648606638  1.0000
  O   O10       1.0  0.5993385140110662  0.036104172721366  0.4670546352111204  1.0000
  O   O11       1.0  0.0322792592571446  0.3984269035017576  0.5685576772099524  1.0000
  O   O12       1.0  0.9677213146564938  0.8984247869777704  0.43144226915390504  1.0000
  O   O13       1.0  0.4732630344675144  0.17516438887989946  0.721407576215441  1.0000
  O   O14       1.0  0.5267389978878826  0.6751606677828477  0.27859122252991864  1.0000
  O   O15       1.0  0.31541346753577665  0.35745347779786835  0.8090843268108829  1.0000
  O   O16       1.0  0.684590508852601  0.8574551984638106  0.19091668613101836  1.0000
  O   O17       1.0  0.0330650051870975  0.23787354905946498  0.7183472838809524  1.0000
  O   O18       1.0  0.9669405800928105  0.7378722968010364  0.2816510242720868  1.0000
