data_image0
_chemical_formula_structural       Zn2H32C42N4O14
_chemical_formula_sum              "Zn2 H32 C42 N4 O14"
_cell_length_a       9.791530949489138
_cell_length_b       11.12893460405333
_cell_length_c       23.793850126134554
_cell_angle_alpha    89.21259772140027
_cell_angle_beta     78.1770338512125
_cell_angle_gamma    84.55215084212352

_space_group_name_H-M_alt    "P 1"
_space_group_IT_number       1

loop_
  _space_group_symop_operation_xyz
  'x, y, z'

loop_
  _atom_site_type_symbol
  _atom_site_label
  _atom_site_symmetry_multiplicity
  _atom_site_fract_x
  _atom_site_fract_y
  _atom_site_fract_z
  _atom_site_occupancy
  Zn  Zn1       1.0  0.6489691259339025  0.5112852865441795  0.48087829968084606  1.0000
  Zn  Zn2       1.0  0.3540224416997761  0.48425757438995753  0.5152807061400821  1.0000
  H   H1        1.0  0.49105920287365723  0.8058156316339408  0.944898256041334  1.0000
  H   H2        1.0  0.499640614554771  0.1994550126620284  0.05288164636058919  1.0000
  H   H3        1.0  0.4805870856710541  0.80519821899815  0.0522175658859965  1.0000
  H   H4        1.0  0.511679637064276  0.19994163195521963  0.9454527768128642  1.0000
  H   H5        1.0  0.6772355957583969  0.39686274021367046  0.20088712871292813  1.0000
  H   H6        1.0  0.3129340559288281  0.6024300782123291  0.795465975602191  1.0000
  H   H7        1.0  0.6722652287626402  0.40276437431569434  0.3063066217730466  1.0000
  H   H8        1.0  0.3196509417216546  0.5906765083223463  0.6900412591503624  1.0000
  H   H9        1.0  0.2767525903842626  0.6091015134848163  0.23077329869000346  1.0000
  H   H10       1.0  0.7195330609960421  0.4006397225683146  0.7680663079465759  1.0000
  H   H11       1.0  0.39256964627562496  0.10779034064382388  0.500952031704287  1.0000
  H   H12       1.0  0.6214308033388106  0.8876742158882965  0.4866169665563049  1.0000
  H   H13       1.0  0.714751228234107  0.0949031327798266  0.4808965951893924  1.0000
  H   H14       1.0  0.29840581648687703  0.9031419132151727  0.5120659906537384  1.0000
  H   H15       1.0  0.8713064188963601  0.4263804981541454  0.5259289499864366  1.0000
  H   H16       1.0  0.13523077246701123  0.5528152883475386  0.4624878209383638  1.0000
  H   H17       1.0  0.8016076168742642  0.6130258994134011  0.3571332416387492  1.0000
  H   H18       1.0  0.7227062422483499  0.72944771356228  0.4066520425862379  1.0000
  H   H19       1.0  0.8753873067422548  0.7537732249598365  0.35378893368780234  1.0000
  H   H20       1.0  0.9372649364983446  0.7170650552444683  0.4496783715785426  1.0000
  H   H21       1.0  0.020583133767395602  0.6044470545843768  0.3988911647207943  1.0000
  H   H22       1.0  0.23643618381491652  0.21556233794428442  0.5612144290803798  1.0000
  H   H23       1.0  0.2669508797498921  0.318652942974687  0.6125309158446299  1.0000
  H   H24       1.0  0.13009279802448503  0.2217742158519869  0.6316983815079666  1.0000
  H   H25       1.0  0.029532112615392212  0.42970536418477695  0.6143613239758992  1.0000
  H   H26       1.0  0.9961920115721342  0.324955201770898  0.5652236774268928  1.0000
  H   H27       1.0  0.34555075625757325  0.7175318376915315  0.395138717841597  1.0000
  H   H28       1.0  0.1746255295949766  0.7790447648693617  0.38837011586904413  1.0000
  H   H29       1.0  0.32160247202581627  0.7985581654290145  0.3311197847505056  1.0000
  H   H30       1.0  0.8280288226412155  0.2203554200064417  0.6150449168274648  1.0000
  H   H31       1.0  0.6642891298713067  0.284296777324805  0.6008057423369664  1.0000
  H   H32       1.0  0.6707649478684488  0.2079879935587243  0.6677870743580315  1.0000
  C   C1        1.0  0.42986721814008894  0.7300790725337695  0.5035195639241223  1.0000
  C   C2        1.0  0.5813659022598189  0.26699531537517635  0.4902428379234962  1.0000
  C   C3        1.0  0.589095570158932  0.4438339921320704  0.23030204954085323  1.0000
  C   C4        1.0  0.40304028912620293  0.5569142085609472  0.7665337576266111  1.0000
  C   C5        1.0  0.5859701830381567  0.4469829753098865  0.28888317217755594  1.0000
  C   C6        1.0  0.4072614651136704  0.5505973038126158  0.7079058284696559  1.0000
  C   C7        1.0  0.4727989382632246  0.5058901860505999  0.32767771164318293  1.0000
  C   C8        1.0  0.5228119280857656  0.4929932654506573  0.6698053769706149  1.0000
  C   C9        1.0  0.3609118397251122  0.5648320179923376  0.3057549988768642  1.0000
  C   C10       1.0  0.6359048348854941  0.43868947822996773  0.6924416490408233  1.0000
  C   C11       1.0  0.3630904259400936  0.56142448726834  0.2468809905069094  1.0000
  C   C12       1.0  0.6324908538408636  0.44531535147618956  0.7513235389969212  1.0000
  C   C13       1.0  0.4764876910646267  0.5013086854227566  0.20969097568918468  1.0000
  C   C14       1.0  0.5167063738560811  0.5036787066599757  0.7878430902601252  1.0000
  C   C15       1.0  0.40707800852035103  0.8636024621297409  0.503445955329191  1.0000
  C   C16       1.0  0.6058033944374231  0.13347645336853023  0.4879151344662702  1.0000
  C   C17       1.0  0.5153182452372534  0.9332526456098267  0.4941124470127106  1.0000
  C   C18       1.0  0.49882519458675023  0.0627980699660498  0.49452366285039767  1.0000
  C   C19       1.0  0.07630307049871025  0.4983671769246526  0.49575735571962554  1.0000
  C   C20       1.0  0.9282258603956991  0.488677053215092  0.4961424479659371  1.0000
  C   C21       1.0  0.47846287682772726  0.5004684253776049  0.3902990583539534  1.0000
  C   C22       1.0  0.5185179566310297  0.49454786591879707  0.6070111643528833  1.0000
  C   C23       1.0  0.510662648780027  0.39030251261691273  0.8766270286754008  1.0000
  C   C24       1.0  0.4819148861000855  0.6150417651787663  0.1209646410673244  1.0000
  C   C25       1.0  0.5060988794258918  0.6165811365308473  0.8762268154987254  1.0000
  C   C26       1.0  0.4835538075411776  0.38896235799848006  0.1215826615634157  1.0000
  C   C27       1.0  0.49823129622514284  0.6140203636662563  0.939140863930433  1.0000
  C   C28       1.0  0.49238015194976725  0.3912801994794322  0.058617219587667115  1.0000
  C   C29       1.0  0.4987627725971818  0.5028086580378996  0.9686648571188812  1.0000
  C   C30       1.0  0.4923781978330197  0.5024595431580751  0.029039572859389306  1.0000
  C   C31       1.0  0.5054904672022574  0.3919372276441565  0.9393371372497583  1.0000
  C   C32       1.0  0.4861728367448563  0.6132733505203376  0.0583210113558508  1.0000
  C   C33       1.0  0.491395047626753  0.7217199979851119  0.9689193407634775  1.0000
  C   C34       1.0  0.4995503210188731  0.2835306340050963  0.0288293565485418  1.0000
  C   C35       1.0  0.4855047915240648  0.7213948677702294  0.0283787283796144  1.0000
  C   C36       1.0  0.5061694667499382  0.28382074718952316  0.9693050325442911  1.0000
  C   C37       1.0  0.9179471447466624  0.6416536445830019  0.42360196291129176  1.0000
  C   C38       1.0  0.82335483853101  0.6870363240229269  0.3829735875165952  1.0000
  C   C39       1.0  0.08032945904705716  0.3696162160908115  0.578150242163936  1.0000
  C   C40       1.0  0.18529947996766796  0.27596776462738154  0.5968988812288316  1.0000
  C   C41       1.0  0.2755528972641343  0.7369367865519154  0.3648320274730992  1.0000
  C   C42       1.0  0.7253372854117969  0.26614734717208693  0.6344341308152935  1.0000
  N   N1        1.0  0.5120942340230529  0.5036791518431515  0.8488823537309925  1.0000
  N   N2        1.0  0.47960493508371377  0.5018374994685147  0.1487950592685436  1.0000
  N   N3        1.0  0.14570218463635598  0.44609062222304646  0.5313545169363039  1.0000
  N   N4        1.0  0.8564729835839486  0.5502861440878278  0.4640205775534696  1.0000
  O   O1        1.0  0.5567129228435732  0.6834581562532805  0.49057564328312253  1.0000
  O   O2        1.0  0.45460623629141844  0.3135101719089023  0.49932888639065  1.0000
  O   O3        1.0  0.3214824651581552  0.6719943127146097  0.516070268783821  1.0000
  O   O4        1.0  0.6898704430861854  0.3254029919366276  0.483371809217644  1.0000
  O   O5        1.0  0.6005408024427369  0.493767016317868  0.4016732033593726  1.0000
  O   O6        1.0  0.3975177987112914  0.4889315404355301  0.5954444355108279  1.0000
  O   O7        1.0  0.3638354072780245  0.5009143292972028  0.4268023146840036  1.0000
  O   O8        1.0  0.6318040007441823  0.5034837763650089  0.5708152830324593  1.0000
  O   O9        1.0  0.5130384770298377  0.2964559081480901  0.8497471633454837  1.0000
  O   O10       1.0  0.4810434923647476  0.7088462576272434  0.147676442425194  1.0000
  O   O11       1.0  0.5078327207801365  0.7108472808723295  0.8487560111928119  1.0000
  O   O12       1.0  0.47959779121908513  0.2949351881015901  0.14923669683134477  1.0000
  O   O13       1.0  0.2457511003585964  0.6283310658890146  0.33942974142887994  1.0000
  O   O14       1.0  0.7527533244221017  0.3758095302164222  0.6596961853636075  1.0000
