data_image0
_chemical_formula_structural       Cd6P4H40C36O20
_chemical_formula_sum              "Cd6 P4 H40 C36 O20"
_cell_length_a       5.821246339037759
_cell_length_b       6.940556747098235
_cell_length_c       27.904792442421215
_cell_angle_alpha    89.99973921810758
_cell_angle_beta     92.31322128048298
_cell_angle_gamma    89.99952275617984

_space_group_name_H-M_alt    "P 1"
_space_group_IT_number       1

loop_
  _space_group_symop_operation_xyz
  'x, y, z'

loop_
  _atom_site_type_symbol
  _atom_site_label
  _atom_site_symmetry_multiplicity
  _atom_site_fract_x
  _atom_site_fract_y
  _atom_site_fract_z
  _atom_site_occupancy
  Cd  Cd1       1.0  0.5062610863328983  0.21161700150494772  0.959073100548899  1.0000
  Cd  Cd2       1.0  0.9937463278387924  0.7116380890023281  0.5409319076850423  1.0000
  Cd  Cd3       1.0  0.4937383250376968  0.7883728386492667  0.040926911769432195  1.0000
  Cd  Cd4       1.0  0.006277441262483298  0.28837912635061264  0.4590754344708969  1.0000
  Cd  Cd5       1.0  3.423906875393134e-06  0.9999999999899672  0.9999996644510032  1.0000
  Cd  Cd6       1.0  0.5000066618926553  0.5000114893172878  0.5000020235761795  1.0000
  P   P1        1.0  0.9819107082338405  0.20806849037538203  0.8863582563876377  1.0000
  P   P2        1.0  0.518117213530587  0.7080776602953734  0.6136429520486216  1.0000
  P   P3        1.0  0.0180920981012207  0.7919242313861903  0.11364070343834239  1.0000
  P   P4        1.0  0.4819184163023137  0.2919395550402372  0.3863601686866929  1.0000
  H   H1        1.0  0.7217951225080766  0.1034125870677727  0.7987507160065661  1.0000
  H   H2        1.0  0.7781757246104845  0.6034030946121617  0.701257802867211  1.0000
  H   H3        1.0  0.27817834193604085  0.8965858980400515  0.2012451812181482  1.0000
  H   H4        1.0  0.2217965992304656  0.3965896271915811  0.2987524217209554  1.0000
  H   H5        1.0  0.8192698457122418  0.9082745964851212  0.7276928182578644  1.0000
  H   H6        1.0  0.6806564249965987  0.4082457754019302  0.772310263819044  1.0000
  H   H7        1.0  0.1807052800028259  0.0917354150778493  0.2723016565361647  1.0000
  H   H8        1.0  0.31925369012326843  0.5917166897274628  0.22769166185655368  1.0000
  H   H9        1.0  0.19690563745871967  0.7387673183849941  0.7265418344188674  1.0000
  H   H10       1.0  0.30303293083934346  0.23873330786305055  0.7734527315798944  1.0000
  H   H11       1.0  0.803076451691922  0.26125998282041263  0.2734548370268257  1.0000
  H   H12       1.0  0.696881777777321  0.761223394103368  0.22653524813370748  1.0000
  H   H13       1.0  0.47600322465674344  0.7692001080862314  0.7957487521550775  1.0000
  H   H14       1.0  0.023987993427937195  0.2691731562569686  0.7042378742237644  1.0000
  H   H15       1.0  0.5240027595820606  0.23081566660656697  0.2042437781046758  1.0000
  H   H16       1.0  0.9759780013544769  0.7308065984750699  0.2957432798834461  1.0000
  H   H17       1.0  0.3867038686364666  0.9769384028728826  0.8650028987659866  1.0000
  H   H18       1.0  0.11332147985051222  0.47693034751587504  0.6349875696229786  1.0000
  H   H19       1.0  0.6132919451949519  0.02306440457592631  0.1349931474448383  1.0000
  H   H20       1.0  0.8866930569605245  0.5230782231198603  0.3650039425349618  1.0000
  H   H21       1.0  0.25489918141988  0.4473142201217046  0.8621428476286468  1.0000
  H   H22       1.0  0.2451218919358453  0.9473229706890863  0.6378619739291552  1.0000
  H   H23       1.0  0.7451054454063665  0.5526669751663107  0.1378586329609703  1.0000
  H   H24       1.0  0.7549104007509014  0.05269856706381399  0.3621436331745187  1.0000
  H   H25       1.0  0.9733501767407234  0.4920316057009871  0.8381000113408702  1.0000
  H   H26       1.0  0.5266784723295713  0.9920329618179978  0.6619057713598266  1.0000
  H   H27       1.0  0.026675123604995597  0.5079683199938502  0.1619026821737108  1.0000
  H   H28       1.0  0.47336238743017844  0.007974167842725404  0.3380991761184404  1.0000
  H   H29       1.0  0.015061414517973  0.7401544813353385  0.8964628827194971  1.0000
  H   H30       1.0  0.48495323184057776  0.24016724391268707  0.6035432978160529  1.0000
  H   H31       1.0  0.9849587138670374  0.2598339179269473  0.1035394179518576  1.0000
  H   H32       1.0  0.5150756804268325  0.7598355633581093  0.39646372026348337  1.0000
  H   H33       1.0  0.8716502228379353  0.5631482144293047  0.9292313277889974  1.0000
  H   H34       1.0  0.6283570099719425  0.0631696021467718  0.5707742717540683  1.0000
  H   H35       1.0  0.12836632251605806  0.4368445072858479  0.0707673652524505  1.0000
  H   H36       1.0  0.37166664341141603  0.9368490540295228  0.42923020263679484  1.0000
  H   H37       1.0  0.346691275852038  0.19381723626143818  0.0525235300936799  1.0000
  H   H38       1.0  0.15332551848420908  0.6938245394650624  0.4474804056153303  1.0000
  H   H39       1.0  0.6533150411579953  0.8061783670907448  0.9474772450038529  1.0000
  H   H40       1.0  0.8467033503621906  0.3061840310384342  0.5525255370480123  1.0000
  C   C1        1.0  0.04827519125713311  0.05523271043993112  0.8361310894493813  1.0000
  C   C2        1.0  0.45170328457709263  0.5552354003996172  0.663869049241434  1.0000
  C   C3        1.0  0.951701740551833  0.9447528073921346  0.163865547648463  1.0000
  C   C4        1.0  0.5482824166356792  0.4447674070562684  0.3361319467917383  1.0000
  C   C5        1.0  0.8889773734928285  0.033577555704056315  0.797472766295293  1.0000
  C   C6        1.0  0.6109801329823554  0.5335605705983255  0.7025282479293224  1.0000
  C   C7        1.0  0.11099419817060151  0.9664266926613652  0.20251881781810246  1.0000
  C   C8        1.0  0.38896439463157145  0.4664292697310941  0.2974746238795944  1.0000
  C   C9        1.0  0.9429099026022315  0.9215769600647195  0.7579452841443697  1.0000
  C   C10       1.0  0.5570332498033252  0.42156807703200627  0.7420535889892078  1.0000
  C   C11       1.0  0.057063532921652886  0.07842008424068332  0.2420498961405571  1.0000
  C   C12       1.0  0.4428905030148512  0.5784087961316687  0.257945560596589  1.0000
  C   C13       1.0  0.15439661120588968  0.8266579352898376  0.7572688499973736  1.0000
  C   C14       1.0  0.3455652106325857  0.32663118226022914  0.7427278826481468  1.0000
  C   C15       1.0  0.8455940884165899  0.17335351701050433  0.2427282372355677  1.0000
  C   C16       1.0  0.6543685102252182  0.6733341644644641  0.2572627324199246  1.0000
  C   C17       1.0  0.31189384035053536  0.8443891709509971  0.7961702412055515  1.0000
  C   C18       1.0  0.18809163665626014  0.3443769275711262  0.7038208871746008  1.0000
  C   C19       1.0  0.6881054118589631  0.15561219567908324  0.2038258279279432  1.0000
  C   C20       1.0  0.811867683759928  0.6556258800615355  0.2961652396574834  1.0000
  C   C21       1.0  0.26097923614116775  0.9597386617583086  0.8352669329949975  1.0000
  C   C22       1.0  0.23904293730101503  0.4597178636873026  0.6647256916073871  1.0000
  C   C23       1.0  0.7390302009173555  0.04027999453347771  0.16472597865436003  1.0000
  C   C24       1.0  0.7609698659421724  0.5402748580839332  0.3352654506323632  1.0000
  C   C25       1.0  0.07247330862493578  0.4503217703501293  0.8708601373304674  1.0000
  C   C26       1.0  0.4275495399052571  0.9503178207565313  0.6291468415726342  1.0000
  C   C27       1.0  0.9275381515142767  0.5496666289529344  0.1291403136847364  1.0000
  C   C28       1.0  0.572474258219735  0.049680664106368524  0.3708612175396908  1.0000
  C   C29       1.0  0.0327595801786273  0.5937150735579098  0.9114076327148269  1.0000
  C   C30       1.0  0.4672600793996295  0.09372957074392473  0.5886006040535746  1.0000
  C   C31       1.0  0.96724852833583  0.406280529777746  0.0885949461958759  1.0000
  C   C32       1.0  0.5327791767966018  0.9062948485853682  0.4114071997136222  1.0000
  C   C33       1.0  0.22682985816987866  0.6059235742179896  0.9495501074995827  1.0000
  C   C34       1.0  0.2731912073785452  0.1059225707593967  0.5504534605373834  1.0000
  C   C35       1.0  0.773179824906549  0.3940691475193248  0.0504488981693783  1.0000
  C   C36       1.0  0.7268479621530518  0.8940787956767836  0.44955219242586253  1.0000
  O   O1        1.0  0.1855848105212772  0.7016953569810983  0.9876225352593124  1.0000
  O   O2        1.0  0.3144146998968296  0.20171323016659676  0.5123821715263972  1.0000
  O   O3        1.0  0.8144094722356952  0.2982916015739079  0.012378159620134  1.0000
  O   O4        1.0  0.6856193698305191  0.7983083075718655  0.4876248809199666  1.0000
  O   O5        1.0  0.4202994654681547  0.530075999231727  0.9422951964715196  1.0000
  O   O6        1.0  0.07970365520852599  0.030093552912568104  0.5577130304025602  1.0000
  O   O7        1.0  0.5797087732723796  0.46990951843886114  0.0577106086818659  1.0000
  O   O8        1.0  0.9203185537502349  0.9699351888762495  0.4422982434585023  1.0000
  O   O9        1.0  0.7231398938996846  0.20630437119087472  0.8923242589057878  1.0000
  O   O10       1.0  0.7768899098422111  0.7063031584321495  0.6076805486074122  1.0000
  O   O11       1.0  0.27686642305121717  0.7937027586141456  0.10767651618225929  1.0000
  O   O12       1.0  0.22314582133348182  0.2936953264029469  0.3923250814367165  1.0000
  O   O13       1.0  0.13411015667404058  0.13787366447591862  0.9294339556404339  1.0000
  O   O14       1.0  0.3659088038721166  0.6378996287525072  0.5705681144590216  1.0000
  O   O15       1.0  0.8658806299013407  0.8621046492599618  0.0705652824426863  1.0000
  O   O16       1.0  0.6341217117001037  0.3621363170808749  0.4294360472901105  1.0000
  O   O17       1.0  0.34268218361060576  0.09599238749169102  0.0275239427493474  1.0000
  O   O18       1.0  0.1573390383493916  0.5960022593950001  0.47247981837553965  1.0000
  O   O19       1.0  0.6573171987806175  0.9040075383129392  0.9724753526197105  1.0000
  O   O20       1.0  0.8427036707256832  0.4040135150804431  0.5275283667907402  1.0000
