data_image0
_chemical_formula_structural       Zn2H36C52N8O16
_chemical_formula_sum              "Zn2 H36 C52 N8 O16"
_cell_length_a       10.296933414635523
_cell_length_b       10.96380570018762
_cell_length_c       12.770264021079896
_cell_angle_alpha    95.0287539404713
_cell_angle_beta     114.46434277278699
_cell_angle_gamma    100.35957649718414

_space_group_name_H-M_alt    "P 1"
_space_group_IT_number       1

loop_
  _space_group_symop_operation_xyz
  'x, y, z'

loop_
  _atom_site_type_symbol
  _atom_site_label
  _atom_site_symmetry_multiplicity
  _atom_site_fract_x
  _atom_site_fract_y
  _atom_site_fract_z
  _atom_site_occupancy
  Zn  Zn1       1.0  0.44133816431318  0.31749987593995854  0.827686194278691  1.0000
  Zn  Zn2       1.0  0.5586596490603669  0.6825034476400803  0.17231537920309856  1.0000
  H   H1        1.0  0.40305944884745076  0.3848315758239168  0.039013603385065244  1.0000
  H   H2        1.0  0.596945454840359  0.6151661357235199  0.9609929333697311  1.0000
  H   H3        1.0  0.4139226787222655  0.41348232786651107  0.22564604200673705  1.0000
  H   H4        1.0  0.5860758990102612  0.5865078520320425  0.774358753266732  1.0000
  H   H5        1.0  0.6122511028448586  0.13399311035749412  0.9476874880908499  1.0000
  H   H6        1.0  0.38775598599326605  0.8660092502750132  0.05231536616533109  1.0000
  H   H7        1.0  0.9799741001807621  0.08801222739081993  0.33910212022504993  1.0000
  H   H8        1.0  0.020021569771110193  0.9119873143372677  0.660897726816451  1.0000
  H   H9        1.0  0.6759727388179259  0.05516448978723079  0.13698496360412796  1.0000
  H   H10       1.0  0.32403776967554904  0.9448350216883914  0.8630171961711002  1.0000
  H   H11       1.0  0.596319917472549  0.14665757369331797  0.28189993783952627  1.0000
  H   H12       1.0  0.40369417773690236  0.8533429241026698  0.7181065533530244  1.0000
  H   H13       1.0  0.2248302063971012  0.67652073411076  0.48736626417737494  1.0000
  H   H14       1.0  0.7751726161342634  0.3234787008173471  0.512627989981418  1.0000
  H   H15       1.0  0.4313118232252862  0.5213293025476916  0.3807633903044589  1.0000
  H   H16       1.0  0.5686905399988903  0.47865985972653413  0.6192370388745092  1.0000
  H   H17       1.0  0.009301025971701942  0.8050897135245808  0.9215666804147136  1.0000
  H   H18       1.0  0.990693043638835  0.19491549491289825  0.0784338502226659  1.0000
  H   H19       1.0  0.08817901112075081  0.4923970226461876  0.4915506688937514  1.0000
  H   H20       1.0  0.911820653112045  0.5076062041679563  0.5084444290126059  1.0000
  H   H21       1.0  0.17514785978496414  0.1557190923444765  0.35559143297018647  1.0000
  H   H22       1.0  0.8248451023030372  0.8442739148402443  0.6444117980366714  1.0000
  H   H23       1.0  0.8051231363357374  0.8994753640339825  0.25127903140011665  1.0000
  H   H24       1.0  0.19486717932839073  0.10052794770942344  0.7487194006414059  1.0000
  H   H25       1.0  0.5002702696727966  0.7779445307284194  0.37576663486125045  1.0000
  H   H26       1.0  0.4997194079593898  0.22206063396762946  0.6242293782810224  1.0000
  H   H27       1.0  0.6116227205713827  0.9626580208162283  0.5389957222477834  1.0000
  H   H28       1.0  0.3883691216745291  0.03734715496538851  0.4610017556126849  1.0000
  H   H29       1.0  0.8202076512195264  0.13080997575660555  0.5516352763366756  1.0000
  H   H30       1.0  0.17979131271609827  0.8691895987775528  0.4483679588261539  1.0000
  H   H31       1.0  0.9203083706679466  0.2755616142694066  0.8188046203365575  1.0000
  H   H32       1.0  0.07969663701373975  0.724442469743771  0.18118595132361295  1.0000
  H   H33       1.0  0.8291038256112345  0.6329119430731039  0.8924800855977894  1.0000
  H   H34       1.0  0.17089347605741526  0.36708194273073513  0.10751987187718733  1.0000
  H   H35       1.0  0.22100306238671413  0.6203016300779538  0.8502801928437835  1.0000
  H   H36       1.0  0.7789937150876869  0.3797101129028916  0.14971695382824624  1.0000
  C   C1        1.0  0.4624845426352169  0.311211613413228  0.06339567807269475  1.0000
  C   C2        1.0  0.5375216890285089  0.6887870410135619  0.9366113432931372  1.0000
  C   C3        1.0  0.578354848663743  0.16924209283710925  0.012286789458144693  1.0000
  C   C4        1.0  0.4216544047881143  0.830760278880966  0.9877175295162246  1.0000
  C   C5        1.0  0.6138301547247238  0.12745925829730004  0.118206555740386  1.0000
  C   C6        1.0  0.3861793185250591  0.8725402638132569  0.8817960627197936  1.0000
  C   C7        1.0  0.5709267238500573  0.17833836135351083  0.19893551577425939  1.0000
  C   C8        1.0  0.4290801875742433  0.8216593073537627  0.8010685155519187  1.0000
  C   C9        1.0  0.49263029941486297  0.2725150233139075  0.17091872213862302  1.0000
  C   C10       1.0  0.5073769886845981  0.7274798497115783  0.829087578820172  1.0000
  C   C11       1.0  0.3853115973772889  0.26233802170189346  0.30896728699865866  1.0000
  C   C12       1.0  0.6146898874804309  0.7376512051329984  0.6910375710120678  1.0000
  C   C13       1.0  0.3094513752254501  0.331234958694438  0.3636349094365131  1.0000
  C   C14       1.0  0.6905457490293685  0.668754235184167  0.6363662251084677  1.0000
  C   C15       1.0  0.3438535213187067  0.46264858684183  0.39362149497493  1.0000
  C   C16       1.0  0.6561461333861446  0.537342449654908  0.6063774326746838  1.0000
  C   C17       1.0  0.26373412215159686  0.5210384301017827  0.4397493878249465  1.0000
  C   C18       1.0  0.7362632212456931  0.4789563229351829  0.5602451607111193  1.0000
  C   C19       1.0  0.15042549927504476  0.4470300247137261  0.45608835193422  1.0000
  C   C20       1.0  0.8495767689975369  0.5529704390744855  0.5439120683816727  1.0000
  C   C21       1.0  0.1148333243249411  0.31564568941106336  0.425130419708772  1.0000
  C   C22       1.0  0.8851647715974239  0.6843548061317436  0.5748710413175503  1.0000
  C   C23       1.0  0.19551559018649564  0.2575043315854658  0.37964292538728733  1.0000
  C   C24       1.0  0.8044815442517221  0.7424886438446593  0.6203592649091478  1.0000
  C   C25       1.0  0.9890454054169667  0.24534352654437444  0.44202308855687283  1.0000
  C   C26       1.0  0.010954531011456896  0.754656015784555  0.5579780998622896  1.0000
  C   C27       1.0  0.824728734742017  0.0329600430221149  0.3982611307109139  1.0000
  C   C28       1.0  0.17526648543059775  0.9670414163694905  0.6017410616075127  1.0000
  C   C29       1.0  0.7623428680810066  0.9221526975482564  0.31420071574868313  1.0000
  C   C30       1.0  0.2376492253382807  0.07784963941098512  0.6857958556269496  1.0000
  C   C31       1.0  0.5935686619060478  0.8506167699582716  0.3852783772076763  1.0000
  C   C32       1.0  0.4064206498898316  0.14938656320521201  0.6147213075481518  1.0000
  C   C33       1.0  0.6537009873981535  0.9561466351072884  0.47390796156879855  1.0000
  C   C34       1.0  0.3462901649037847  0.043855744842325406  0.5260914505798766  1.0000
  C   C35       1.0  0.7707777655706638  0.04885736360208881  0.4818825571350731  1.0000
  C   C36       1.0  0.22921955646478404  0.9511440853047971  0.5181195118428192  1.0000
  C   C37       1.0  0.1848329540453619  0.3635786916471205  0.8249451027005252  1.0000
  C   C38       1.0  0.8151697107835149  0.6364320232246855  0.17504755453646945  1.0000
  C   C39       1.0  0.0821734502840457  0.44048745833061537  0.8347584722469394  1.0000
  C   C40       1.0  0.9178265585930065  0.5595213707824698  0.16523321576796232  1.0000
  C   C41       1.0  0.950513090655939  0.37807171335967393  0.833358662315  1.0000
  C   C42       1.0  0.0494900034155989  0.6219324458491046  0.16663679686188002  1.0000
  C   C43       1.0  0.8572763557611085  0.44700809888826154  0.8507429233738508  1.0000
  C   C44       1.0  0.14272584976057354  0.5529923433296631  0.14925590888331902  1.0000
  C   C45       1.0  0.713418762952955  0.3764041122021736  0.8410014371265435  1.0000
  C   C46       1.0  0.28658314983650973  0.6235953765014557  0.15899645183463923  1.0000
  C   C47       1.0  0.8986505464551443  0.5788345511038318  0.8739002357300479  1.0000
  C   C48       1.0  0.10134606461407002  0.42116494763387646  0.12609677053841753  1.0000
  C   C49       1.0  0.02883157793778684  0.6412312811804668  0.8729189834390498  1.0000
  C   C50       1.0  0.9711653987979505  0.35877297419335724  0.12708160993559403  1.0000
  C   C51       1.0  0.11974324868459262  0.5723047510617292  0.851434271811229  1.0000
  C   C52       1.0  0.8802552020654346  0.42770512833153884  0.14856483507509916  1.0000
  N   N1        1.0  0.5036269369651125  0.2601306367232824  0.9861426096183694  1.0000
  N   N2        1.0  0.4963806014824714  0.7398727313492447  0.013865158080605526  1.0000
  N   N3        1.0  0.44048850683222446  0.328395972063987  0.24357080924062305  1.0000
  N   N4        1.0  0.5595152573021522  0.6715979362114126  0.756432748359572  1.0000
  N   N5        1.0  0.9396583254493652  0.1192727677207586  0.39406750907410537  1.0000
  N   N6        1.0  0.06034006320522421  0.8807286813363364  0.6059348952482042  1.0000
  N   N7        1.0  0.6492639010841826  0.8337711076429882  0.3078746532061061  1.0000
  N   N8        1.0  0.35072877779953876  0.16623313634484302  0.692123804761515  1.0000
  O   O1        1.0  0.30211147790964793  0.4243727887132352  0.8194480514497401  1.0000
  O   O2        1.0  0.6978906116381939  0.5756398006815007  0.18054377494672752  1.0000
  O   O3        1.0  0.1567507172409748  0.2479023718665658  0.8273199512561292  1.0000
  O   O4        1.0  0.8432602293676438  0.7521111830293137  0.17267629522101657  1.0000
  O   O5        1.0  0.689360728356654  0.26094549955995217  0.841460685129711  1.0000
  O   O6        1.0  0.3106416969629536  0.7390520930504467  0.15853644661326882  1.0000
  O   O7        1.0  0.6126221443847942  0.4404006314479007  0.828459357032557  1.0000
  O   O8        1.0  0.38737798046611266  0.5595960504883665  0.17153933684304695  1.0000
  O   O9        1.0  0.38957325088303213  0.1511685719606959  0.31710603344789945  1.0000
  O   O10       1.0  0.610430607377687  0.8488253686701482  0.6828999062403798  1.0000
  O   O11       1.0  0.29888013171689926  0.6488797652102677  0.466388488145249  1.0000
  O   O12       1.0  0.7011209240679508  0.3511130921841002  0.5336063092058654  1.0000
  O   O13       1.0  0.9318637549355842  0.2981698022012722  0.49611640612841523  1.0000
  O   O14       1.0  0.06813616030078865  0.7018335108940407  0.5038850440128401  1.0000
  O   O15       1.0  0.07081459307281085  0.7707650653526559  0.8917112290080242  1.0000
  O   O16       1.0  0.9291799473392288  0.22923737975847303  0.10829395335007068  1.0000
