data_image0
_chemical_formula_structural       Er2H42C54O12
_chemical_formula_sum              "Er2 H42 C54 O12"
_cell_length_a       7.845940504
_cell_length_b       11.31607797497964
_cell_length_c       13.048
_cell_angle_alpha    94.23520801257494
_cell_angle_beta     90.0
_cell_angle_gamma    90.0

_space_group_name_H-M_alt    "P 1"
_space_group_IT_number       1

loop_
  _space_group_symop_operation_xyz
  'x, y, z'

loop_
  _atom_site_type_symbol
  _atom_site_label
  _atom_site_symmetry_multiplicity
  _atom_site_fract_x
  _atom_site_fract_y
  _atom_site_fract_z
  _atom_site_occupancy
  Er  Er1       1.0  0.4571128213592175  0.9589437556312247  0.5256639433136172  1.0000
  Er  Er2       1.0  0.9571076910628589  0.0410573977401469  0.47433643711840995  1.0000
  H   H1        1.0  0.7823421547576928  0.6258120727759078  0.6087863007715413  1.0000
  H   H2        1.0  0.2823485595985105  0.3741917389498681  0.3912150163249065  1.0000
  H   H3        1.0  0.1202864079225208  0.7647385603465366  0.6028628965232841  1.0000
  H   H4        1.0  0.620287650348466  0.2352590485522867  0.39713035928198787  1.0000
  H   H5        1.0  0.9163745246773798  0.457843949397116  0.5969767029343203  1.0000
  H   H6        1.0  0.4163834786071163  0.5421554317379744  0.4030289287956137  1.0000
  H   H7        1.0  0.0789809710746709  0.277638534552203  0.6274895488871408  1.0000
  H   H8        1.0  0.5789936844007428  0.7223617327010246  0.3725169059982533  1.0000
  H   H9        1.0  0.388333304139465  0.2891855399899299  0.6657781661949542  1.0000
  H   H10       1.0  0.8883447429210847  0.7108120689088863  0.3342258192240521  1.0000
  H   H11       1.0  0.5383573833941995  0.4840597544677365  0.670017678805003  1.0000
  H   H12       1.0  0.0383650627794765  0.5159351960766756  0.3299853699495756  1.0000
  H   H13       1.0  0.37488813463478  0.6668464314444975  0.6380032365223727  1.0000
  H   H14       1.0  0.8748906516051773  0.3331494052180446  0.3619952705808061  1.0000
  H   H15       1.0  0.5489284551424092  0.8729149763416757  0.24139550409171304  1.0000
  H   H16       1.0  0.0489157418163373  0.1270888353841002  0.758608112207682  1.0000
  H   H17       1.0  0.7815659571817761  0.0479035464633313  0.1365131196653593  1.0000
  H   H18       1.0  0.2815557929446156  0.9520949485536221  0.8634840248993001  1.0000
  H   H19       1.0  0.5092289443136977  0.7676086969909052  0.09532063599862539  1.0000
  H   H20       1.0  0.009225152798841  0.23239245638045958  0.9046782116314347  1.0000
  H   H21       1.0  0.4471599036739278  0.6723616307265559  0.9233074267508171  1.0000
  H   H22       1.0  0.9471547733775691  0.3276342059359934  0.07669491235726159  1.0000
  H   H23       1.0  0.5505178120835765  0.7637771221683495  0.7661880438461494  1.0000
  H   H24       1.0  0.05051274602426049  0.2362169422579257  0.23381264895100878  1.0000
  H   H25       1.0  0.7180056995242265  0.949916870173915  0.7829781827154961  1.0000
  H   H26       1.0  0.2180108298205852  0.050078966488627  0.2170210907886556  1.0000
  H   H27       1.0  0.7805259289027118  0.0467383011137343  0.9565802717040128  1.0000
  H   H28       1.0  0.2805285101101518  0.9532619661394932  0.043415453567646985  1.0000
  H   H29       1.0  0.3165203711057885  0.6825874340226505  0.2627108406623577  1.0000
  H   H30       1.0  0.8165216135317264  0.3174110609943099  0.7372924351101489  1.0000
  H   H31       1.0  0.0194533720874119  0.8305682767128175  0.1852252629615236  1.0000
  H   H32       1.0  0.5194495163355128  0.1694328766585542  0.8147728182675564  1.0000
  H   H33       1.0  0.2673497203975259  0.542031375198853  0.138326777159655  1.0000
  H   H34       1.0  0.7673471391900859  0.45796977817251155  0.8616720704704048  1.0000
  H   H35       1.0  0.27731410898294934  0.427264898621992  0.9704856671396414  1.0000
  H   H36       1.0  0.7773242732201098  0.5727318241586943  0.029515962321944797  1.0000
  H   H37       1.0  0.135132301788353  0.5032415537702093  0.8179783092774358  1.0000
  H   H38       1.0  0.6351526623811878  0.4967516245379215  0.18202539236916238  1.0000
  H   H39       1.0  0.9818529717466757  0.6971215436987777  0.8348986252724728  1.0000
  H   H40       1.0  0.4818657493097902  0.3028742929637716  0.165103713835606  1.0000
  H   H41       1.0  0.9719331922173353  0.813067443515429  0.003673644605733304  1.0000
  H   H42       1.0  0.4719281261580193  0.18693636821035403  0.9963269060897345  1.0000
  C   C1        1.0  0.7928749901721159  0.8148928468767735  0.5896527599407051  1.0000
  C   C2        1.0  0.2928775713795559  0.1851145093215507  0.4103495505746508  1.0000
  C   C3        1.0  0.8710032910032905  0.6993483585759961  0.6038916478123397  1.0000
  C   C4        1.0  0.3710096958441085  0.300657225386054  0.3961059507881686  1.0000
  C   C5        1.0  0.04183564734306339  0.6855701076703653  0.6073048498820199  1.0000
  C   C6        1.0  0.5418407134023795  0.3144292734647323  0.3926931178380996  1.0000
  C   C7        1.0  0.1334945121577249  0.57592096333223  0.6189453903081414  1.0000
  C   C8        1.0  0.6334995782170407  0.4240766455665863  0.3810547631059578  1.0000
  C   C9        1.0  0.0518217031843022  0.4647273150820439  0.6151988409046111  1.0000
  C   C10       1.0  0.5518280437880847  0.5352702938167795  0.3848051445143951  1.0000
  C   C11       1.0  0.1433849771644944  0.3630169031294983  0.6324129888115378  1.0000
  C   C12       1.0  0.6433925923127288  0.6369815918874551  0.3675910533619485  1.0000
  C   C13       1.0  0.3182116916037216  0.36978330122040143  0.653164422437392  1.0000
  C   C14       1.0  0.8182205812964156  0.6302134215602848  0.346837973425167  1.0000
  C   C15       1.0  0.4016905300764435  0.47894596670155204  0.654943827418485  1.0000
  C   C16       1.0  0.9016968706802189  0.5210507560791271  0.345058568444081  1.0000
  C   C17       1.0  0.31055932666807  0.5812323554428716  0.6372684092867118  1.0000
  C   C18       1.0  0.8105643927273931  0.4187634812196777  0.3627285650144997  1.0000
  C   C19       1.0  0.7140839262219316  0.0014576643346658  0.3245798724643763  1.0000
  C   C20       1.0  0.214076311073697  0.99854614739111  0.6754183790281516  1.0000
  C   C21       1.0  0.6390859065836239  0.9444185071364615  0.23112617443960204  1.0000
  C   C22       1.0  0.1390731932575449  0.0555861907074515  0.7688744330103461  1.0000
  C   C23       1.0  0.6918686162904917  0.9738686434055808  0.1375977866928721  1.0000
  C   C24       1.0  0.1918610011422572  0.026131623847646796  0.8624002377817277  1.0000
  C   C25       1.0  0.6476215308297952  0.9154344690071738  0.03820526115015349  1.0000
  C   C26       1.0  0.14761901385939774  0.0845631398916495  0.9617933594619856  1.0000
  C   C27       1.0  0.5539042767128279  0.8088645851936391  0.0273123367033037  1.0000
  C   C28       1.0  0.0539017597424305  0.19113390982331419  0.9726878734652827  1.0000
  C   C29       1.0  0.5197503088279873  0.7546536498341538  0.9303546193884883  1.0000
  C   C30       1.0  0.0197452427686642  0.24534484518279948  0.0696471235820511  1.0000
  C   C31       1.0  0.5787744627536853  0.8051198499484684  0.8422357356745351  1.0000
  C   C32       1.0  0.0787719457832878  0.194878645068485  0.1577637080930643  1.0000
  C   C33       1.0  0.6724764223371409  0.9103968874007364  0.851553672623261  1.0000
  C   C34       1.0  0.17248155263349924  0.089601607616224  0.1484427055404112  1.0000
  C   C35       1.0  0.7066902938115902  0.9648718859649179  0.9486241028961117  1.0000
  C   C36       1.0  0.20668905138565205  0.0351248368157613  0.0513721617586071  1.0000
  C   C37       1.0  0.19902394100540013  0.8275173719685824  0.3569067732850755  1.0000
  C   C38       1.0  0.6990328306981013  0.1724873258753306  0.6430915349619327  1.0000
  C   C39       1.0  0.21449945983429325  0.7480901727965302  0.2628013450158448  1.0000
  C   C40       1.0  0.7145007022602312  0.2519100944566972  0.7372005114636622  1.0000
  C   C41       1.0  0.113709758510808  0.75904525131903  0.1799553305263899  1.0000
  C   C42       1.0  0.6137046282144496  0.2409541298160676  0.8200449363966769  1.0000
  C   C43       1.0  0.1203029770004989  0.6869435907820574  0.08293083281659358  1.0000
  C   C44       1.0  0.6202952976152216  0.3130557903530331  0.9170671349035259  1.0000
  C   C45       1.0  0.2056974557960558  0.5771030449264245  0.0720667782845794  1.0000
  C   C46       1.0  0.7056936000441567  0.422896336208666  0.9279311894355402  1.0000
  C   C47       1.0  0.21054327383158264  0.5119033585552515  0.9775007422101539  1.0000
  C   C48       1.0  0.7105496144353651  0.4880942503435719  0.0224986448029654  1.0000
  C   C49       1.0  0.1301054984395549  0.5546151388563842  0.891898688688137  1.0000
  C   C50       1.0  0.6301169372211675  0.44538069780616496  0.1081021176179817  1.0000
  C   C51       1.0  0.0443273817616472  0.6631406853973374  0.9013495802689562  1.0000
  C   C52       1.0  0.5443248005542072  0.3368613540921643  0.09864932411559121  1.0000
  C   C53       1.0  0.03879203517345789  0.7283607524856494  0.9961813300348936  1.0000
  C   C54       1.0  0.5387881794215588  0.2716412870038525  0.0038183407506337985  1.0000
  O   O1        1.0  0.6301092899544116  0.8196406678525534  0.5844625218184446  1.0000
  O   O2        1.0  0.1301131457063107  0.18036580222763382  0.41553436713556374  1.0000
  O   O3        1.0  0.8883230756652691  0.9060070581521344  0.5833256991512883  1.0000
  O   O4        1.0  0.3883129114281161  0.0939949813373673  0.41667473803521904  1.0000
  O   O5        1.0  0.6847846981838399  0.9563500878454648  0.41251882233390796  1.0000
  O   O6        1.0  0.18477708303559834  0.0436581544709966  0.5874812457329881  1.0000
  O   O7        1.0  0.8188986389489443  0.0869919897040035  0.32325640356863516  1.0000
  O   O8        1.0  0.3188973965230061  0.913018024848725  0.6767422452052543  1.0000
  O   O9        1.0  0.318970045557208  0.8242484821627514  0.4235819860160461  1.0000
  O   O10       1.0  0.8189776607054424  0.1757571017992987  0.5764156125844622  1.0000
  O   O11       1.0  0.0704772104399822  0.8961383604650804  0.36871523700138903  1.0000
  O   O12       1.0  0.5704886492216019  0.1038681096151066  0.6312755207447722  1.0000
