data_image0
_chemical_formula_structural       Cu2H20C16O8
_chemical_formula_sum              "Cu2 H20 C16 O8"
_cell_length_a       5.146237982858568
_cell_length_b       9.90560355645821
_cell_length_c       10.779679334756304
_cell_angle_alpha    76.71780622363836
_cell_angle_beta     80.01412198738566
_cell_angle_gamma    85.78040537532532

_space_group_name_H-M_alt    "P 1"
_space_group_IT_number       1

loop_
  _space_group_symop_operation_xyz
  'x, y, z'

loop_
  _atom_site_type_symbol
  _atom_site_label
  _atom_site_symmetry_multiplicity
  _atom_site_fract_x
  _atom_site_fract_y
  _atom_site_fract_z
  _atom_site_occupancy
  Cu  Cu1       1.0  0.20454295326427294  0.06961284733467468  0.4826583915037119  1.0000
  Cu  Cu2       1.0  0.7954612890044999  0.9303943262828581  0.5173385529206133  1.0000
  H   H1        1.0  0.6828545657992393  0.9646191490569506  0.9258014164475697  1.0000
  H   H2        1.0  0.3171405890059305  0.0353786328937105  0.07419912988196133  1.0000
  H   H3        1.0  0.1396683210822616  0.16394935279463138  0.8623199950420148  1.0000
  H   H4        1.0  0.8603290974157146  0.8360453385312994  0.13767822616728148  1.0000
  H   H5        1.0  0.8011182671596873  0.21386165056075862  0.8731552432218095  1.0000
  H   H6        1.0  0.19887913136172836  0.7861330316153996  0.12684483687240092  1.0000
  H   H7        1.0  0.27922482208327176  0.9013882155451821  0.8916707404672555  1.0000
  H   H8        1.0  0.7207703726750125  0.0986095847050308  0.10832608809246123  1.0000
  H   H9        1.0  0.02993705434057861  0.7784235772114129  0.9245424639195153  1.0000
  H   H10       1.0  0.9700581204411519  0.22157421388902776  0.07545622352510861  1.0000
  H   H11       1.0  0.388188085750869  0.3529195679459817  0.4228055342529446  1.0000
  H   H12       1.0  0.6118130532068021  0.647077194753038  0.5771965977500814  1.0000
  H   H13       1.0  0.8853333767256473  0.5089106009974385  0.4177253430094084  1.0000
  H   H14       1.0  0.11466976176660637  0.49108510563943497  0.5822824131472615  1.0000
  H   H15       1.0  0.7531077025532721  0.4944200903971988  0.2808871387525472  1.0000
  H   H16       1.0  0.2468951945199791  0.5055787389943234  0.7191181349569222  1.0000
  H   H17       1.0  0.659568845269078  0.37762328114621363  0.6472339180999145  1.0000
  H   H18       1.0  0.3404380164455318  0.6223755759060338  0.3527691760143129  1.0000
  H   H19       1.0  0.37986420894115724  0.27804376630158606  0.6571846493552229  1.0000
  H   H20       1.0  0.6201406032974716  0.7219561239383692  0.3428174678176178  1.0000
  C   C1        1.0  0.8871790154734922  0.9937367049892745  0.8838683523631234  1.0000
  C   C2        1.0  0.11281813164063689  0.0062610953666393  0.11613017472632953  1.0000
  C   C3        1.0  0.9411366830442133  0.13265575482581232  0.9127515635634754  1.0000
  C   C4        1.0  0.05885838462910438  0.8673430649931361  0.0872487749119486  1.0000
  C   C5        1.0  0.07696160004516628  0.878193784523063  0.942327618062514  1.0000
  C   C6        1.0  0.9230355470689628  0.12180401583285061  0.05767090902693893  1.0000
  C   C7        1.0  0.9182599588696052  0.00016183859667509896  0.7397190870524071  1.0000
  C   C8        1.0  0.08173090274334527  0.99984007631619  0.2602809485710651  1.0000
  C   C9        1.0  0.566848326425969  0.36649105704795193  0.46123240615133215  1.0000
  C   C10       1.0  0.43315642864565257  0.6335098847849563  0.5387667148400511  1.0000
  C   C11       1.0  0.6999430894056076  0.49950356591638456  0.383158112841258  1.0000
  C   C12       1.0  0.3000635980452984  0.5004973668724444  0.6168445655647616  1.0000
  C   C13       1.0  0.4811165100100609  0.3732818716679488  0.604568704093886  1.0000
  C   C14       1.0  0.5188902745609737  0.6267180278274792  0.39543325272378393  1.0000
  C   C15       1.0  0.7405618009931771  0.23633013003892248  0.4598716031915517  1.0000
  C   C16       1.0  0.25944654022755037  0.763674977203202  0.5401272951155391  1.0000
  O   O1        1.0  0.11429442084398998  0.06591114436303512  0.6692200924838831  1.0000
  O   O2        1.0  0.8856961394202757  0.9340938658551393  0.33078303734709646  1.0000
  O   O3        1.0  0.7518385129549114  0.9355545242493332  0.7022629228400918  1.0000
  O   O4        1.0  0.24815420665640883  0.0644495031049175  0.29773096006528743  1.0000
  O   O5        1.0  0.6223831077142278  0.12226061143608288  0.4774716930389362  1.0000
  O   O6        1.0  0.37762969373680727  0.8777393615746619  0.5225204882886916  1.0000
  O   O7        1.0  0.9884207453839694  0.2455077362647344  0.4495421153978115  1.0000
  O   O8        1.0  0.011579086595887095  0.7545045944586233  0.5504568987937193  1.0000
