data_image0
_chemical_formula_structural       Hg4H32C36S8N24
_chemical_formula_sum              "Hg4 H32 C36 S8 N24"
_cell_length_a       9.153333181982543
_cell_length_b       10.853394780000562
_cell_length_c       13.916337757000568
_cell_angle_alpha    89.99996983404162
_cell_angle_beta     107.23770415582362
_cell_angle_gamma    89.99998946701521

_space_group_name_H-M_alt    "P 1"
_space_group_IT_number       1

loop_
  _space_group_symop_operation_xyz
  'x, y, z'

loop_
  _atom_site_type_symbol
  _atom_site_label
  _atom_site_symmetry_multiplicity
  _atom_site_fract_x
  _atom_site_fract_y
  _atom_site_fract_z
  _atom_site_occupancy
  Hg  Hg1       1.0  0.650430489105041  0.906098825251185  0.3338616937349315  1.0000
  Hg  Hg2       1.0  0.8495712685416592  0.40610030121372626  0.6661393485964453  1.0000
  Hg  Hg3       1.0  0.34957074173652797  0.09389940313745632  0.6661373482317501  1.0000
  Hg  Hg4       1.0  0.1504276675035499  0.5938979271745097  0.3338613988695585  1.0000
  H   H1        1.0  0.11578048891881558  0.25611699931953785  0.2754083832696494  1.0000
  H   H2        1.0  0.3842235685208877  0.756120754599159  0.7245906865542437  1.0000
  H   H3        1.0  0.884220739573955  0.7438803076981485  0.7245913768177488  1.0000
  H   H4        1.0  0.6157776599712573  0.2438793165306521  0.27540907353246513  1.0000
  H   H5        1.0  0.061092000393720994  0.2745518336380215  0.1407561289420372  1.0000
  H   H6        1.0  0.43891090716515174  0.7745554904120198  0.8592419890899237  1.0000
  H   H7        1.0  0.9389080889221759  0.7254463947510176  0.8592419704730787  1.0000
  H   H8        1.0  0.5610880335774412  0.22544550208881023  0.1407573221344052  1.0000
  H   H9        1.0  0.96081905578324  0.10906338336797458  0.3488349000999448  1.0000
  H   H10       1.0  0.5391839850601484  0.6090681604933295  0.6511650793086545  1.0000
  H   H11       1.0  0.03918331658440619  0.8909330022788493  0.6511650844187641  1.0000
  H   H12       1.0  0.4608195288319124  0.39093375337732533  0.3488358477602418  1.0000
  H   H13       1.0  0.6648449759468066  0.9549315558054874  0.08283372633183456  1.0000
  H   H14       1.0  0.835152184069308  0.4549310226477629  0.9171663937985032  1.0000
  H   H15       1.0  0.33515166999963947  0.045068515324238896  0.9171672903920366  1.0000
  H   H16       1.0  0.16484674962647722  0.5450690484816435  0.0828350717875281  1.0000
  H   H17       1.0  0.8724573273709451  0.1130567168298313  0.032222618104327604  1.0000
  H   H18       1.0  0.6275411361645522  0.6130585041908674  0.9677764615790708  1.0000
  H   H19       1.0  0.1275393232741351  0.8869405901882599  0.9677769623792613  1.0000
  H   H20       1.0  0.3724577998800313  0.38694248830948647  0.03222428588623667  1.0000
  H   H21       1.0  0.3349653038850988  0.1028192982906688  0.3554767335356246  1.0000
  H   H22       1.0  0.1650388230329654  0.602824982576429  0.6445224131277101  1.0000
  H   H23       1.0  0.6650370731809758  0.8971752446152337  0.6445218147425607  1.0000
  H   H24       1.0  0.8349612639333017  0.39717600992448604  0.35547640440719863  1.0000
  H   H25       1.0  0.4230916621310499  0.966099504360521  0.0938304064989595  1.0000
  H   H26       1.0  0.0769134440143517  0.4660990168932031  0.9061687825040963  1.0000
  H   H27       1.0  0.5769152974784291  0.033905173623217905  0.9061668851395268  1.0000
  H   H28       1.0  0.9230843552025829  0.533901975608032  0.09382958616865977  1.0000
  H   H29       1.0  0.168634306253054  0.12250634525843651  0.037360570291333786  1.0000
  H   H30       1.0  0.3313698117431797  0.6225081058329492  0.9626385665049213  1.0000
  H   H31       1.0  0.8313703585602779  0.8774974113541915  0.9626384268467021  1.0000
  H   H32       1.0  0.6686279898227525  0.37749288666852726  0.037359084047338294  1.0000
  C   C1        1.0  0.0872190329038247  0.20833566235609177  0.20298799352632096  1.0000
  C   C2        1.0  0.41278390466585785  0.7083402861533941  0.7970101576960146  1.0000
  C   C3        1.0  0.9127821955889458  0.7916616446616017  0.7970117665610842  1.0000
  C   C4        1.0  0.5872161823002031  0.2916616277182271  0.20298865983865977  1.0000
  C   C5        1.0  0.9059648834985836  0.0858282873130918  0.2704359071192144  1.0000
  C   C6        1.0  0.5940370263503638  0.5858311609302477  0.7295631413848084  1.0000
  C   C7        1.0  0.0940363473429855  0.9141699410755494  0.7295631348474672  1.0000
  C   C8        1.0  0.40596419979214454  0.41417167431143287  0.27043733682170057  1.0000
  C   C9        1.0  0.7554690192953899  0.011240622849008699  0.1302481625446247  1.0000
  C   C10       1.0  0.7445306295628668  0.5112415372901465  0.8697526288460082  1.0000
  C   C11       1.0  0.24452991909861768  0.988758526910175  0.8697518668006553  1.0000
  C   C12       1.0  0.25546944565838464  0.4887594552095678  0.1302497792913613  1.0000
  C   C13       1.0  0.8584404713346814  0.0858292680901513  0.10395128494559462  1.0000
  C   C14       1.0  0.6415602922903857  0.5858311015238088  0.8960482572476066  1.0000
  C   C15       1.0  0.14155961563200486  0.9141698816693521  0.8960475325897761  1.0000
  C   C16       1.0  0.3584386414049802  0.41417081234700953  0.10395320833796257  1.0000
  C   C17       1.0  0.32781741221138105  0.08560351340919681  0.2773872987521671  1.0000
  C   C18       1.0  0.17218672250978528  0.5856073014709509  0.7226118565410005  1.0000
  C   C19       1.0  0.6721849648540683  0.9143937936088165  0.7226112495253291  1.0000
  C   C20       1.0  0.827812220581812  0.41439369103012075  0.27738673656283197  1.0000
  C   C21       1.0  0.3683624997920063  0.0185710737366236  0.13964208270963496  1.0000
  C   C22       1.0  0.13164166765979246  0.5185720112311357  0.8603563880635292  1.0000
  C   C23       1.0  0.6316433135942106  0.981431761505618  0.8603557026187261  1.0000
  C   C24       1.0  0.8683572754313926  0.48143082401134774  0.13964220503984132  1.0000
  C   C25       1.0  0.2415445569450725  0.092656668671161  0.1102028261347741  1.0000
  C   C26       1.0  0.2584595769286508  0.5926594103319474  0.8897956075027906  1.0000
  C   C27       1.0  0.7584601102178894  0.907344323829598  0.8897954528834617  1.0000
  C   C28       1.0  0.7415382222878576  0.4073434249106995  0.11020276116950357  1.0000
  C   C29       1.0  0.6796039137080285  0.14681100085973503  0.46734592441669776  1.0000
  C   C30       1.0  0.820399093584463  0.6468139730840717  0.532659062914938  1.0000
  C   C31       1.0  0.32039846335700867  0.8531881488996901  0.5326526238603364  1.0000
  C   C32       1.0  0.17959868918921978  0.353187940786178  0.46734433260103  1.0000
  C   C33       1.0  0.5581796246809816  0.7289064091695963  0.1466581250659829  1.0000
  C   C34       1.0  0.9418199278745901  0.22890498166423603  0.853341839100544  1.0000
  C   C35       1.0  0.4418193160616112  0.2710945833312337  0.853341186158346  1.0000
  C   C36       1.0  0.05817670867562439  0.7710960108352295  0.1466620501050713  1.0000
  S   S1        1.0  0.7636939097154921  0.0107438801932389  0.4973977837106246  1.0000
  S   S2        1.0  0.7363057323189466  0.5107533346615512  0.502605162288333  1.0000
  S   S3        1.0  0.23630732112648892  0.9892525054539901  0.5026012582565187  1.0000
  S   S4        1.0  0.26368517311164646  0.4892531860617454  0.49740119536296845  1.0000
  S   S5        1.0  0.6057274156661947  0.6932253630405469  0.2678565948340434  1.0000
  S   S6        1.0  0.8942732922372514  0.19322586669104413  0.7321450478890554  1.0000
  S   S7        1.0  0.3942669519271361  0.30677378671975924  0.7321411005459382  1.0000
  S   S8        1.0  0.10573134908686649  0.8067742044363514  0.2678611304548184  1.0000
  N   N1        1.0  0.9529784731077625  0.13219260490530624  0.19347199469653728  1.0000
  N   N2        1.0  0.5470234133783832  0.6321963552002642  0.806527748687806  1.0000
  N   N3        1.0  0.047022755385008004  0.8678047021123876  0.806527765390868  1.0000
  N   N4        1.0  0.4529766688896686  0.36780555867087367  0.19347250508785413  1.0000
  N   N5        1.0  0.7856077893185754  0.0130059321261129  0.2338015827089492  1.0000
  N   N6        1.0  0.7143941488379181  0.5130069205544885  0.7661989385384729  1.0000
  N   N7        1.0  0.2143934368249845  0.9869922962620448  0.7661988954987179  1.0000
  N   N8        1.0  0.2856070726072132  0.4869931505745981  0.2338029759097111  1.0000
  N   N9        1.0  0.21723245387011048  0.1342298085117619  0.1982173859834901  1.0000
  N   N10       1.0  0.28277165646306207  0.6342344483921281  0.8017824630561989  1.0000
  N   N11       1.0  0.782771064721004  0.8657674985058533  0.8017821048455714  1.0000
  N   N12       1.0  0.7172284305029988  0.3657674654794931  0.19821635447848246  1.0000
  N   N13       1.0  0.4214429890374375  0.0156705598604034  0.24379626695748158  1.0000
  N   N14       1.0  0.0785611773795125  0.5156734178899001  0.7562029233895587  1.0000
  N   N15       1.0  0.5785593903765969  0.9843285898992634  0.7562015631990633  1.0000
  N   N16       1.0  0.9214389119355528  0.4843284959819627  0.24379517602462633  1.0000
  N   N17       1.0  0.62207929600185  0.24466426582263517  0.44844749759356967  1.0000
  N   N18       1.0  0.8779282494852508  0.7446727450513464  0.5515561840509235  1.0000
  N   N19       1.0  0.37792536411534877  0.755331198453163  0.5515529357875266  1.0000
  N   N20       1.0  0.12207640828127352  0.255330090189851  0.4484449674488218  1.0000
  N   N21       1.0  0.5238086516846748  0.7511851845441768  0.05972795407017628  1.0000
  N   N22       1.0  0.9761897375030699  0.25118277221154267  0.9402746469803348  1.0000
  N   N23       1.0  0.47618571121044073  0.24881488658635226  0.9402711775505638  1.0000
  N   N24       1.0  0.023808040573023  0.7488172989168124  0.0597301847770808  1.0000
