data_image0
_chemical_formula_structural       Al4H24C40O24
_chemical_formula_sum              "Al4 H24 C40 O24"
_cell_length_a       6.660121100766296
_cell_length_b       14.131342785562538
_cell_length_c       18.895444041893228
_cell_angle_alpha    101.09070604265303
_cell_angle_beta     90.00420564168243
_cell_angle_gamma    90.00143952834718

_space_group_name_H-M_alt    "P 1"
_space_group_IT_number       1

loop_
  _space_group_symop_operation_xyz
  'x, y, z'

loop_
  _atom_site_type_symbol
  _atom_site_label
  _atom_site_symmetry_multiplicity
  _atom_site_fract_x
  _atom_site_fract_y
  _atom_site_fract_z
  _atom_site_occupancy
  Al  Al1       1.0  0.9078962588770025  0.49930027177390457  0.49575747089383543  1.0000
  Al  Al2       1.0  0.40789274664551567  0.5007032686292162  0.5042320399955429  1.0000
  Al  Al3       1.0  0.36971010077814986  0.9995769916281814  0.0021364227882329856  1.0000
  Al  Al4       1.0  0.8697334463666948  0.0004444274461406203  0.997854159170757  1.0000
  H   H1        1.0  0.4308502219459456  0.8126754232193816  0.808995109867226  1.0000
  H   H2        1.0  0.9308613741554197  0.1873194457249241  0.19101567043541223  1.0000
  H   H3        1.0  0.9807049034586373  0.7612118480179078  0.8132894917381039  1.0000
  H   H4        1.0  0.48065202718822053  0.23875337979659148  0.18671697349099503  1.0000
  H   H5        1.0  0.43401700867071474  0.6863399165288938  0.69726318391173  1.0000
  H   H6        1.0  0.9339542346027373  0.3137147369166016  0.30275220764012545  1.0000
  H   H7        1.0  0.8873187092205298  0.7067167237405342  0.3587728067201469  1.0000
  H   H8        1.0  0.3875461075009596  0.29331840372003637  0.6411373118745234  1.0000
  H   H9        1.0  0.4883595879049523  0.5987823575491475  0.3200771047891778  1.0000
  H   H10       1.0  0.9885361074792414  0.40125665582785786  0.6799987916615394  1.0000
  H   H11       1.0  0.7650845765534626  0.835938972717848  0.29491885042536137  1.0000
  H   H12       1.0  0.2651315369523601  0.1640782668019796  0.7050091869251247  1.0000
  H   H13       1.0  0.529233772414024  0.6892056616134141  0.21965754804415386  1.0000
  H   H14       1.0  0.029253697104707  0.3108361349064594  0.7804208863651143  1.0000
  H   H15       1.0  0.38912491652852316  0.803038498811702  0.14646651086680862  1.0000
  H   H16       1.0  0.8890581703135966  0.196993292498  0.8535592125010254  1.0000
  H   H17       1.0  0.9776366622357883  0.8418919419234141  0.7113419079642186  1.0000
  H   H18       1.0  0.47799213685726016  0.15792770012227914  0.2886107205062772  1.0000
  H   H19       1.0  0.8344850526308463  0.021446672045080103  0.18492241017873573  1.0000
  H   H20       1.0  0.33439520963777614  0.9785968604459896  0.8150341151507804  1.0000
  H   H21       1.0  0.6665599945730419  0.6195452980001901  0.5404104398201782  1.0000
  H   H22       1.0  0.16645400528403084  0.3804539036917872  0.45958116628406037  1.0000
  H   H23       1.0  0.6241923538674499  0.8837394102332252  0.019508705601069196  1.0000
  H   H24       1.0  0.12416703159588141  0.11630459469927254  0.9805018189745812  1.0000
  C   C1        1.0  0.665288357261801  0.40636527352349816  0.5950690932047851  1.0000
  C   C2        1.0  0.16505001480787482  0.5936504490079882  0.40491334622196734  1.0000
  C   C3        1.0  0.6513198566396738  0.36906093168734333  0.3971830618771008  1.0000
  C   C4        1.0  0.15143943748432778  0.6308898555404313  0.6028087613700777  1.0000
  C   C5        1.0  0.2888080583298986  0.7807200628970676  0.7870842609525824  1.0000
  C   C6        1.0  0.7888126066201052  0.21927877546181657  0.2129215259834966  1.0000
  C   C7        1.0  0.12358749630866582  0.7965326039286537  0.8294823070367418  1.0000
  C   C8        1.0  0.6235541925509905  0.20346034362103177  0.1705244828394683  1.0000
  C   C9        1.0  0.2925474965040565  0.7219744899444291  0.7157585602394223  1.0000
  C   C10       1.0  0.7925384984116802  0.2780027348996298  0.28425202070229727  1.0000
  C   C11       1.0  0.1330048042364282  0.7069120901502117  0.6695654547912542  1.0000
  C   C12       1.0  0.6330119167868561  0.2929876270090758  0.33045211360578014  1.0000
  C   C13       1.0  0.1832481359057283  0.6468886713043032  0.34403870351710003  1.0000
  C   C14       1.0  0.6834214088371269  0.3531425418526481  0.6559554405017922  1.0000
  C   C15       1.0  0.10139270912819141  0.8698033338504274  0.16520074031386403  1.0000
  C   C16       1.0  0.6012693101034402  0.13026026053373133  0.8348177700749135  1.0000
  C   C17       1.0  0.8996610406477997  0.8255591481439449  0.2612849008349016  1.0000
  C   C18       1.0  0.3996597933354876  0.1744844712580829  0.7386761617314336  1.0000
  C   C19       1.0  0.9238554935089952  0.8811660522418662  0.20910549485149235  1.0000
  C   C20       1.0  0.4237512529351974  0.1189097715345113  0.7908861640789909  1.0000
  C   C21       1.0  0.2528200783330661  0.8090560296263121  0.17893077241087954  1.0000
  C   C22       1.0  0.7527448418342785  0.1909745060465724  0.8210915661046986  1.0000
  C   C23       1.0  0.2331213095961502  0.7537639330401901  0.23363985555943156  1.0000
  C   C24       1.0  0.7331320125262762  0.24626319108148206  0.7663780697048211  1.0000
  C   C25       1.0  0.04944731698635959  0.759925258454288  0.27420571925208054  1.0000
  C   C26       1.0  0.5494898569045857  0.24010865221311664  0.7257729157647577  1.0000
  C   C27       1.0  0.026817573427606996  0.7036279506704161  0.32811053072890684  1.0000
  C   C28       1.0  0.5269687676059148  0.29639178023435864  0.6718493535233138  1.0000
  C   C29       1.0  0.36670461690788864  0.6426666528088983  0.305163705658508  1.0000
  C   C30       1.0  0.8668321364031256  0.3573827142794102  0.694877452862457  1.0000
  C   C31       1.0  0.3893461915953154  0.6932652681936771  0.25021452270723193  1.0000
  C   C32       1.0  0.8893894399623862  0.30677070043095966  0.7498316851048231  1.0000
  C   C33       1.0  0.622407881538905  0.13461840163103028  0.1008416120605133  1.0000
  C   C34       1.0  0.1224050205769558  0.8654051615125907  0.8991591283306379  1.0000
  C   C35       1.0  0.6163683318132699  0.083970033853916  0.899155415960749  1.0000
  C   C36       1.0  0.11647331491737128  0.9160511251105773  0.10083062223626632  1.0000
  C   C37       1.0  0.9475057027123912  0.7662097791029435  0.6834183820330254  1.0000
  C   C38       1.0  0.4476722544816454  0.23354205615125778  0.3166458829275386  1.0000
  C   C39       1.0  0.7774430956883548  0.9601162402204293  0.20793860930912444  1.0000
  C   C40       1.0  0.2773191211608363  0.03993821559416231  0.7920144863987632  1.0000
  O   O1        1.0  0.4886898487605862  0.3982517981395615  0.42860462224438584  1.0000
  O   O2        1.0  0.9889400398917659  0.6019723152344129  0.5711873097294814  1.0000
  O   O3        1.0  0.8305829564033829  0.4255270361270218  0.5672220340367461  1.0000
  O   O4        1.0  0.33026595038684553  0.5748103482443412  0.4329849392463815  1.0000
  O   O5        1.0  0.8260473924922705  0.39976496063964356  0.41715593291159087  1.0000
  O   O6        1.0  0.3261349920762058  0.5999575624407568  0.5829987450798344  1.0000
  O   O7        1.0  0.9892605508617082  0.5737500381876329  0.42432829900920416  1.0000
  O   O8        1.0  0.48946991047729677  0.42594733869744766  0.5754506076757766  1.0000
  O   O9        1.0  0.6576818194670437  0.5596743736817301  0.5050919932050918  1.0000
  O   O10       1.0  0.1577484155369362  0.4403389648542629  0.4948933731845956  1.0000
  O   O11       1.0  0.7891452982878135  0.06783619579299235  0.923175763145011  1.0000
  O   O12       1.0  0.28924111690517407  0.9321720792598993  0.07681372646667481  1.0000
  O   O13       1.0  0.44945459282610767  0.10743330318212678  0.07575174714651921  1.0000
  O   O14       1.0  0.9494320005927435  0.8925683987988151  0.924235141911659  1.0000
  O   O15       1.0  0.44956783106013626  0.06675612468382036  0.9275043182446013  1.0000
  O   O16       1.0  0.9496565949721187  0.9332825885577304  0.0724869304880542  1.0000
  O   O17       1.0  0.29114551963067475  0.8932259610757638  0.9274679536538888  1.0000
  O   O18       1.0  0.7911582433081604  0.10681641185927049  0.0725322822801999  1.0000
  O   O19       1.0  0.6203788985462708  0.9430331870672359  0.0010200815125571926  1.0000
  O   O20       1.0  0.12038452882831757  0.057008472359157715  0.9989897270693792  1.0000
  O   O21       1.0  0.7756612578962887  0.7406263420405067  0.6653165135194358  1.0000
  O   O22       1.0  0.27581124490397707  0.25893595378032325  0.33484570843977934  1.0000
  O   O23       1.0  0.607885870130339  0.9625919285966374  0.23379737740962978  1.0000
  O   O24       1.0  0.10775188299118102  0.03748783050127713  0.7661607735041899  1.0000
