data_image0
_chemical_formula_structural       Ba2H42C60O14
_chemical_formula_sum              "Ba2 H42 C60 O14"
_cell_length_a       5.120828309581165
_cell_length_b       14.232995781612034
_cell_length_c       17.649
_cell_angle_alpha    70.30099365995387
_cell_angle_beta     84.18191499608969
_cell_angle_gamma    88.0969704547278

_space_group_name_H-M_alt    "P 1"
_space_group_IT_number       1

loop_
  _space_group_symop_operation_xyz
  'x, y, z'

loop_
  _atom_site_type_symbol
  _atom_site_label
  _atom_site_symmetry_multiplicity
  _atom_site_fract_x
  _atom_site_fract_y
  _atom_site_fract_z
  _atom_site_occupancy
  Ba  Ba1       1.0  0.7688860826469935  0.3976418715897196  0.6187952571113726  1.0000
  Ba  Ba2       1.0  0.231111974159937  0.602357946768791  0.38120524604249084  1.0000
  H   H1        1.0  0.9545639454967372  0.15756093024463516  0.0011334784877873978  1.0000
  H   H2        1.0  0.045436074230742904  0.8424388881138825  0.9988664003274649  1.0000
  H   H3        1.0  0.8952545119050584  0.5253767323655509  0.7720960609934622  1.0000
  H   H4        1.0  0.10474354490187211  0.4746230859929597  0.22790444216040132  1.0000
  H   H5        1.0  0.4965062509255985  0.055678264993567  0.7900673787096151  1.0000
  H   H6        1.0  0.5034937688018816  0.9443215533649436  0.20993250010564424  1.0000
  H   H7        1.0  0.0121105300366082  0.7286793770751387  0.5134766791993357  1.0000
  H   H8        1.0  0.9878894917064899  0.2713211875507824  0.48652299669389276  1.0000
  H   H9        1.0  0.8462006380094778  0.1414691661403538  0.14294910160123206  1.0000
  H   H10       1.0  0.1537993837336202  0.8585313984855674  0.8570505742919963  1.0000
  H   H11       1.0  0.48961371446277024  0.84248590296054  0.49021332233469656  1.0000
  H   H12       1.0  0.5103863032490848  0.1575131691305671  0.5097873260069292  1.0000
  H   H13       1.0  0.5235295094528496  0.21691829355634698  0.7992650744512699  1.0000
  H   H14       1.0  0.4764705122902556  0.7830822710695742  0.20073460144195823  1.0000
  H   H15       1.0  0.988738548902191  0.136543054984557  0.889502577331271  1.0000
  H   H16       1.0  0.0112614708252821  0.8634567633739536  0.11049673487964645  1.0000
  H   H17       1.0  0.545722950612202  0.957726008535424  0.37714928526087743  1.0000
  H   H18       1.0  0.45427510619473577  0.0422738098230866  0.6228512178929861  1.0000
  H   H19       1.0  0.5168107787254713  0.1174811465991041  0.2674474998102099  1.0000
  H   H20       1.0  0.4831892410020018  0.8825186717594135  0.7325529456093847  1.0000
  H   H21       1.0  0.44189640353355497  0.5115625763884424  0.8331274838944864  1.0000
  H   H22       1.0  0.558099692368451  0.4884379882374787  0.1668728740716148  1.0000
  H   H23       1.0  0.8701980173869757  0.9614983902794876  0.7518870297205922  1.0000
  H   H24       1.0  0.12980003941995483  0.0385014280790301  0.24811290682892917  1.0000
  H   H25       1.0  0.8785851850655677  0.3675949069683497  0.8688785369244768  1.0000
  H   H26       1.0  0.1214148346619126  0.632404911390168  0.13112190849511754  1.0000
  H   H27       1.0  0.5129501197388252  0.257168226170748  0.9393855885734651  1.0000
  H   H28       1.0  0.4870518649248297  0.7428323384551732  0.06061459618983628  1.0000
  H   H29       1.0  0.49931271197359456  0.6390713181398553  0.8583109941209202  1.0000
  H   H30       1.0  0.5006873077538857  0.3609285002186553  0.1416894512986815  1.0000
  H   H31       1.0  0.801072746545188  0.2612547864932893  0.2588988577048212  1.0000
  H   H32       1.0  0.19892923408720975  0.7387442855978108  0.7411011662982006  1.0000
  H   H33       1.0  0.0941315967808265  0.2462742145585253  0.3638739037086438  1.0000
  H   H34       1.0  0.9058703838515785  0.7537248575325748  0.6361266868987201  1.0000
  H   H35       1.0  0.6790391396827077  0.7464308398933213  0.9236212866787028  1.0000
  H   H36       1.0  0.3209608800447654  0.2535689784651893  0.0763791587408988  1.0000
  H   H37       1.0  0.9471570818177925  0.1609116709035519  0.6215022951611786  1.0000
  H   H38       1.0  0.05284097700475601  0.8390888937223693  0.37849687186196945  1.0000
  H   H39       1.0  0.8377332326900702  0.1540586973020268  0.7085111931673396  1.0000
  H   H40       1.0  0.1622648221012355  0.8459403747890804  0.29148837969987085  1.0000
  H   H41       1.0  0.24396044972079525  0.5918863225091258  0.5811865181352118  1.0000
  H   H42       1.0  0.7560376070861352  0.4081134958493919  0.4188139850186515  1.0000
  C   C1        1.0  0.6557344736242571  0.6559899465314558  0.5024478814490719  1.0000
  C   C2        1.0  0.3442655461032231  0.3440098718270548  0.4975519973661875  1.0000
  C   C3        1.0  0.14913524547355192  0.2784928173352341  0.7527602004893197  1.0000
  C   C4        1.0  0.8508647742539284  0.7215070010232765  0.24723967832593977  1.0000
  C   C5        1.0  0.26750254557384784  0.5369453697139974  0.6970472680719482  1.0000
  C   C6        1.0  0.7324955132487078  0.4630551949119237  0.3029530321598841  1.0000
  C   C7        1.0  0.28435556291027814  0.0541514018781655  0.021998523039961495  1.0000
  C   C8        1.0  0.71564445883282  0.9458491627477557  0.9780011528532669  1.0000
  C   C9        1.0  0.5637770555901441  0.011181324564042  0.9167952477147594  1.0000
  C   C10       1.0  0.43622296413733613  0.9888184937944686  0.0832051977048422  1.0000
  C   C11       1.0  0.35191119562804124  0.0664170529850594  0.9391947186251386  1.0000
  C   C12       1.0  0.6480888240994318  0.9335827653734511  0.060805160190121006  1.0000
  C   C13       1.0  0.21171695584390454  0.5655154711362655  0.9591816186034804  1.0000
  C   C14       1.0  0.7882830638835757  0.4344843472222522  0.04081882681611401  1.0000
  C   C15       1.0  0.8281539701376346  0.0093567007531163  0.43926653998698123  1.0000
  C   C16       1.0  0.17184604757422053  0.9906423713379908  0.5607341083546443  1.0000
  C   C17       1.0  0.8484718642391087  0.9162365257574477  0.5019815570926909  1.0000
  C   C18       1.0  0.1515281554883714  0.0837632926010698  0.4980188883269037  1.0000
  C   C19       1.0  0.1066966748215563  0.5037021417870235  0.9210573234444225  1.0000
  C   C20       1.0  0.8933033469215488  0.4962984228388975  0.07894235244880582  1.0000
  C   C21       1.0  0.07096259652726641  0.1079505655400723  0.046553631425766205  1.0000
  C   C22       1.0  0.9290374232002137  0.8920492528184383  0.9534462473894932  1.0000
  C   C23       1.0  0.1075065921211618  0.5208595757489789  0.7741415961502015  1.0000
  C   C24       1.0  0.8924934276063184  0.4791402426095388  0.2258594158737353  1.0000
  C   C25       1.0  0.6230635586935165  0.0127880382920296  0.8354578312814737  1.0000
  C   C26       1.0  0.37693646304958867  0.9872125263338916  0.16454184461175467  1.0000
  C   C27       1.0  0.8032097671812866  0.7414174154508757  0.5068472852025749  1.0000
  C   C28       1.0  0.19679221748236134  0.2585831491750454  0.49315176635204944  1.0000
  C   C29       1.0  0.0171067049443394  0.9062081843377285  0.5635121852418125  1.0000
  C   C30       1.0  0.9828933147831408  0.0937916340207821  0.43648826017778225  1.0000
  C   C31       1.0  0.011472398513454602  0.0999692356186728  0.1261169456881674  1.0000
  C   C32       1.0  0.9885276232296434  0.9000313290072482  0.8738827302050609  1.0000
  C   C33       1.0  0.6970839684369281  0.8313501007083488  0.5004132087241048  1.0000
  C   C34       1.0  0.30291801421110165  0.1686497176501689  0.4995871789612281  1.0000
  C   C35       1.0  0.3111805816326054  0.2081295023002028  0.8119301439328268  1.0000
  C   C36       1.0  0.6888194380948748  0.7918703160583078  0.18807030148676768  1.0000
  C   C37       1.0  0.2027274170857964  0.1376930530592588  0.8787207255726912  1.0000
  C   C38       1.0  0.7972726046573088  0.8623075115666623  0.12127838371619502  1.0000
  C   C39       1.0  0.8960262443812398  0.4375522525337914  0.9611656906928869  1.0000
  C   C40       1.0  0.10397377534624043  0.5624475658247263  0.03883532133104955  1.0000
  C   C41       1.0  0.6620691875103903  0.0209432485193375  0.3762548390904428  1.0000
  C   C42       1.0  0.3379288692965403  0.9790565698391731  0.6237456640634207  1.0000
  C   C43       1.0  0.6473172674085674  0.1101222036954113  0.3142405001294293  1.0000
  C   C44       1.0  0.35268275231891283  0.8898776146631063  0.6857599452901653  1.0000
  C   C45       1.0  0.227406551162332  0.5102715337737607  0.8410834952225416  1.0000
  C   C46       1.0  0.7725934705807731  0.4897290308521605  0.1589167472750219  1.0000
  C   C47       1.0  0.8298017243709667  0.9595446622070938  0.8143105667773723  1.0000
  C   C48       1.0  0.17019829334088854  0.0404544098840134  0.1856895149599183  1.0000
  C   C49       1.0  0.7933722820078942  0.3702949024480731  0.9271413508835665  1.0000
  C   C50       1.0  0.20662773973521104  0.6297056621778481  0.07285889161400416  1.0000
  C   C51       1.0  0.5896594506501388  0.3067203820175308  0.9673484551772801  1.0000
  C   C52       1.0  0.4103425299822662  0.6932786900735691  0.03265100222140667  1.0000
  C   C53       1.0  0.4187008594598751  0.6344907287936579  0.9189643821345469  1.0000
  C   C54       1.0  0.5812991582519799  0.3655083432974493  0.08103513299840161  1.0000
  C   C55       1.0  0.8061693829290634  0.19181758931075876  0.3098614742301464  1.0000
  C   C56       1.0  0.1938306388140418  0.8081829753151624  0.6901393348717589  1.0000
  C   C57       1.0  0.9700096519026432  0.18353327482197557  0.3688271776576926  1.0000
  C   C58       1.0  0.029990365809204906  0.8164657972691245  0.631172904079598  1.0000
  C   C59       1.0  0.5185994934761169  0.6954339103459475  0.954976563601491  1.0000
  C   C60       1.0  0.481402491187538  0.30456665427997354  0.045023054557468425  1.0000
  O   O1        1.0  0.7891941830627405  0.5814087281101905  0.4959197566443052  1.0000
  O   O2        1.0  0.2108077995852895  0.41859109024832003  0.5040794978323433  1.0000
  O   O3        1.0  0.40417161616344544  0.6600362084140059  0.5046102566154218  1.0000
  O   O4        1.0  0.5958284055796598  0.3399643562119151  0.4953894192778067  1.0000
  O   O5        1.0  0.26655134633204375  0.3323031750082492  0.6848048724949223  1.0000
  O   O6        1.0  0.7334467104748867  0.6676966433502614  0.31519506405459913  1.0000
  O   O7        1.0  0.5108079638047373  0.5309289618760928  0.6892459611619302  1.0000
  O   O8        1.0  0.489192055922743  0.4690708564824178  0.3107544842576715  1.0000
  O   O9        1.0  0.1233292278378002  0.5621117454914284  0.6339140074142832  1.0000
  O   O10       1.0  0.876670793905305  0.4378888191344926  0.36608566847894514  1.0000
  O   O11       1.0  0.9018824254218105  0.2823189303326217  0.7699205276834817  1.0000
  O   O12       1.0  0.0981175943056698  0.7176808880258889  0.23007935113177785  1.0000
  O   O13       1.0  0.7954973410793331  0.1781414928040093  0.6524005917777203  1.0000
  O   O14       1.0  0.20450268066377222  0.8218590718219119  0.3475985175111661  1.0000
