data_image0
_chemical_formula_structural       Zn4H48C28S8N16O16
_chemical_formula_sum              "Zn4 H48 C28 S8 N16 O16"
_cell_length_a       8.3810879090019
_cell_length_b       10.838045678004132
_cell_length_c       14.685704103006435
_cell_angle_alpha    90.00008812774493
_cell_angle_beta     90.00006093116836
_cell_angle_gamma    89.99995246080982

_space_group_name_H-M_alt    "P 1"
_space_group_IT_number       1

loop_
  _space_group_symop_operation_xyz
  'x, y, z'

loop_
  _atom_site_type_symbol
  _atom_site_label
  _atom_site_symmetry_multiplicity
  _atom_site_fract_x
  _atom_site_fract_y
  _atom_site_fract_z
  _atom_site_occupancy
  Zn  Zn1       1.0  0.18023585530480088  0.869457376089777  0.8290448963914654  1.0000
  Zn  Zn2       1.0  0.3197630198470661  0.1305422266933434  0.3290446598673568  1.0000
  Zn  Zn3       1.0  0.8197627378119846  0.36945726857492633  0.670956370828989  1.0000
  Zn  Zn4       1.0  0.680236092346874  0.6305435298232567  0.1709552541965778  1.0000
  H   H1        1.0  0.6016805449290246  0.019323499741666708  0.9771191590407111  1.0000
  H   H2        1.0  0.8983212418641812  0.9806760926325001  0.4771172096221932  1.0000
  H   H3        1.0  0.3983196184271378  0.5193237511990602  0.5228830733689165  1.0000
  H   H4        1.0  0.1016798795773113  0.48067705760622914  0.0228810583193422  1.0000
  H   H5        1.0  0.794734372958281  0.3013815728570393  0.0005383500895632998  1.0000
  H   H6        1.0  0.705266526079896  0.6986179470007559  0.5005397701278227  1.0000
  H   H7        1.0  0.2052669415755304  0.8013820202370286  0.49946107659071254  1.0000
  H   H8        1.0  0.2947346373464725  0.19861886108424195  0.9994613035434198  1.0000
  H   H9        1.0  0.9253126072367123  0.21445816028523285  0.93164316897316  1.0000
  H   H10       1.0  0.5746890948474572  0.7855404144521431  0.4316428447976007  1.0000
  H   H11       1.0  0.07468853912900637  0.7144596362534091  0.5683565607757401  1.0000
  H   H12       1.0  0.42531342990875487  0.285541267510901  0.0683565639362129  1.0000
  H   H13       1.0  0.8252281359295423  0.14142286008292612  0.0243975265231313  1.0000
  H   H14       1.0  0.6747740007134198  0.8585767095952336  0.5243970664688077  1.0000
  H   H15       1.0  0.17477454403569942  0.6414223544579373  0.47560308080228  1.0000
  H   H16       1.0  0.325228183606427  0.35857755436592953  0.9756021456231777  1.0000
  H   H17       1.0  0.7194358751000465  0.06918181435727888  0.7207685589011916  1.0000
  H   H18       1.0  0.7805654341720967  0.9308200107338821  0.220767843374297  1.0000
  H   H19       1.0  0.2805642345607282  0.5691808310460404  0.7792323681254769  1.0000
  H   H20       1.0  0.219434547801761  0.4308186677181995  0.27923172995035367  1.0000
  H   H21       1.0  0.6141566893374915  0.9321344470470266  0.6930515841087797  1.0000
  H   H22       1.0  0.8858457614695324  0.06786455213966039  0.19305199762852956  1.0000
  H   H23       1.0  0.38584422260286283  0.43213490088628975  0.8069483922533179  1.0000
  H   H24       1.0  0.1141569977133159  0.567865578430137  0.3069485263607348  1.0000
  H   H25       1.0  0.9608409303563193  0.7443108398546415  0.7254620139850375  1.0000
  H   H26       1.0  0.5391615808214283  0.25569007236119035  0.2254610679505404  1.0000
  H   H27       1.0  0.039161377024249995  0.24430960227420684  0.7745384305182483  1.0000
  H   H28       1.0  0.4608409760835882  0.7556880413364054  0.2745383069630449  1.0000
  H   H29       1.0  0.7559462759003566  0.739017497530114  0.7081716644263949  1.0000
  H   H30       1.0  0.7440562030712953  0.2609815332297316  0.20817152971803668  1.0000
  H   H31       1.0  0.2440548440162685  0.239018933107019  0.7918280931466908  1.0000
  H   H32       1.0  0.2559463481340103  0.7609815146348211  0.29182785119159144  1.0000
  H   H33       1.0  0.9762297928244622  0.700760830252385  0.11216759987185299  1.0000
  H   H34       1.0  0.5237701209891412  0.29923984538483955  0.6121684572486357  1.0000
  H   H35       1.0  0.023770436910993495  0.20076076176605534  0.38783239374500766  1.0000
  H   H36       1.0  0.4762297409100427  0.7992398864521207  0.8878320494858228  1.0000
  H   H37       1.0  0.054799293021631  0.8215117470166932  0.17930410826632223  1.0000
  H   H38       1.0  0.445200496362105  0.17848754307878073  0.6793050846982351  1.0000
  H   H39       1.0  0.9451996135076682  0.3215127946812686  0.3206953412198174  1.0000
  H   H40       1.0  0.5547994955805676  0.6784883164027562  0.8206952852317357  1.0000
  H   H41       1.0  0.26904305284804036  0.9523589995905228  0.9960570510936719  1.0000
  H   H42       1.0  0.2309585197323614  0.0476409519455459  0.4960559857970992  1.0000
  H   H43       1.0  0.7309590304746508  0.45235952276303243  0.5039436291163213  1.0000
  H   H44       1.0  0.7690418749039977  0.5476418495548289  0.0039431534106313  1.0000
  H   H45       1.0  0.18501254002054418  0.9853815761142858  0.1036646940111154  1.0000
  H   H46       1.0  0.3149883016253128  0.0146184787045556  0.6036640438654858  1.0000
  H   H47       1.0  0.8149873831925945  0.48538286496577865  0.3963356220642353  1.0000
  H   H48       1.0  0.6850118667949231  0.5146184040693669  0.8963347785418349  1.0000
  C   C1        1.0  0.8547567558264288  0.9143295300962677  0.7222344493953301  1.0000
  C   C2        1.0  0.6452421698509382  0.08567229805635182  0.22223337514547836  1.0000
  C   C3        1.0  0.14524178896541426  0.41432823144488407  0.7777661877275008  1.0000
  C   C4        1.0  0.3547581838291903  0.585670341581995  0.27776580714780147  1.0000
  C   C5        1.0  0.11202562527332557  0.8242602366345227  0.0427059780063956  1.0000
  C   C6        1.0  0.3879774891468486  0.17574061356686604  0.5427069165830218  1.0000
  C   C7        1.0  0.8879780509464154  0.3242606834469015  0.45729347459472075  1.0000
  C   C8        1.0  0.612022505754986  0.6757397902052562  0.9572934502339407  1.0000
  C   C9        1.0  0.4431115059761694  0.05310073704034582  0.8614808202864237  1.0000
  C   C10       1.0  0.05688742959131329  0.9468998561461177  0.3614759015728524  1.0000
  C   C11       1.0  0.5568862346827288  0.5530992832648352  0.6385248550606589  1.0000
  C   C12       1.0  0.9431113418984791  0.4468996020548204  0.1385196043635801  1.0000
  C   C13       1.0  0.6589473017073644  0.2684743347493495  0.8294430478506455  1.0000
  C   C14       1.0  0.841050630513969  0.7315240265744053  0.3294421432584754  1.0000
  C   C15       1.0  0.34105020699994526  0.7684749311902267  0.6705581049623033  1.0000
  C   C16       1.0  0.15894837292727707  0.2315252633158522  0.17055720427724447  1.0000
  C   C17       1.0  0.6764320259257346  0.18022602863334214  0.9079050225525477  1.0000
  C   C18       1.0  0.8235672456133684  0.8197743418854632  0.4079042073264886  1.0000
  C   C19       1.0  0.3235667709828363  0.6802255497299329  0.5920953493459464  1.0000
  C   C20       1.0  0.176431662788012  0.3197735582555694  0.0920952401902397  1.0000
  C   C21       1.0  0.580115238709375  0.08239293619027423  0.9204218726441126  1.0000
  C   C22       1.0  0.9198792834907933  0.9176083831385003  0.4204164601917028  1.0000
  C   C23       1.0  0.41987889091630837  0.5823905242365585  0.5795838358875898  1.0000
  C   C24       1.0  0.08011594005643728  0.41760763494235686  0.0795783316236154  1.0000
  C   C25       1.0  0.8125826501732192  0.2097553588688541  0.9699021080329827  1.0000
  C   C26       1.0  0.6874191231790404  0.7902432957615844  0.4699025385605252  1.0000
  C   C27       1.0  0.18741850125725532  0.7097566828844037  0.5300976163878488  1.0000
  C   C28       1.0  0.31258220335067216  0.290245063664223  0.030098237370168597  1.0000
  S   S1        1.0  0.0262199007642892  0.999146768928803  0.7433282294282575  1.0000
  S   S2        1.0  0.47378000787544033  0.0008554228836033001  0.24332453481052596  1.0000
  S   S3        1.0  0.9737797458485743  0.49914489660597644  0.7566745465902756  1.0000
  S   S4        1.0  0.5262192439831636  0.5008542354366909  0.2566725085875703  1.0000
  S   S5        1.0  0.09517547611719117  0.7388131206415806  0.9436821328605942  1.0000
  S   S6        1.0  0.4048259989031777  0.26118579885145715  0.4436827769250726  1.0000
  S   S7        1.0  0.9048268371814245  0.23881456471588086  0.5563169435469887  1.0000
  S   S8        1.0  0.595174165757122  0.7611869169687328  0.05631728515022159  1.0000
  N   N1        1.0  0.7195367944636998  0.9758913960844423  0.7087315155702568  1.0000
  N   N2        1.0  0.7804644923869402  0.024108558519472502  0.20873045366913345  1.0000
  N   N3        1.0  0.2804628771908071  0.47589188454412584  0.7912691912997402  1.0000
  N   N4        1.0  0.21953712075571016  0.5241094847069762  0.2912693398125512  1.0000
  N   N5        1.0  0.8574867716374042  0.791458661637151  0.7155714382583724  1.0000
  N   N6        1.0  0.6425133347913528  0.20854130724968203  0.21556982062119084  1.0000
  N   N7        1.0  0.14251309864192047  0.29145830131957956  0.7844290596602547  1.0000
  N   N8        1.0  0.35748688656318  0.7085421309719991  0.2844288199423275  1.0000
  N   N9        1.0  0.0400350638042681  0.7807607972792356  0.11693049659597679  1.0000
  N   N10       1.0  0.45996580255358305  0.21923928524228128  0.6169308472263424  1.0000
  N   N11       1.0  0.9599650797757492  0.28076012040373405  0.3830695876555622  1.0000
  N   N12       1.0  0.540034145500897  0.7192401982538712  0.8830688879385916  1.0000
  N   N13       1.0  0.1919328599506613  0.9302175106993787  0.047392252304334186  1.0000
  N   N14       1.0  0.30806668371042883  0.06978242661185871  0.5473916604542737  1.0000
  N   N15       1.0  0.8080659295091763  0.4302179988073433  0.452608001272722  1.0000
  N   N16       1.0  0.6919322321391803  0.5697824650613016  0.9526079053844183  1.0000
  O   O1        1.0  0.36840355888273285  0.9521254151752104  0.8852071015388887  1.0000
  O   O2        1.0  0.13159661404573336  0.047873382206034924  0.3852032524447182  1.0000
  O   O3        1.0  0.6315973315320064  0.45212623334263224  0.6147969830778949  1.0000
  O   O4        1.0  0.868402587174664  0.5478753704559624  0.11479316328929197  1.0000
  O   O5        1.0  0.40020886399428696  0.12002603224780024  0.7958973366649784  1.0000
  O   O6        1.0  0.09978994940983907  0.8799707332863921  0.29589373004270664  1.0000
  O   O7        1.0  0.5997899977481609  0.6200283786989189  0.7041063717038651  1.0000
  O   O8        1.0  0.9002088941582898  0.37997433427191407  0.2041030619379995  1.0000
  O   O9        1.0  0.739712423139899  0.23729794938390109  0.757960612147002  1.0000
  O   O10       1.0  0.7602841827634775  0.7627011853462591  0.2579596938415918  1.0000
  O   O11       1.0  0.2602839259806089  0.7372978240465785  0.7420405053442565  1.0000
  O   O12       1.0  0.23971240077700162  0.26270159705423884  0.24203968901473158  1.0000
  O   O13       1.0  0.5839880152964128  0.36739995324015245  0.8393642942390969  1.0000
  O   O14       1.0  0.9160099354057961  0.6325984288010602  0.3393633230796596  1.0000
  O   O15       1.0  0.4160093868732417  0.8674004810474473  0.6606369706504224  1.0000
  O   O16       1.0  0.0839891745731052  0.1325996927411595  0.16063591237949026  1.0000
