data_image0
_chemical_formula_structural       Cu4H24C24I4N8O4
_chemical_formula_sum              "Cu4 H24 C24 I4 N8 O4"
_cell_length_a       3.9853902353567494
_cell_length_b       13.380634920321343
_cell_length_c       16.44367173866609
_cell_angle_alpha    108.72615724355563
_cell_angle_beta     90.00024434692976
_cell_angle_gamma    90.0013420930687

_space_group_name_H-M_alt    "P 1"
_space_group_IT_number       1

loop_
  _space_group_symop_operation_xyz
  'x, y, z'

loop_
  _atom_site_type_symbol
  _atom_site_label
  _atom_site_symmetry_multiplicity
  _atom_site_fract_x
  _atom_site_fract_y
  _atom_site_fract_z
  _atom_site_occupancy
  Cu  Cu1       1.0  0.5558646032968609  0.5689112607064503  0.25344111294941746  1.0000
  Cu  Cu2       1.0  0.9441427353650623  0.5689072229465495  0.7534443367029695  1.0000
  Cu  Cu3       1.0  0.4441386451497423  0.43109156332277376  0.7465562231234841  1.0000
  Cu  Cu4       1.0  0.05585298514443339  0.431082910595741  0.2465575282645034  1.0000
  H   H1        1.0  0.8602696164713137  0.5638789523441546  0.0909146998182564  1.0000
  H   H2        1.0  0.6397516568450144  0.5638802285057666  0.5909239426340918  1.0000
  H   H3        1.0  0.1397486869068345  0.4361231025674144  0.9090799989977256  1.0000
  H   H4        1.0  0.3602365366312412  0.43612094750871233  0.4090814689661287  1.0000
  H   H5        1.0  0.0030276283493933004  0.6893959769712197  0.012774203744889728  1.0000
  H   H6        1.0  0.4969942820220723  0.6894017792238074  0.512788605257022  1.0000
  H   H7        1.0  0.9969404913895232  0.3105998396039098  0.9872097127481041  1.0000
  H   H8        1.0  0.5029989300309267  0.3106040866152354  0.48722352768310634  1.0000
  H   H9        1.0  0.5356921687609528  0.9358648259618506  0.22012118195141991  1.0000
  H   H10       1.0  0.964320176960676  0.9358710852307158  0.7201429749385327  1.0000
  H   H11       1.0  0.4642809693720622  0.06413256884633971  0.7798631545237313  1.0000
  H   H12       1.0  0.0356780531314342  0.0641252266722887  0.27987695415716024  1.0000
  H   H13       1.0  0.399520228398245  0.7989207431054556  0.2877803325167251  1.0000
  H   H14       1.0  0.10051560101797458  0.7989256028175192  0.7877947524388842  1.0000
  H   H15       1.0  0.6004955658861346  0.2010828850263807  0.7122153930930537  1.0000
  H   H16       1.0  0.8994801195974986  0.2010660740669721  0.21221178026548423  1.0000
  H   H17       1.0  0.9130446015709381  0.9217185872870959  0.9463884708756539  1.0000
  H   H18       1.0  0.586986223104219  0.921709345022464  0.4463969435181455  1.0000
  H   H19       1.0  0.0869661747595529  0.0782953390540797  0.053605129974648905  1.0000
  H   H20       1.0  0.4130571717771332  0.0782862975167475  0.5536082119027554  1.0000
  H   H21       1.0  0.7518636997030227  0.7989646373845645  0.9474329236540839  1.0000
  H   H22       1.0  0.7481275848190947  0.7989694687737771  0.4474325080425602  1.0000
  H   H23       1.0  0.2481169661112759  0.20103259804960769  0.052570831175259486  1.0000
  H   H24       1.0  0.2518606085900004  0.2010325810308871  0.5525627975503654  1.0000
  C   C1        1.0  0.7885385616986653  0.6468831783914627  0.11656283811746707  1.0000
  C   C2        1.0  0.711484595959682  0.6468866406449154  0.6165715076891446  1.0000
  C   C3        1.0  0.211462177615843  0.35312043473336985  0.8834347079388039  1.0000
  C   C4        1.0  0.28849356041853  0.3531042918930752  0.38342935359214897  1.0000
  C   C5        1.0  0.8648796682707173  0.71745474192992  0.07311976449920365  1.0000
  C   C6        1.0  0.6351405290142366  0.7174607192781366  0.5731296462471178  1.0000
  C   C7        1.0  0.13510350648765984  0.2825402308062905  0.9268706170849796  1.0000
  C   C8        1.0  0.3648577013449454  0.2825467995152451  0.4268738043270588  1.0000
  C   C9        1.0  0.7735806302316772  0.8234878812359129  0.10926500717021526  1.0000
  C   C10       1.0  0.7264609982695235  0.8234993144750294  0.6092812840161131  1.0000
  C   C11       1.0  0.22639501686790447  0.1765039649331541  0.8907208935142705  1.0000
  C   C12       1.0  0.2735773788969738  0.1765121400531839  0.3907244302022762  1.0000
  C   C13       1.0  0.6088032546598824  0.8541450977700651  0.1885740360505254  1.0000
  C   C14       1.0  0.8912272611517905  0.854148430198471  0.6885889062061638  1.0000
  C   C15       1.0  0.3911849385340886  0.14585305133701354  0.8114147581974223  1.0000
  C   C16       1.0  0.10880358828685388  0.1458542395218103  0.3114272414285679  1.0000
  C   C17       1.0  0.5349911260885135  0.7781248611737086  0.22699126180060605  1.0000
  C   C18       1.0  0.9650368120147306  0.7781264465102284  0.7270051219873253  1.0000
  C   C19       1.0  0.46500710403796564  0.22187877186634355  0.7730038569589794  1.0000
  C   C20       1.0  0.034971454608957196  0.2218675230234909  0.2730111430460909  1.0000
  C   C21       1.0  0.8606287214812621  0.9037326664888565  0.06652721590044307  1.0000
  C   C22       1.0  0.6394132143944447  0.9037394086901784  0.5665446026103567  1.0000
  C   C23       1.0  0.13936699912976988  0.09626391440028932  0.9334599447382177  1.0000
  C   C24       1.0  0.36062767169664056  0.09626326605334869  0.4334709382165869  1.0000
  I   I1        1.0  0.573011438980693  0.3835689371482758  0.13441103963656792  1.0000
  I   I2        1.0  0.9269616904790183  0.3835655703327562  0.634411386517627  1.0000
  I   I3        1.0  0.426969226981555  0.6164330727736669  0.8655891205304442  1.0000
  I   I4        1.0  0.07303152108782741  0.6164317249307274  0.365585086452505  1.0000
  N   N1        1.0  0.6228979224787777  0.675653432747602  0.19202308856210246  1.0000
  N   N2        1.0  0.877128955817312  0.6756582557764189  0.6920346944353426  1.0000
  N   N3        1.0  0.37710030769506625  0.32435179344884085  0.8079706297023037  1.0000
  N   N4        1.0  0.12288182008104799  0.3243413371386127  0.30797090404833943  1.0000
  N   N5        1.0  0.8444073259369063  0.8716186168608787  0.9805662529442856  1.0000
  N   N6        1.0  0.6556027594993524  0.8716217533333863  0.480581727220418  1.0000
  N   N7        1.0  0.15557584905781144  0.128382688649566  0.019423381244848797  1.0000
  N   N8        1.0  0.3444205624045367  0.12838095122545212  0.5194301726402983  1.0000
  O   O1        1.0  0.9485261973418986  0.9946940095408865  0.11145361560645746  1.0000
  O   O2        1.0  0.551470946175442  0.9947087588362892  0.6114657601252277  1.0000
  O   O3        1.0  0.05144192222514481  0.005295419464410104  0.8885377233368602  1.0000
  O   O4        1.0  0.44854986688321213  0.005303474761959101  0.3885413776998163  1.0000
