data_image0
_chemical_formula_structural       Co4H44C72N8O16
_chemical_formula_sum              "Co4 H44 C72 N8 O16"
_cell_length_a       7.238214130867001
_cell_length_b       13.043207259874935
_cell_length_c       17.465599949646585
_cell_angle_alpha    101.68789599121664
_cell_angle_beta     89.99475000046657
_cell_angle_gamma    90.0022815027141

_space_group_name_H-M_alt    "P 1"
_space_group_IT_number       1

loop_
  _space_group_symop_operation_xyz
  'x, y, z'

loop_
  _atom_site_type_symbol
  _atom_site_label
  _atom_site_symmetry_multiplicity
  _atom_site_fract_x
  _atom_site_fract_y
  _atom_site_fract_z
  _atom_site_occupancy
  Co  Co1       1.0  0.5596014491598283  0.7865163759541076  0.5993007970013693  1.0000
  Co  Co2       1.0  0.5596559801323124  0.213474260973527  0.9007221790853208  1.0000
  Co  Co3       1.0  0.440394998653403  0.21348436457108722  0.40071368353603276  1.0000
  Co  Co4       1.0  0.4403100742165762  0.7865406688964497  0.09929003136783619  1.0000
  H   H1        1.0  0.8385585729656813  0.6294751889334833  0.3848286386127313  1.0000
  H   H2        1.0  0.8385224928160255  0.3705196082195243  0.1152158037351612  1.0000
  H   H3        1.0  0.1614876086404706  0.37051186115028395  0.6152013632577891  1.0000
  H   H4        1.0  0.1614104033017796  0.629478771123374  0.8847988661748828  1.0000
  H   H5        1.0  0.0398957017143147  0.5947787372718736  0.2654480810608817  1.0000
  H   H6        1.0  0.0399087735454842  0.4052297313897879  0.23457093302663168  1.0000
  H   H7        1.0  0.9601035095256663  0.4052251839401464  0.7345646268103465  1.0000
  H   H8        1.0  0.9600586627997529  0.5947813831891436  0.7654360751830893  1.0000
  H   H9        1.0  0.18045154961156132  0.891772257763371  0.48292121598147025  1.0000
  H   H10       1.0  0.18041396947671023  0.10823353047084076  0.01707601745873429  1.0000
  H   H11       1.0  0.819580819604802  0.10823100431862538  0.5170856576891794  1.0000
  H   H12       1.0  0.8195493246716483  0.8917835207306835  0.9829107703089548  1.0000
  H   H13       1.0  0.2441107661799933  0.0221781572708508  0.3964234291943498  1.0000
  H   H14       1.0  0.2441038465171772  0.9778480448685228  0.10357071342375689  1.0000
  H   H15       1.0  0.7558787772703539  0.9778279222790615  0.603562144271521  1.0000
  H   H16       1.0  0.7558608282576885  0.02217740740905331  0.8964271768314802  1.0000
  H   H17       1.0  0.8000290823211459  0.0906358421751179  0.3745618401979414  1.0000
  H   H18       1.0  0.8000343762220936  0.9093891903250862  0.12540881286588498  1.0000
  H   H19       1.0  0.19997012811877826  0.9093593445424375  0.6254551717544671  1.0000
  H   H20       1.0  0.1999441155782407  0.09062562365359379  0.8745724567169546  1.0000
  H   H21       1.0  0.8807651937641482  0.9019145381907661  0.3374107084855495  1.0000
  H   H22       1.0  0.8807262060068766  0.09811539267408877  0.16255654667767766  1.0000
  H   H23       1.0  0.11924506861331  0.09808054979941971  0.6626108681853111  1.0000
  H   H24       1.0  0.1192274177022483  0.9018986259891688  0.8374251665051347  1.0000
  H   H25       1.0  0.6317172347463041  0.767133337691483  0.33330671512922544  1.0000
  H   H26       1.0  0.6317176081105913  0.23290387096783857  0.16666827277556706  1.0000
  H   H27       1.0  0.36828197485692016  0.23287182807997908  0.666721083641761  1.0000
  H   H28       1.0  0.36825673874636783  0.7671202503638451  0.8333185207085662  1.0000
  H   H29       1.0  0.4922211706365047  0.6254308637119619  0.4631537283203001  1.0000
  H   H30       1.0  0.4921420672534822  0.37456182111002073  0.03684676923303701  1.0000
  H   H31       1.0  0.5078650795104593  0.37453344300407565  0.536838212145085  1.0000
  H   H32       1.0  0.5078101713482965  0.6254327924451386  0.9631604156532988  1.0000
  H   H33       1.0  0.258223520785549  0.491788180595563  0.41312532060908314  1.0000
  H   H34       1.0  0.2581168137872539  0.5081905232487499  0.08685654840235199  1.0000
  H   H35       1.0  0.7418958869114931  0.5081558841796863  0.5868581697599353  1.0000
  H   H36       1.0  0.7418285173329695  0.4918064881172767  0.9131487365307649  1.0000
  H   H37       1.0  0.946582320710114  0.6052711413987807  0.6259377647005806  1.0000
  H   H38       1.0  0.9465676623529761  0.3946687132436324  0.8740531580288717  1.0000
  H   H39       1.0  0.0535011660689264  0.39465177471524976  0.3740428554957802  1.0000
  H   H40       1.0  0.0533928668821773  0.6053269301619578  0.1259427418777932  1.0000
  H   H41       1.0  0.1983742746323145  0.7318444332062125  0.6676185971830435  1.0000
  H   H42       1.0  0.1983927868686308  0.26811768623222315  0.8323750213241751  1.0000
  H   H43       1.0  0.8016415174741028  0.2681123289364393  0.332358945806142  1.0000
  H   H44       1.0  0.8015939921321759  0.7318920357126402  0.16762374301393382  1.0000
  C   C1        1.0  0.8797827294928169  0.7901339599904557  0.5129185956933141  1.0000
  C   C2        1.0  0.8797445101829808  0.2098613446211459  0.9871256820105359  1.0000
  C   C3        1.0  0.1202662167100357  0.2098642965509399  0.48710177828198903  1.0000
  C   C4        1.0  0.12020910895453339  0.7901471126919047  0.012895209429977692  1.0000
  C   C5        1.0  0.9964981678743497  0.7642007506414783  0.44077422366687813  1.0000
  C   C6        1.0  0.9964536333376728  0.23580797514325263  0.05925220250097139  1.0000
  C   C7        1.0  0.0035632119214526  0.23579586624209264  0.5592493188521388  1.0000
  C   C8        1.0  0.003490316972929  0.7642086807709983  0.9407528452798388  1.0000
  C   C9        1.0  0.9563193150530084  0.6796621419803798  0.379687300941832  1.0000
  C   C10       1.0  0.9563101871322246  0.3203547420469162  0.12034082602656329  1.0000
  C   C11       1.0  0.04370614498708392  0.32034163119806897  0.6203322538337019  1.0000
  C   C12       1.0  0.0436558673303082  0.6796594297028589  0.8796701157370349  1.0000
  C   C13       1.0  0.06780571641007072  0.6604832039447005  0.3134974904429981  1.0000
  C   C14       1.0  0.0678371182496278  0.33952405569755223  0.18651912646131308  1.0000
  C   C15       1.0  0.9321948760162543  0.3395214259991944  0.6865187685513234  1.0000
  C   C16       1.0  0.9321634754725211  0.6604816040474972  0.8134858477019407  1.0000
  C   C17       1.0  0.2169148641643446  0.726248201303825  0.30545780167153674  1.0000
  C   C18       1.0  0.2169631408416208  0.2737753293877531  0.19453693267614366  1.0000
  C   C19       1.0  0.7830829658770712  0.2737612490257746  0.6945535159890639  1.0000
  C   C20       1.0  0.7830498881125011  0.7262344668079522  0.8054584075039344  1.0000
  C   C21       1.0  0.26032232762448604  0.8106921847075694  0.36728798478389985  1.0000
  C   C22       1.0  0.2603381327394132  0.18932152466506114  0.132710954789296  1.0000
  C   C23       1.0  0.7396768835598095  0.18931562589850873  0.6327265016185494  1.0000
  C   C24       1.0  0.7396500286650111  0.8106891406452305  0.8672805189950026  1.0000
  C   C25       1.0  0.1493626817839839  0.827391977469688  0.43434019792298534  1.0000
  C   C26       1.0  0.1493493836456281  0.17262734680190314  0.065669003269349  1.0000
  C   C27       1.0  0.850666923594524  0.17261348486167089  0.5656739055533322  1.0000
  C   C28       1.0  0.8506208173954662  0.8273934332959954  0.934326980895186  1.0000
  C   C29       1.0  0.31048609319486803  0.708261573016962  0.22693342457444027  1.0000
  C   C30       1.0  0.31056653983451815  0.2918060710903987  0.2730311708327093  1.0000
  C   C31       1.0  0.6894785818797332  0.29176627711254344  0.7730625656037446  1.0000
  C   C32       1.0  0.6894644520463161  0.7082182852115507  0.7269447799590338  1.0000
  C   C33       1.0  0.41663866567304103  0.883334667837289  0.3649964990762768  1.0000
  C   C34       1.0  0.41663067608772053  0.11667428662584459  0.1349757175975554  1.0000
  C   C35       1.0  0.583357783427637  0.11666320074586882  0.6350054887134178  1.0000
  C   C36       1.0  0.5833381444611094  0.8833349981695588  0.8650069423940465  1.0000
  C   C37       1.0  0.3832911022653677  0.9909261359830095  0.38402544773326497  1.0000
  C   C38       1.0  0.38326565019199427  0.009100229159876998  0.11596002634251329  1.0000
  C   C39       1.0  0.6167094932010713  0.009080640007127296  0.6159642472969012  1.0000
  C   C40       1.0  0.6166852088197105  0.9909212842449758  0.8840383680874808  1.0000
  C   C41       1.0  0.6929955119594169  0.030826568203345093  0.3696413492145894  1.0000
  C   C42       1.0  0.6929985666303652  0.969208736497805  0.13034418328309266  1.0000
  C   C43       1.0  0.3070092260532106  0.9691758985468082  0.6303659681055719  1.0000
  C   C44       1.0  0.3069854498390682  0.030815137908675197  0.8696540223191461  1.0000
  C   C45       1.0  0.737379859751542  0.9248909487493079  0.3496133138440952  1.0000
  C   C46       1.0  0.7373584849885972  0.07513862092552868  0.150369608021677  1.0000
  C   C47       1.0  0.2626248769713726  0.07510736927495999  0.6504042078509045  1.0000
  C   C48       1.0  0.2626089536447154  0.9248822949964292  0.8496200994320802  1.0000
  C   C49       1.0  0.5987658403513124  0.8503720723093406  0.3473557927279671  1.0000
  C   C50       1.0  0.5987466633645866  0.14965056731234935  0.15262207700352798  1.0000
  C   C51       1.0  0.40123337137832493  0.14962726313409996  0.6526510148496101  1.0000
  C   C52       1.0  0.40121801160631776  0.8503647824199874  0.8473707325788736  1.0000
  C   C53       1.0  0.3685899291701631  0.6177542239978634  0.49706074687851737  1.0000
  C   C54       1.0  0.3685258563353316  0.3822261304487924  0.002937833801475211  1.0000
  C   C55       1.0  0.6314811240768635  0.38220466464424857  0.5029274485635327  1.0000
  C   C56       1.0  0.6314305275118243  0.6177685942732154  0.9970642154793907  1.0000
  C   C57       1.0  0.23498962277351154  0.5433469246690025  0.4696481179490561  1.0000
  C   C58       1.0  0.23490693357231152  0.45662029665896137  0.030344211521416788  1.0000
  C   C59       1.0  0.7651118243840571  0.45659084040435954  0.5303360649023432  1.0000
  C   C60       1.0  0.765050831539746  0.5433759319625152  0.9696609457283785  1.0000
  C   C61       1.0  0.0754533347625213  0.5369631447831367  0.5144085625344701  1.0000
  C   C62       1.0  0.0754022397295344  0.4629984438948468  0.985582744597025  1.0000
  C   C63       1.0  0.9246342978079483  0.4629755882635819  0.48556718880640654  1.0000
  C   C64       1.0  0.924562433618391  0.5369947522869082  0.014417337770687775  1.0000
  C   C65       1.0  0.0653927051853458  0.6054224714284685  0.5877196688135555  1.0000
  C   C66       1.0  0.0653501729458128  0.3945373703112693  0.9122745970371184  1.0000
  C   C67       1.0  0.9346921632040761  0.39451371556028636  0.41226483002880326  1.0000
  C   C68       1.0  0.9346131190174631  0.6054581990159347  0.08772472650746008  1.0000
  C   C69       1.0  0.20552671895617894  0.6773579167164525  0.6113786977822144  1.0000
  C   C70       1.0  0.20548833223281798  0.3226074063408432  0.8886157457526878  1.0000
  C   C71       1.0  0.7945263748199095  0.3225972182653222  0.3886014426902804  1.0000
  C   C72       1.0  0.7944860123254145  0.6773959912367075  0.11138485219789365  1.0000
  N   N1        1.0  0.3548450809700939  0.6855004668796525  0.5666219366465057  1.0000
  N   N2        1.0  0.35479335561314684  0.31449005408911995  0.9333738302508506  1.0000
  N   N3        1.0  0.6452011053000035  0.3144695416118992  0.4333606256977021  1.0000
  N   N4        1.0  0.6451851336695499  0.685509454119014  0.06662498909420116  1.0000
  N   N5        1.0  0.5178521692435113  0.0632455906103502  0.3865194377332983  1.0000
  N   N6        1.0  0.517856611421074  0.9368106547073294  0.11346123482100974  1.0000
  N   N7        1.0  0.4821470438856537  0.9367672750314139  0.613479265608987  1.0000
  N   N8        1.0  0.4821177352566153  0.06323137265597718  0.8865330551692452  1.0000
  O   O1        1.0  0.7206661373541934  0.7426028605156744  0.5096363520103822  1.0000
  O   O2        1.0  0.7206417261872105  0.2573864730544527  0.9903843350291623  1.0000
  O   O3        1.0  0.2793924806432386  0.25738542937844494  0.4903726643584037  1.0000
  O   O4        1.0  0.2793257112593821  0.7426186136103181  0.009610811820344602  1.0000
  O   O5        1.0  0.9346650399958422  0.8547452590968018  0.5714489229723227  1.0000
  O   O6        1.0  0.9345646742576221  0.14524365225164357  0.9285922409142771  1.0000
  O   O7        1.0  0.0653880504707871  0.14525525948068455  0.4285758276119437  1.0000
  O   O8        1.0  0.06533921019615012  0.8547752036902379  0.07142003734092131  1.0000
  O   O9        1.0  0.3219404486925654  0.6182411602636718  0.18608054816478153  1.0000
  O   O10       1.0  0.32209575536334983  0.38182449429365306  0.3138729817645327  1.0000
  O   O11       1.0  0.6779579129629597  0.3817869364543326  0.8139040309107699  1.0000
  O   O12       1.0  0.6780319450399261  0.618191202183503  0.686103847687221  1.0000
  O   O13       1.0  0.3641871896219159  0.7933102244261007  0.20528892363371648  1.0000
  O   O14       1.0  0.36420269306723446  0.206756356247304  0.2946797693415774  1.0000
  O   O15       1.0  0.6358617587454274  0.20671185009587842  0.7947198675605165  1.0000
  O   O16       1.0  0.6357771813083134  0.7932617742504673  0.7052934508395339  1.0000
