data_image0
_chemical_formula_structural       Zn2H6C16N2Cl2O12
_chemical_formula_sum              "Zn2 H6 C16 N2 Cl2 O12"
_cell_length_a       9.866430034746573
_cell_length_b       11.119603109871548
_cell_length_c       11.897127623295207
_cell_angle_alpha    94.1258118972282
_cell_angle_beta     103.6631597875544
_cell_angle_gamma    94.26469777858529

_space_group_name_H-M_alt    "P 1"
_space_group_IT_number       1

loop_
  _space_group_symop_operation_xyz
  'x, y, z'

loop_
  _atom_site_type_symbol
  _atom_site_label
  _atom_site_symmetry_multiplicity
  _atom_site_fract_x
  _atom_site_fract_y
  _atom_site_fract_z
  _atom_site_occupancy
  Zn  Zn1       1.0  0.643058304141995  0.48222879397855667  0.5374715382488446  1.0000
  Zn  Zn2       1.0  0.35863062312238714  0.5158879948778221  0.4798584324818976  1.0000
  H   H1        1.0  0.40147893989701083  0.8835408207432349  0.4931432353501536  1.0000
  H   H2        1.0  0.6208365593493496  0.11016968360807058  0.5339133336440227  1.0000
  H   H3        1.0  0.8874737654531303  0.5951730600475074  0.4799819836320226  1.0000
  H   H4        1.0  0.1322399169161912  0.43544258197826485  0.5768212034262206  1.0000
  H   H5        1.0  0.9233654400594205  0.17066713624649307  0.5447722300995608  1.0000
  H   H6        1.0  0.9788681882115071  0.6197363355840934  0.21241295698280285  1.0000
  C   C1        1.0  0.43712507912302806  0.2668828972913531  0.4968855159183151  1.0000
  C   C2        1.0  0.6142303979513742  0.8628904835713627  0.534283748906944  1.0000
  C   C3        1.0  0.5169379624027143  0.061357472574052  0.5152778025779128  1.0000
  C   C4        1.0  0.5054153172789739  0.932941068225915  0.5135826628512135  1.0000
  C   C5        1.0  0.07674017443576989  0.4944382520061196  0.5152376972291678  1.0000
  C   C6        1.0  0.9306833618597211  0.5131251379415218  0.5134428520014823  1.0000
  C   C7        1.0  0.8926673744282709  0.32899286040091613  0.5978749116408225  1.0000
  C   C8        1.0  0.0870637781893251  0.626677110352489  0.36749635246963663  1.0000
  C   C9        1.0  0.5888303416461297  0.7277128961971615  0.528637175665672  1.0000
  C   C10       1.0  0.4893846894224723  0.511834599800018  0.7262680558917155  1.0000
  C   C11       1.0  0.48796922909166796  0.4977470105764894  0.2865461170022671  1.0000
  C   C12       1.0  0.4906833960208274  0.5126476810356663  0.8478572393213714  1.0000
  C   C13       1.0  0.4898033256227307  0.5024500056945129  0.16596857622946  1.0000
  C   C14       1.0  0.4909020157793833  0.5102681378946201  0.9505365325124587  1.0000
  C   C15       1.0  0.4909943393252192  0.506674089924985  0.0637234473047243  1.0000
  C   C16       1.0  0.4087816869150842  0.1322004276817808  0.4946725887007802  1.0000
  N   N1        1.0  0.1459798405452588  0.5455428397716703  0.4499769688523971  1.0000
  N   N2        1.0  0.8491596777722847  0.43924000150570214  0.5511992705315621  1.0000
  Cl  Cl1       1.0  0.7875245323612816  0.9218066964106129  0.5686857818737893  1.0000
  Cl  Cl2       1.0  0.23649178565405998  0.0739683792030164  0.4645586663630255  1.0000
  O   O1        1.0  0.5657446259009049  0.3059634854523098  0.5128228320875509  1.0000
  O   O2        1.0  0.9047891192766216  0.24804647359174226  0.5119125979768386  1.0000
  O   O3        1.0  0.11413023591833849  0.7354533397133662  0.3851714455204559  1.0000
  O   O4        1.0  0.008342022617135614  0.5630291434590475  0.2709056061387117  1.0000
  O   O5        1.0  0.4606150167481288  0.6856314815495423  0.5016738800614462  1.0000
  O   O6        1.0  0.3339266545874935  0.3307133847345085  0.4829572481754313  1.0000
  O   O7        1.0  0.6942395689862906  0.666210123286227  0.5504666138363064  1.0000
  O   O8        1.0  0.6049643278561307  0.4966971461650118  0.6997377958567059  1.0000
  O   O9        1.0  0.36884547123394634  0.5012931315299342  0.3104313763990163  1.0000
  O   O10       1.0  0.3724280973697702  0.525653422476651  0.6572283397711233  1.0000
  O   O11       1.0  0.60539748958778  0.4909673169457421  0.3574231079183576  1.0000
  O   O12       1.0  0.9081608033726098  0.3148590541283056  0.6998504799788068  1.0000
