data_image0
_chemical_formula_structural       Ni2H40C42N4O12
_chemical_formula_sum              "Ni2 H40 C42 N4 O12"
_cell_length_a       8.191418535482645
_cell_length_b       11.37786527153657
_cell_length_c       11.718291557577068
_cell_angle_alpha    109.98095268890367
_cell_angle_beta     99.7000537393025
_cell_angle_gamma    104.2998669098525

_space_group_name_H-M_alt    "P 1"
_space_group_IT_number       1

loop_
  _space_group_symop_operation_xyz
  'x, y, z'

loop_
  _atom_site_type_symbol
  _atom_site_label
  _atom_site_symmetry_multiplicity
  _atom_site_fract_x
  _atom_site_fract_y
  _atom_site_fract_z
  _atom_site_occupancy
  Ni  Ni1       1.0  0.2511537831652859  0.27562649051570537  0.9319334602879512  1.0000
  Ni  Ni2       1.0  0.7488442961231102  0.7243726090499863  0.06806979339405946  1.0000
  H   H1        1.0  0.1588411927056015  0.37379842266371816  0.12995658593817452  1.0000
  H   H2        1.0  0.8411562432018515  0.6262046891637142  0.8700495992940634  1.0000
  H   H3        1.0  0.2579174272419849  0.48767290018762566  0.08773972711492214  1.0000
  H   H4        1.0  0.7420848315623799  0.5123271838598953  0.9122677417541429  1.0000
  H   H5        1.0  0.9755693790149847  0.1303277908850333  0.015572176854775006  1.0000
  H   H6        1.0  0.0244483138870208  0.8696628734571378  0.9844126895794082  1.0000
  H   H7        1.0  0.964256610682952  0.018587474532616  0.8872245347451158  1.0000
  H   H8        1.0  0.03576643316416294  0.9814040862177865  0.11275867974680429  1.0000
  H   H9        1.0  0.5464235272482654  0.09759605045926634  0.6736288771119664  1.0000
  H   H10       1.0  0.4535784443704289  0.9024089221146316  0.3263724605582115  1.0000
  H   H11       1.0  0.7024049653932635  0.25604817991872153  0.7141472383516505  1.0000
  H   H12       1.0  0.2975899130494639  0.7439548494184295  0.2858492371641504  1.0000
  H   H13       1.0  0.3367429589905413  0.0024428053903591015  0.4773300467936965  1.0000
  H   H14       1.0  0.6632575404144418  0.9975562111376279  0.5226691924607256  1.0000
  H   H15       1.0  0.16020863406902205  0.0174247765328985  0.2928475168425707  1.0000
  H   H16       1.0  0.8397887023969374  0.9825672991936399  0.7071482564534792  1.0000
  H   H17       1.0  0.3620397399984725  0.44118948179903583  0.47639329521628354  1.0000
  H   H18       1.0  0.6379268773357368  0.5588059090825795  0.5235948825490272  1.0000
  H   H19       1.0  0.5494018289999972  0.427872258700724  0.6582763953539303  1.0000
  H   H20       1.0  0.4505700189319342  0.5721210427386084  0.3417091498531024  1.0000
  H   H21       1.0  0.5292343540486044  0.45796481720811505  0.15059062047694038  1.0000
  H   H22       1.0  0.4707622322879459  0.5420392175755637  0.8494089380994797  1.0000
  H   H23       1.0  0.7317406938781091  0.4426334693294508  0.32281615095404725  1.0000
  H   H24       1.0  0.2682621360635125  0.5573734316472213  0.6771816431209391  1.0000
  H   H25       1.0  0.4765974909039556  0.017022654408400208  0.14824565873364295  1.0000
  H   H26       1.0  0.5234349298293353  0.9829839122278162  0.8517588587863903  1.0000
  H   H27       1.0  0.2813868872474997  0.05070905421210632  0.9836736438527753  1.0000
  H   H28       1.0  0.7186388945015452  0.9492856472975929  0.016326265284625684  1.0000
  H   H29       1.0  0.7344812457743187  0.11202129921794321  0.3350319702818113  1.0000
  H   H30       1.0  0.2655266647597329  0.887985725357318  0.6649818121900569  1.0000
  H   H31       1.0  0.8093816512666905  0.41114279144215965  0.48484939605936034  1.0000
  H   H32       1.0  0.19064598090673004  0.5888668443559768  0.5151572688598596  1.0000
  H   H33       1.0  0.9390307370517376  0.10655253866876542  0.4791742109643524  1.0000
  H   H34       1.0  0.06095947301074029  0.8934537046672874  0.5208364205766645  1.0000
  H   H35       1.0  0.107534151003243  0.10520755277399021  0.6744065021375791  1.0000
  H   H36       1.0  0.8924499996287308  0.8947908116966871  0.32560173199573245  1.0000
  H   H37       1.0  0.11198750824936349  0.4805616720025442  0.892251383825688  1.0000
  H   H38       1.0  0.8880095457100551  0.5194405325237527  0.10776129087865641  1.0000
  H   H39       1.0  0.9456693840049084  0.49971072198624716  0.7052444981112986  1.0000
  H   H40       1.0  0.05433357470059263  0.500296334172923  0.2947661623487223  1.0000
  C   C1        1.0  0.5019603036439122  0.26149189060789274  0.8089066150754722  1.0000
  C   C2        1.0  0.49803680572618714  0.7385051460635311  0.19108903133470542  1.0000
  C   C3        1.0  0.5628720418540709  0.20181532038042604  0.6933799252826137  1.0000
  C   C4        1.0  0.4371211372790854  0.7981867138556853  0.306614324931559  1.0000
  C   C5        1.0  0.4548169684536418  0.2131847188491776  0.5816718475132208  1.0000
  C   C6        1.0  0.5451649292355469  0.7868115363093366  0.4183234956105298  1.0000
  C   C7        1.0  0.34323144512104153  0.09942195461175632  0.4775849300158017  1.0000
  C   C8        1.0  0.6567598025920348  0.9005731231678029  0.5224059914237106  1.0000
  C   C9        1.0  0.2412621842112586  0.1076106386673885  0.3742915770393297  1.0000
  C   C10       1.0  0.7587279437460026  0.8923874302722863  0.6256993300734879  1.0000
  C   C11       1.0  0.24603891368790445  0.2311757249516191  0.37339635179804304  1.0000
  C   C12       1.0  0.7539429668327668  0.7688205095158978  0.6265972758077043  1.0000
  C   C13       1.0  0.3569817443501507  0.34521529078028834  0.47788610259106457  1.0000
  C   C14       1.0  0.6429878810709013  0.6547811726567475  0.5221121574905967  1.0000
  C   C15       1.0  0.46089566301392887  0.33708763666615493  0.5802136950113737  1.0000
  C   C16       1.0  0.5390774936952736  0.6629057422275721  0.41977970721038843  1.0000
  C   C17       1.0  0.14158873945217473  0.24321943148684982  0.26111796600601894  1.0000
  C   C18       1.0  0.8583994570849997  0.7567716809962735  0.7388696123321313  1.0000
  C   C19       1.0  0.5215351898505247  0.36298580313847145  0.1556499163631103  1.0000
  C   C20       1.0  0.4784756811699395  0.637017001991346  0.8443466270229156  1.0000
  C   C21       1.0  0.6338316663090566  0.35248936307077383  0.2507993394246243  1.0000
  C   C22       1.0  0.3661801402926629  0.6475154635713098  0.7492013801972282  1.0000
  C   C23       1.0  0.6215546454796692  0.2276453161957122  0.25251865440125715  1.0000
  C   C24       1.0  0.37846636130840494  0.7723633871217928  0.7474852364815026  1.0000
  C   C25       1.0  0.4935529294388203  0.11686593443656791  0.15306314896461976  1.0000
  C   C26       1.0  0.5064733079469761  0.8831406794386609  0.8469381093598547  1.0000
  C   C27       1.0  0.3834597832738352  0.13422562761810042  0.06090833953371805  1.0000
  C   C28       1.0  0.6165615144372795  0.8657701162316374  0.9390905357097528  1.0000
  C   C29       1.0  0.7325495538879708  0.2124811055970711  0.35347643886137114  1.0000
  C   C30       1.0  0.26746075100989936  0.7875258049039858  0.6465307559058933  1.0000
  C   C31       1.0  0.8217054216728314  0.3134024173669303  0.46674479775957445  1.0000
  C   C32       1.0  0.178311040819743  0.6866044148586141  0.5332630829262472  1.0000
  C   C33       1.0  0.9255369229532918  0.3039616831053778  0.5743539336660323  1.0000
  C   C34       1.0  0.07446713833951434  0.696042361202679  0.4256550256026731  1.0000
  C   C35       1.0  0.9728364746615625  0.19178718717918747  0.5681664710899245  1.0000
  C   C36       1.0  0.02714738003271599  0.8082132144588602  0.43184580209550955  1.0000
  C   C37       1.0  0.0669008708163403  0.18963425400978912  0.6764518674856321  1.0000
  C   C38       1.0  0.9330755001696788  0.8103632867448671  0.32356117525852596  1.0000
  C   C39       1.0  0.07243087840311085  0.40051304947742483  0.7989511278954429  1.0000
  C   C40       1.0  0.9275666692674706  0.5994930378550195  0.20105518019381935  1.0000
  C   C41       1.0  0.9794235446668296  0.4100174363179079  0.6937372076283739  1.0000
  C   C42       1.0  0.020586412787793246  0.5899914492775199  0.30626887963700294  1.0000
  N   N1        1.0  0.39638670640695756  0.2555809375860961  0.06267218573044897  1.0000
  N   N2        1.0  0.6036210445957834  0.7444149784697701  0.9373251804922096  1.0000
  N   N3        1.0  0.11727829170668261  0.2920464321918246  0.7911803876040938  1.0000
  N   N4        1.0  0.8827205389883943  0.7079597015585151  0.20883120422288945  1.0000
  O   O1        1.0  0.36523678409913163  0.18143580528410302  0.8174589605190693  1.0000
  O   O2        1.0  0.6347566221298847  0.81856126800713  0.18253541658097566  1.0000
  O   O3        1.0  0.5726774399995307  0.3807197421233043  0.8834173137539456  1.0000
  O   O4        1.0  0.4273246383676367  0.6192772836552082  0.11658317018608255  1.0000
  O   O5        1.0  0.02563128480338862  0.13997346306577907  0.1749213075999166  1.0000
  O   O6        1.0  0.9743637041251817  0.8600135485345961  0.8250631673475585  1.0000
  O   O7        1.0  0.17914983570557308  0.35828341914290024  0.2592662659698421  1.0000
  O   O8        1.0  0.8208315167669014  0.6417088911364672  0.7407302972149883  1.0000
  O   O9        1.0  0.16525783232387434  0.39818175151577156  0.05366692051831025  1.0000
  O   O10       1.0  0.8347433067246683  0.6018213236918586  0.9463405340240674  1.0000
  O   O11       1.0  0.9601879880541374  0.10997293517468174  0.9243538968486438  1.0000
  O   O12       1.0  0.03984581777299925  0.8900204908106704  0.07563201807177944  1.0000
