data_image0
_chemical_formula_structural       Cu12H40C48I12N24
_chemical_formula_sum              "Cu12 H40 C48 I12 N24"
_cell_length_a       6.709666518004683
_cell_length_b       15.238163836034175
_cell_length_c       17.488869928035808
_cell_angle_alpha    90.00021500582675
_cell_angle_beta     89.99992270831231
_cell_angle_gamma    90.0001148765526

_space_group_name_H-M_alt    "P 1"
_space_group_IT_number       1

loop_
  _space_group_symop_operation_xyz
  'x, y, z'

loop_
  _atom_site_type_symbol
  _atom_site_label
  _atom_site_symmetry_multiplicity
  _atom_site_fract_x
  _atom_site_fract_y
  _atom_site_fract_z
  _atom_site_occupancy
  Cu  Cu1       1.0  0.7448239297807219  0.010303060091345599  0.75000028051668  1.0000
  Cu  Cu2       1.0  0.2448234930358524  0.48969678778058784  0.2499997460372754  1.0000
  Cu  Cu3       1.0  0.2551738541616473  0.9896966665813454  0.2499999897123856  1.0000
  Cu  Cu4       1.0  0.7551757812969555  0.5103029388890762  0.7499988088147446  1.0000
  Cu  Cu5       1.0  0.7997913631464895  0.13331966291181635  0.6515349877118338  1.0000
  Cu  Cu6       1.0  0.2997884978990939  0.36668351578275354  0.34846672938887474  1.0000
  Cu  Cu7       1.0  0.20021128214525422  0.8666822648850998  0.15153431933120487  1.0000
  Cu  Cu8       1.0  0.7002118766341284  0.6333172910067476  0.8484656476143682  1.0000
  Cu  Cu9       1.0  0.2002094015702838  0.8666807200104928  0.3484658543098646  1.0000
  Cu  Cu10      1.0  0.7002107764376221  0.6333194921258354  0.6515335408452216  1.0000
  Cu  Cu11      1.0  0.7997879921848111  0.1333187742848096  0.8484670944841354  1.0000
  Cu  Cu12      1.0  0.29979335924130623  0.3666804669257005  0.15153347902532488  1.0000
  H   H1        1.0  0.3883706135749706  0.2015398172299072  0.4294516604854834  1.0000
  H   H2        1.0  0.8883670833887934  0.2984654101058197  0.5705477294270125  1.0000
  H   H3        1.0  0.6116324208133576  0.7984593694382128  0.9294511589537251  1.0000
  H   H4        1.0  0.1116299212849512  0.7015401065448972  0.07054770443055247  1.0000
  H   H5        1.0  0.6116301511518499  0.7984625344273866  0.5705463225782663  1.0000
  H   H6        1.0  0.11162324862829111  0.7015382540445503  0.4294519690179469  1.0000
  H   H7        1.0  0.3883743054414808  0.20153445101140482  0.0705473958869547  1.0000
  H   H8        1.0  0.8883708434362064  0.2984622451185501  0.9294531375943648  1.0000
  H   H9        1.0  0.43025607784434067  0.15420174616480858  0.5645071838056805  1.0000
  H   H10       1.0  0.930257764844555  0.34580155021478015  0.4354916153851177  1.0000
  H   H11       1.0  0.5697394603648149  0.8457971820112816  0.0645068519368195  1.0000
  H   H12       1.0  0.0697377936832169  0.6542029124298381  0.9354926021690205  1.0000
  H   H13       1.0  0.5697402157143899  0.8457979805035125  0.43549137104701424  1.0000
  H   H14       1.0  0.0697400191030013  0.6541994889495372  0.5645075112616238  1.0000
  H   H15       1.0  0.43025981396586827  0.1542005759147855  0.935490559327519  1.0000
  H   H16       1.0  0.9302629710338836  0.3457981267407463  0.06450881164597888  1.0000
  H   H17       1.0  0.4220639076429933  0.42947454608283664  0.6279577046863449  1.0000
  H   H18       1.0  0.9220512064731281  0.0705274304098964  0.37204281358371816  1.0000
  H   H19       1.0  0.5779388310669233  0.5705233427395342  0.1279576122183315  1.0000
  H   H20       1.0  0.07794311309279321  0.929475446606638  0.8720418381793065  1.0000
  H   H21       1.0  0.5779398378441272  0.5705251805962275  0.37204428091807523  1.0000
  H   H22       1.0  0.0779495582447822  0.9294729525111762  0.6279574566457453  1.0000
  H   H23       1.0  0.4220470297707095  0.42947310269378397  0.8720432298002903  1.0000
  H   H24       1.0  0.9220576516273766  0.07052493631197625  0.12795728846568719  1.0000
  H   H25       1.0  0.35681809062885605  0.4640039743862375  0.4917934605525999  1.0000
  H   H26       1.0  0.8568121480264425  0.0360005682447238  0.508208802576867  1.0000
  H   H27       1.0  0.6431832063354505  0.535995480644324  0.9917926579786422  1.0000
  H   H28       1.0  0.1431880844486457  0.9640033675575096  0.008206762939579398  1.0000
  H   H29       1.0  0.6431871452555311  0.5360003460228242  0.5082085250589968  1.0000
  H   H30       1.0  0.1431871263050866  0.9640011271722316  0.4917926112395462  1.0000
  H   H31       1.0  0.35680563526927506  0.463998339803382  0.0082087558272477  1.0000
  H   H32       1.0  0.8568111898862798  0.03599832785575071  0.9917929355001359  1.0000
  H   H33       1.0  0.17961642998817953  0.38063734867132853  0.7026846348026011  1.0000
  H   H34       1.0  0.6796131847843866  0.11936309662301885  0.2973148494234507  1.0000
  H   H35       1.0  0.820387502999239  0.619363486818237  0.20268459255142085  1.0000
  H   H36       1.0  0.3203888828285173  0.880636833727891  0.7973147483037406  1.0000
  H   H37       1.0  0.8203813539549998  0.6193617217518509  0.2973144918409217  1.0000
  H   H38       1.0  0.3203905607043396  0.8806353175570366  0.702684849009884  1.0000
  H   H39       1.0  0.1796117713309755  0.3806355836056099  0.797314534091761  1.0000
  H   H40       1.0  0.6796133722793486  0.11936486168794859  0.20268552192753475  1.0000
  C   C1        1.0  0.4733103827749686  0.2651806236594538  0.6871270565174042  1.0000
  C   C2        1.0  0.9733135517309819  0.23481877407925114  0.31287286679791737  1.0000
  C   C3        1.0  0.526683179141557  0.7348168636227753  0.18712866823210556  1.0000
  C   C4        1.0  0.026691435006597403  0.7651805669958165  0.8128713771135024  1.0000
  C   C5        1.0  0.5266829300093647  0.7348184467592488  0.3128709265426578  1.0000
  C   C6        1.0  0.026690193760991604  0.7651816088431717  0.6871274034308781  1.0000
  C   C7        1.0  0.4733116240212282  0.2651808943086564  0.8128721737866442  1.0000
  C   C8        1.0  0.9733138008709615  0.23481915968022807  0.18712889311387929  1.0000
  C   C9        1.0  0.3948791512666574  0.25011532499981126  0.4752191324309222  1.0000
  C   C10       1.0  0.8948770764648017  0.24988925195825834  0.5247791109549594  1.0000
  C   C11       1.0  0.6051192305945962  0.749882089943263  0.9752196185212012  1.0000
  C   C12       1.0  0.10511712879905132  0.750116723918822  0.024779819596993494  1.0000
  C   C13       1.0  0.6051231038394179  0.7498850579207073  0.5247805660059726  1.0000
  C   C14       1.0  0.1051236882594253  0.7501124434532189  0.4752194438999523  1.0000
  C   C15       1.0  0.39487855334127187  0.25011369924468607  0.024779508116949994  1.0000
  C   C16       1.0  0.8948746936003646  0.2498843152428095  0.9752193070510979  1.0000
  C   C17       1.0  0.418951674660434  0.22379933539188102  0.5506321898525997  1.0000
  C   C18       1.0  0.9189544870637434  0.27620526329102557  0.4493694734089145  1.0000
  C   C19       1.0  0.5810468993117297  0.776202158044093  0.050631053418079795  1.0000
  C   C20       1.0  0.08104846840980429  0.7237979465961998  0.9493672519935359  1.0000
  C   C21       1.0  0.5810461092908527  0.7762023600170168  0.4493657932107452  1.0000
  C   C22       1.0  0.0810432968843244  0.7237990571159045  0.550633083996594  1.0000
  C   C23       1.0  0.4189583365619142  0.2237942873930336  0.9493675014272327  1.0000
  C   C24       1.0  0.9189552770825032  0.27620309257449804  0.050633590028560584  1.0000
  C   C25       1.0  0.4298002311186835  0.2879876436307712  0.6080362301008859  1.0000
  C   C26       1.0  0.9297940427670143  0.21201499608701374  0.3919625692965879  1.0000
  C   C27       1.0  0.5701996057521797  0.7120081906950518  0.10803717575316797  1.0000
  C   C28       1.0  0.07020466902806531  0.7879892791747736  0.8919617063467198  1.0000
  C   C29       1.0  0.5702050047611351  0.7120120830428149  0.3919628965420259  1.0000
  C   C30       1.0  0.07019777963093791  0.7879853868275719  0.6080365573504308  1.0000
  C   C31       1.0  0.42979221663700434  0.28798825473725037  0.8919619508874063  1.0000
  C   C32       1.0  0.9298005668506238  0.21201044750004167  0.1080379920884269  1.0000
  C   C33       1.0  0.40948649490930217  0.37621409725213073  0.5865278423336163  1.0000
  C   C34       1.0  0.9094783379590156  0.1237904928924394  0.4134761123759531  1.0000
  C   C35       1.0  0.5905149175955559  0.6237875507059344  0.08652677483155458  1.0000
  C   C36       1.0  0.09051879819804749  0.8762112499846424  0.913472669883937  1.0000
  C   C37       1.0  0.5905187409784817  0.6237902231532358  0.4134724279012757  1.0000
  C   C38       1.0  0.09052242676166601  0.8762131712687948  0.5865264450278145  1.0000
  C   C39       1.0  0.4094739240132343  0.3762075822346275  0.9134740671842464  1.0000
  C   C40       1.0  0.9094819665190528  0.1237897891859419  0.08652874393106909  1.0000
  C   C41       1.0  0.3798443836735785  0.39644667199274863  0.5100735425626226  1.0000
  C   C42       1.0  0.8798417952012584  0.10355789140380983  0.4899252794087444  1.0000
  C   C43       1.0  0.6201573317820817  0.6035513656183085  0.010073539060584797  1.0000
  C   C44       1.0  0.12015950917518128  0.8964474618124498  0.9899264640542283  1.0000
  C   C45       1.0  0.6201593618208535  0.6035563359215459  0.48992844304716215  1.0000
  C   C46       1.0  0.12015896952523522  0.8964438040052018  0.5100721318616975  1.0000
  C   C47       1.0  0.37983747137631946  0.3964444235719924  0.9899273029549461  1.0000
  C   C48       1.0  0.8798442363190659  0.10355292110750719  0.010072662590090396  1.0000
  I   I1        1.0  0.08964847290341992  0.088841098526018  0.7500017005729162  1.0000
  I   I2        1.0  0.5896482052927327  0.41115926561663946  0.25000011147150747  1.0000
  I   I3        1.0  0.9103522918096233  0.9111586281517035  0.2500002850321791  1.0000
  I   I4        1.0  0.41035404981415263  0.5888404610543746  0.7499984433798446  1.0000
  I   I5        1.0  0.5840717006982176  0.9780466074642219  0.6228873400170369  1.0000
  I   I6        1.0  0.08407016722874522  0.521954156155239  0.37711325119859396  1.0000
  I   I7        1.0  0.41593403887550556  0.021951259535463008  0.12288838520775866  1.0000
  I   I8        1.0  0.9159286033978377  0.4780454614558138  0.8771127076139605  1.0000
  I   I9        1.0  0.4159290640196859  0.0219537754568577  0.37711293021242637  1.0000
  I   I10       1.0  0.9159350686538518  0.4780488517585013  0.622888162618622  1.0000
  I   I11       1.0  0.5840711969928095  0.9780458421560994  0.8771136003920288  1.0000
  I   I12       1.0  0.08407067093383351  0.5219542652150864  0.12288641903029428  1.0000
  N   N1        1.0  0.6172145346455054  0.21073585995774377  0.7109592352549752  1.0000
  N   N2        1.0  0.11721454081974511  0.2892638728009871  0.28904084895647486  1.0000
  N   N3        1.0  0.3827848943854022  0.7892623861618235  0.21095937471412185  1.0000
  N   N4        1.0  0.8827875595786523  0.7107347094368636  0.7890399379424479  1.0000
  N   N5        1.0  0.3827832492968711  0.78926386671494  0.2890410349740832  1.0000
  N   N6        1.0  0.8827877142808092  0.7107345413796226  0.710959421269436  1.0000
  N   N7        1.0  0.6172143799422116  0.21073602801621394  0.7890403237202291  1.0000
  N   N8        1.0  0.1172146955274229  0.28926567348365495  0.21095976049443974  1.0000
  N   N9        1.0  0.38182590982389536  0.30070008907449625  0.7500008375001882  1.0000
  N   N10       1.0  0.8818261889389661  0.1992998823889138  0.2500014143211047  1.0000
  N   N11       1.0  0.6181733645017786  0.6992989813542819  0.2500005763119333  1.0000
  N   N12       1.0  0.11817457577667059  0.8007005005346244  0.7499999994928217  1.0000
  N   N13       1.0  0.19516396593798652  0.34118126014453753  0.7499998022969547  1.0000
  N   N14       1.0  0.6951640647432242  0.1588191991788364  0.2500008184879903  1.0000
  N   N15       1.0  0.8048323276170208  0.6588178102791958  0.24999989613913695  1.0000
  N   N16       1.0  0.3048396807476195  0.8411811837448155  0.7500000235330332  1.0000
  N   N17       1.0  0.37416598321235034  0.33525676243517927  0.45434085474947483  1.0000
  N   N18       1.0  0.8741634464386153  0.16474845209102543  0.5456602569575535  1.0000
  N   N19       1.0  0.6258354621686311  0.6647445001121426  0.9543393375931611  1.0000
  N   N20       1.0  0.12583663762352162  0.8352543324390355  0.04566009116410189  1.0000
  N   N21       1.0  0.6258362719002264  0.6647475579700809  0.545659987278327  1.0000
  N   N22       1.0  0.12582986635141682  0.8352552120619167  0.4543400132789585  1.0000
  N   N23       1.0  0.3741653025320631  0.3352486640926671  0.045661504416727894  1.0000
  N   N24       1.0  0.8741656174828806  0.16474670672975833  0.9543401790660935  1.0000
