data_image0
_chemical_formula_structural       K4H44C32S4N8O8
_chemical_formula_sum              "K4 H44 C32 S4 N8 O8"
_cell_length_a       4.180087674002738
_cell_length_b       14.689501296000126
_cell_length_c       16.621523587010827
_cell_angle_alpha    89.99998869410739
_cell_angle_beta     90.00013055209091
_cell_angle_gamma    90.00000985673495

_space_group_name_H-M_alt    "P 1"
_space_group_IT_number       1

loop_
  _space_group_symop_operation_xyz
  'x, y, z'

loop_
  _atom_site_type_symbol
  _atom_site_label
  _atom_site_symmetry_multiplicity
  _atom_site_fract_x
  _atom_site_fract_y
  _atom_site_fract_z
  _atom_site_occupancy
  K   K1        1.0  0.0885478045304424  0.8768363434944463  0.8715253493068362  1.0000
  K   K2        1.0  0.4114524175074123  0.12316344185453688  0.3715250140582287  1.0000
  K   K3        1.0  0.9114503462092713  0.376835754006393  0.628475707841311  1.0000
  K   K4        1.0  0.5885482341753204  0.623163429159483  0.12847509992547404  1.0000
  H   H1        1.0  0.2974673507899297  0.7187186463136257  0.9890170591348951  1.0000
  H   H2        1.0  0.20253154152812405  0.281281793591063  0.48901657634414186  1.0000
  H   H3        1.0  0.7025330962380919  0.21871807284504996  0.5109834239905809  1.0000
  H   H4        1.0  0.7974692061610328  0.781281817281787  0.010984111662814707  1.0000
  H   H5        1.0  0.8499139120414582  0.5510669784282243  0.7389896113343046  1.0000
  H   H6        1.0  0.6500904524040932  0.4489335416079143  0.2389896707956326  1.0000
  H   H7        1.0  0.15008882548616495  0.05106632227202818  0.7610102994330608  1.0000
  H   H8        1.0  0.34991039707434607  0.9489334877235505  0.2610103863109858  1.0000
  H   H9        1.0  0.9079798485232827  0.6668626026717278  0.7685326376665673  1.0000
  H   H10       1.0  0.5920199985154538  0.3331372300174137  0.26853268400955715  1.0000
  H   H11       1.0  0.09202056701710859  0.16686263103210303  0.731467252882972  1.0000
  H   H12       1.0  0.4079831729498054  0.8331365047938629  0.23146739331500052  1.0000
  H   H13       1.0  0.7081700018277105  0.6583367965237628  0.6274630823608408  1.0000
  H   H14       1.0  0.7918285693996194  0.3416623868679237  0.12746264029122767  1.0000
  H   H15       1.0  0.29182801624200033  0.15833748392074642  0.872536809676504  1.0000
  H   H16       1.0  0.2081722149476803  0.8416623012025609  0.3725374355441533  1.0000
  H   H17       1.0  0.42746566514549034  0.7142263587173259  0.6904867019574896  1.0000
  H   H18       1.0  0.07253291961143302  0.285773467006166  0.1904867453831757  1.0000
  H   H19       1.0  0.5725347791522352  0.2142257123352279  0.8095131803227463  1.0000
  H   H20       1.0  0.9274678308021648  0.7857734304563309  0.30951334021000343  1.0000
  H   H21       1.0  0.3633807116870357  0.5982060841950344  0.6599708389110577  1.0000
  H   H22       1.0  0.13661998938403028  0.40179374833404313  0.15997089887059707  1.0000
  H   H23       1.0  0.636617269873298  0.09820611488929391  0.8400290636247266  1.0000
  H   H24       1.0  0.8633808314728455  0.9017937018549275  0.3400291664662803  1.0000
  H   H25       1.0  0.9670674950272795  0.39570634882067407  0.8683598687064846  1.0000
  H   H26       1.0  0.5329332548342478  0.6042934616053229  0.3683604354166051  1.0000
  H   H27       1.0  0.03293305945593519  0.8957063083378852  0.6316393802590456  1.0000
  H   H28       1.0  0.46706738539405984  0.10429353050947297  0.13164028349121545  1.0000
  H   H29       1.0  0.8565080598967683  0.4416799860459192  0.9640971455863155  1.0000
  H   H30       1.0  0.6434935557939595  0.5583198030291712  0.46409718216319384  1.0000
  H   H31       1.0  0.1434925225026902  0.9416799723029708  0.5359026969821202  1.0000
  H   H32       1.0  0.35650944881222557  0.05831920713704619  0.035902943142474414  1.0000
  H   H33       1.0  0.36857861540168096  0.382070839610563  0.023399251101622606  1.0000
  H   H34       1.0  0.13142085054080613  0.6179290233761563  0.5233996561661841  1.0000
  H   H35       1.0  0.6314221934774337  0.8820707513675926  0.47660021604917113  1.0000
  H   H36       1.0  0.8685819275859287  0.11792903491910069  0.9766008445570622  1.0000
  H   H37       1.0  0.4624515362522459  0.33094102700012223  0.928290456972825  1.0000
  H   H38       1.0  0.03754680686634519  0.6690580649309225  0.42829041339509655  1.0000
  H   H39       1.0  0.5375489789132856  0.8309410244788465  0.5717100065593858  1.0000
  H   H40       1.0  0.9624490880962496  0.1690588521049108  0.07171029420386082  1.0000
  H   H41       1.0  0.12354501077950888  0.29381653911136135  0.984228676599806  1.0000
  H   H42       1.0  0.3764562305301736  0.7061832211029041  0.48422882109891696  1.0000
  H   H43       1.0  0.8764530895483559  0.7938165655843078  0.5157711917838201  1.0000
  H   H44       1.0  0.623544471559171  0.20618332347472548  0.015771278390126008  1.0000
  C   C1        1.0  0.39006992218806147  0.5184096189265829  0.8367302212709763  1.0000
  C   C2        1.0  0.1099299851675255  0.48159017418230116  0.3367296503472233  1.0000
  C   C3        1.0  0.6099304032171062  0.018409687740245297  0.6632696951973787  1.0000
  C   C4        1.0  0.8900708841388365  0.981590168424219  0.16327040105777976  1.0000
  C   C5        1.0  0.1951870563093721  0.5779589323800066  0.966816911127673  1.0000
  C   C6        1.0  0.304809242945815  0.42204219323378556  0.46681766573615163  1.0000
  C   C7        1.0  0.8048109129574497  0.07795835894581418  0.5331829949431752  1.0000
  C   C8        1.0  0.6951891979135995  0.9220422069884789  0.033182997694375216  1.0000
  C   C9        1.0  0.3261770670411294  0.66279503774345  0.9467989208151555  1.0000
  C   C10       1.0  0.17381187429194253  0.3372074538511213  0.44679961503509724  1.0000
  C   C11       1.0  0.6738233460321155  0.16279445346015822  0.55320157207418  1.0000
  C   C12       1.0  0.8261865150589143  0.837207469526568  0.053201063206948625  1.0000
  C   C13       1.0  0.4935320884337526  0.6780903274204989  0.8749914708244549  1.0000
  C   C14       1.0  0.006463380364188299  0.3219101379136333  0.3749914700130149  1.0000
  C   C15       1.0  0.5064683339237135  0.1780903997240699  0.6250084177648036  1.0000
  C   C16       1.0  0.9935349996959674  0.8219101457317065  0.12500860927026747  1.0000
  C   C17       1.0  0.7299069346623737  0.6158703994465924  0.7512014481346159  1.0000
  C   C18       1.0  0.7700927556362557  0.38412875634937643  0.25120158780193697  1.0000
  C   C19       1.0  0.2700910576147208  0.11586975186333599  0.7487966464284742  1.0000
  C   C20       1.0  0.22990805448984727  0.8841293800977181  0.24879727735994098  1.0000
  C   C21       1.0  0.5430995278202743  0.6485842433715873  0.6781792048743613  1.0000
  C   C22       1.0  0.9568995020783646  0.351415609467814  0.17817945749448685  1.0000
  C   C23       1.0  0.4568984843251229  0.14858426936676483  0.8218200872361979  1.0000
  C   C24       1.0  0.04310128819073359  0.851415527067196  0.321820616638057  1.0000
  C   C25       1.0  0.057216031668438895  0.42264937246897444  0.9254253726622257  1.0000
  C   C26       1.0  0.4427822855374259  0.5773504008593803  0.4254249761020362  1.0000
  C   C27       1.0  0.9427821468847384  0.922649389060787  0.5745750748576912  1.0000
  C   C28       1.0  0.5572183383293279  0.07735048688409307  0.07457514588028863  1.0000
  C   C29       1.0  0.26808020091822016  0.35339855356315286  0.9678890555383224  1.0000
  C   C30       1.0  0.23191850032407044  0.6466012102950598  0.4678891274652701  1.0000
  C   C31       1.0  0.7319179355856704  0.8533985693471208  0.5321108024427164  1.0000
  C   C32       1.0  0.7680797732922144  0.14660131606797216  0.0321103807961123  1.0000
  S   S1        1.0  0.419743617304661  0.4310724210259238  0.7710244677650384  1.0000
  S   S2        1.0  0.0802580881161958  0.568927386736405  0.2710244661879885  1.0000
  S   S3        1.0  0.580256958651546  0.931072385513566  0.7289747750258331  1.0000
  S   S4        1.0  0.9197425306334779  0.06892677523929079  0.22897505563542359  1.0000
  N   N1        1.0  0.5303899081310135  0.6014798367868934  0.8228819449764802  1.0000
  N   N2        1.0  0.9696104304345141  0.3985199837814477  0.3228821966691628  1.0000
  N   N3        1.0  0.46961046770863396  0.1014798956727176  0.6771173553588529  1.0000
  N   N4        1.0  0.030390388434653904  0.8985199330323608  0.1771178692392966  1.0000
  N   N5        1.0  0.22313594048214466  0.5083650182051398  0.9072754520974518  1.0000
  N   N6        1.0  0.27686460487561965  0.4916347591709354  0.4072755768823486  1.0000
  N   N7        1.0  0.7768643788215926  0.008365110888362899  0.5927238644950426  1.0000
  N   N8        1.0  0.7231338782351315  0.9916347610089243  0.09272447276825353  1.0000
  O   O1        1.0  0.058319666771453185  0.5585295104692136  0.032348386416110514  1.0000
  O   O2        1.0  0.4416822724007474  0.4414703505217331  0.5323490004016949  1.0000
  O   O3        1.0  0.9416809456679188  0.05852952757098249  0.4676517388522045  1.0000
  O   O4        1.0  0.5583183098741245  0.9414702607113552  0.9676514438329069  1.0000
  O   O5        1.0  0.6118883822088748  0.7532256268233013  0.8532690611756879  1.0000
  O   O6        1.0  0.8881146234667766  0.24677418696828105  0.3532692925766485  1.0000
  O   O7        1.0  0.3881120857677942  0.25322500775516227  0.6467308142955518  1.0000
  O   O8        1.0  0.11188610326809109  0.746774827726604  0.14673079982546267  1.0000
