data_image0
_chemical_formula_structural       Ag4H14C14I4N4
_chemical_formula_sum              "Ag4 H14 C14 I4 N4"
_cell_length_a       4.420973360819043
_cell_length_b       11.844778404136147
_cell_length_c       12.229919756324652
_cell_angle_alpha    60.634591800830684
_cell_angle_beta     81.4688025070721
_cell_angle_gamma    81.83431630109621

_space_group_name_H-M_alt    "P 1"
_space_group_IT_number       1

loop_
  _space_group_symop_operation_xyz
  'x, y, z'

loop_
  _atom_site_type_symbol
  _atom_site_label
  _atom_site_symmetry_multiplicity
  _atom_site_fract_x
  _atom_site_fract_y
  _atom_site_fract_z
  _atom_site_occupancy
  Ag  Ag1       1.0  0.810364278351571  0.32631322428883175  0.9217927014721851  1.0000
  Ag  Ag2       1.0  0.18963109207491874  0.6736810445194904  0.07820139153186292  1.0000
  Ag  Ag3       1.0  0.31894810297999504  0.12174649872506647  0.9777959459363216  1.0000
  Ag  Ag4       1.0  0.6810454329626907  0.8782458427204394  0.022206526250769652  1.0000
  H   H1        1.0  0.2885773758117693  0.5912939641168364  0.8102949023911136  1.0000
  H   H2        1.0  0.7114265770473055  0.408703238886382  0.18969895541239618  1.0000
  H   H3        1.0  0.9229962020179701  0.4495770134996135  0.604261940938116  1.0000
  H   H4        1.0  0.07696789117433411  0.5504133071549404  0.3957316626711602  1.0000
  H   H5        1.0  0.5761163616882429  0.6677463239005305  0.4361696498752181  1.0000
  H   H6        1.0  0.4238725293444361  0.33225766307377563  0.5638226151568019  1.0000
  H   H7        1.0  0.9723048803143542  0.7667375985946236  0.6348754309575853  1.0000
  H   H8        1.0  0.027711122661166602  0.2332683923527554  0.3651209324654232  1.0000
  H   H9        1.0  0.06684801120584181  0.7898840808719357  0.47905003167321053  1.0000
  H   H10       1.0  0.9331667082605719  0.2101287330187063  0.5209505061100967  1.0000
  H   H11       1.0  0.4679484177957389  0.93665864525655  0.336358096055541  1.0000
  H   H12       1.0  0.5320654018922256  0.06334737311228619  0.6636498214586338  1.0000
  H   H13       1.0  0.22705567480905137  0.8815980358656218  0.7132201010806938  1.0000
  H   H14       1.0  0.7729396596246474  0.11840892599684588  0.2867883801253583  1.0000
  C   C1        1.0  0.419798271302568  0.5811459358998973  0.732818267766788  1.0000
  C   C2        1.0  0.5802068238557326  0.41884543150605674  0.2671766760930367  1.0000
  C   C3        1.0  0.7431495274181473  0.512561608990346  0.6216873282507578  1.0000
  C   C4        1.0  0.25681538877363863  0.4874248396990808  0.37831380117855656  1.0000
  C   C5        1.0  0.5743781317192074  0.6192632085280466  0.5378920327558347  1.0000
  C   C6        1.0  0.42562738795592736  0.3807379009539104  0.462105599125657  1.0000
  C   C7        1.0  0.16136654587059246  0.779773184096527  0.5616977085566361  1.0000
  C   C8        1.0  0.8386382466930514  0.2202318261061222  0.4383030082855085  1.0000
  C   C9        1.0  0.3297295950186055  0.896123342189476  0.5285160392268651  1.0000
  C   C10       1.0  0.6702925405000713  0.1038865601168197  0.4714830278670873  1.0000
  C   C11       1.0  0.48271219657221554  0.963859469696203  0.4086151927778515  1.0000
  C   C12       1.0  0.5173031806027168  0.03613877819879009  0.5913979818096137  1.0000
  C   C13       1.0  0.34754363471854094  0.9331543775618412  0.6197005321565002  1.0000
  C   C14       1.0  0.6524813806292967  0.0668526171277932  0.3803013995107419  1.0000
  I   I1        1.0  0.8701920039550898  0.13326281519650252  0.8166207071275123  1.0000
  I   I2        1.0  0.12980590487281768  0.8667305029914091  0.18338024157185373  1.0000
  I   I3        1.0  0.23317731167657027  0.29100967774417086  0.08246648889625159  1.0000
  I   I4        1.0  0.7668104424797944  0.7089884722987493  0.9175278055025584  1.0000
  N   N1        1.0  0.6453150298367518  0.4900931451409818  0.7426037855547419  1.0000
  N   N2        1.0  0.3546725831097319  0.5099059922479369  0.2573957692606825  1.0000
  N   N3        1.0  0.3690394250497847  0.6607910324709536  0.6101056845202493  1.0000
  N   N4        1.0  0.6309639935396734  0.3392090993907359  0.38989171132459427  1.0000
