data_image0
_chemical_formula_structural       Ca6H44C44S4O32
_chemical_formula_sum              "Ca6 H44 C44 S4 O32"
_cell_length_a       10.32402150698726
_cell_length_b       10.324007850327737
_cell_length_c       18.72478428512239
_cell_angle_alpha    79.9679964924049
_cell_angle_beta     79.96745550568203
_cell_angle_gamma    81.01874377630352

_space_group_name_H-M_alt    "P 1"
_space_group_IT_number       1

loop_
  _space_group_symop_operation_xyz
  'x, y, z'

loop_
  _atom_site_type_symbol
  _atom_site_label
  _atom_site_symmetry_multiplicity
  _atom_site_fract_x
  _atom_site_fract_y
  _atom_site_fract_z
  _atom_site_occupancy
  Ca  Ca1       1.0  0.0785298360191362  0.8544049884030116  0.06432615419850414  1.0000
  Ca  Ca2       1.0  0.14559747523392727  0.9214744458336598  0.4356713949561454  1.0000
  Ca  Ca3       1.0  0.9214718958486826  0.14559659768345057  0.9356684615100124  1.0000
  Ca  Ca4       1.0  0.8544061453548222  0.07852481789763037  0.564329669119573  1.0000
  Ca  Ca5       1.0  0.1978692332662604  0.8021365057602878  0.2500015404839361  1.0000
  Ca  Ca6       1.0  0.8021283880594721  0.19786740352355278  0.7500001797026388  1.0000
  H   H1        1.0  0.6289479236408084  0.8232988789557043  0.2213605873724376  1.0000
  H   H2        1.0  0.5454844707099582  0.8822471625672322  0.4474915204420641  1.0000
  H   H3        1.0  0.3665690067921473  0.14167839148786507  0.14894893954402735  1.0000
  H   H4        1.0  0.5383647250058203  0.08441298027756972  0.11881293138758761  1.0000
  H   H5        1.0  0.44667065781194987  0.9929280726440765  0.19845848612617092  1.0000
  H   H6        1.0  0.9294892571287715  0.9364359225103273  0.32215741039800605  1.0000
  H   H7        1.0  0.5089727145067826  0.7704195314938291  0.14801639625854793  1.0000
  H   H8        1.0  0.6166191479886648  0.8547961903723903  0.07309274113965361  1.0000
  H   H9        1.0  0.5015008062096555  0.7547661513091983  0.05428240056561861  1.0000
  H   H10       1.0  0.2542644133936278  0.797170018469167  0.93012069012476  1.0000
  H   H11       1.0  0.22083279703941364  0.9527986248436519  0.9189917215728873  1.0000
  H   H12       1.0  0.17670713548390177  0.3710550333240619  0.2786357669744959  1.0000
  H   H13       1.0  0.11773695095064338  0.4545184478840696  0.052508253473469324  1.0000
  H   H14       1.0  0.8583237682545073  0.633436351125667  0.3510501827483738  1.0000
  H   H15       1.0  0.9155879518193755  0.4616396354780222  0.3811852553060506  1.0000
  H   H16       1.0  0.0070747630562806  0.5533311981943215  0.3015407810666419  1.0000
  H   H17       1.0  0.06356139982155179  0.07051006517617961  0.17784703976418115  1.0000
  H   H18       1.0  0.22958234382594608  0.49102813037895054  0.3519833682911227  1.0000
  H   H19       1.0  0.14520067624886218  0.38338636278373167  0.4269064590509901  1.0000
  H   H20       1.0  0.2452330264111566  0.4985013531225065  0.44571853534539957  1.0000
  H   H21       1.0  0.2028310993011928  0.7457372513997242  0.569878470310812  1.0000
  H   H22       1.0  0.04720237575352118  0.7791685677174199  0.5810058369022431  1.0000
  H   H23       1.0  0.3710488009198656  0.1767032561673787  0.7786371006379442  1.0000
  H   H24       1.0  0.45451625971701043  0.11774757323222926  0.5525080756768406  1.0000
  H   H25       1.0  0.6334345471665584  0.8583237885580816  0.851054004169882  1.0000
  H   H26       1.0  0.46163987800385087  0.9155881432210932  0.8811873424590718  1.0000
  H   H27       1.0  0.5533288998183535  0.007074556143010132  0.8015463796064284  1.0000
  H   H28       1.0  0.07050951796487229  0.06355808616382322  0.6778413592347692  1.0000
  H   H29       1.0  0.4910258797313673  0.22958324514796408  0.851986940643201  1.0000
  H   H30       1.0  0.3833765656167784  0.14519809065265582  0.9269110868110604  1.0000
  H   H31       1.0  0.49849588029645264  0.24523097427055526  0.9457205492717052  1.0000
  H   H32       1.0  0.7457412291584973  0.2028270560727918  0.06987932079888991  1.0000
  H   H33       1.0  0.7791718726032355  0.047198588041162316  0.08100729634272602  1.0000
  H   H34       1.0  0.8232944060228674  0.6289513340214512  0.7213664466543863  1.0000
  H   H35       1.0  0.8822547948607136  0.5454822762127877  0.9474921467846474  1.0000
  H   H36       1.0  0.1416748164516264  0.3665713875002298  0.6489505714404589  1.0000
  H   H37       1.0  0.08441070904293467  0.5383622134474989  0.6188149545432183  1.0000
  H   H38       1.0  0.992921923429243  0.44667288747975686  0.6984578028206629  1.0000
  H   H39       1.0  0.9364461028848577  0.9294896299710161  0.8221579084593601  1.0000
  H   H40       1.0  0.7704154202713056  0.5089719443858131  0.6480128093819602  1.0000
  H   H41       1.0  0.8548019618954539  0.6166189955737167  0.5730904055966237  1.0000
  H   H42       1.0  0.7547746095406324  0.501497480891338  0.5542795350660229  1.0000
  H   H43       1.0  0.7971735513097612  0.2542589481622173  0.43012224295755896  1.0000
  H   H44       1.0  0.9528002624084305  0.2208308248448888  0.4189947699882382  1.0000
  C   C1        1.0  0.8807997055564765  0.8803216613972186  0.19280362507378618  1.0000
  C   C2        1.0  0.6608506318770819  0.848689259412481  0.2689012854631444  1.0000
  C   C3        1.0  0.43590505656946005  0.8120160623713417  0.3381455324269994  1.0000
  C   C4        1.0  0.7434463008434448  0.9112205526548821  0.3917088457233718  1.0000
  C   C5        1.0  0.5739148697130289  0.8455931080708086  0.3352814811862147  1.0000
  C   C6        1.0  0.788366638471949  0.8822162037905983  0.2633987346253549  1.0000
  C   C7        1.0  0.6146875463979738  0.8790851565846296  0.3965218102224882  1.0000
  C   C8        1.0  0.44149476985239733  0.05443496816786109  0.1447197819016139  1.0000
  C   C9        1.0  0.8298393080855886  0.9118816491489384  0.32529735658202713  1.0000
  C   C10       1.0  0.7882754404201932  0.9483033397585318  0.45681973088778705  1.0000
  C   C11       1.0  0.5192267623762844  0.820153124442719  0.09086524407429412  1.0000
  C   C12       1.0  0.11967236923955227  0.11920715077452831  0.30719882097022844  1.0000
  C   C13       1.0  0.1513094748232362  0.33914944191687363  0.23109917228914878  1.0000
  C   C14       1.0  0.18797416550870588  0.5640953559635093  0.16185295151372978  1.0000
  C   C15       1.0  0.08876717467247629  0.25655251775943105  0.10829373251812772  1.0000
  C   C16       1.0  0.1544065485679127  0.4260829574672372  0.1647166456939644  1.0000
  C   C17       1.0  0.11778181648752196  0.21163768569930855  0.23660436208334804  1.0000
  C   C18       1.0  0.12090330516558367  0.3853119664491231  0.10347822267434036  1.0000
  C   C19       1.0  0.9455669742129871  0.5585102300990172  0.35527843192595315  1.0000
  C   C20       1.0  0.0881186366971036  0.17015951857769812  0.17470600032999786  1.0000
  C   C21       1.0  0.051689612503572784  0.21171869986376635  0.043182777724283014  1.0000
  C   C22       1.0  0.17984705467684847  0.4807750861357221  0.4091346866472848  1.0000
  C   C23       1.0  0.11920204536949795  0.11967198931942147  0.8071949086462811  1.0000
  C   C24       1.0  0.3391460736460131  0.15131385098610656  0.731096850485699  1.0000
  C   C25       1.0  0.5640937756280876  0.1879780033738712  0.6618500222689435  1.0000
  C   C26       1.0  0.25654848743322833  0.08877590287062992  0.6082900626909905  1.0000
  C   C27       1.0  0.426080881946987  0.15440618249756716  0.6647170849375643  1.0000
  C   C28       1.0  0.21163208902922995  0.11777974592270365  0.7366014667071428  1.0000
  C   C29       1.0  0.38531024626593063  0.12090997521971765  0.6034758785178982  1.0000
  C   C30       1.0  0.558509747492593  0.9455690526217568  0.8552834432288564  1.0000
  C   C31       1.0  0.17015742600121797  0.08811751258841843  0.674701666726982  1.0000
  C   C32       1.0  0.21172429805090323  0.051695492556852705  0.5431774490401085  1.0000
  C   C33       1.0  0.4807689036278687  0.1798460805190487  0.9091381444547155  1.0000
  C   C34       1.0  0.8803332066766529  0.8807948286804577  0.6928018221773302  1.0000
  C   C35       1.0  0.8486871355325645  0.6608515847648775  0.7689055693020281  1.0000
  C   C36       1.0  0.8120185437036297  0.43590223738107875  0.8381508486966639  1.0000
  C   C37       1.0  0.9112295022957251  0.7434515584028034  0.8917053871919906  1.0000
  C   C38       1.0  0.8455891269506282  0.5739172513055664  0.8352855833051013  1.0000
  C   C39       1.0  0.8822208121512387  0.788363685949541  0.7633955332156507  1.0000
  C   C40       1.0  0.8790933432536078  0.6146910868783878  0.8965231282113353  1.0000
  C   C41       1.0  0.054427718866989494  0.44149408470156015  0.6447208450592969  1.0000
  C   C42       1.0  0.9118899436004496  0.8298431257545147  0.8252921757293098  1.0000
  C   C43       1.0  0.9483090483616788  0.7882821547625627  0.9568180558321306  1.0000
  C   C44       1.0  0.8201566230069941  0.5192272175642147  0.5908612913701745  1.0000
  S   S1        1.0  0.39136384528691076  0.9598167240342405  0.08477302278883064  1.0000
  S   S2        1.0  0.0401833329838226  0.6086390140973706  0.4152264627221101  1.0000
  S   S3        1.0  0.608637686705485  0.040188639500236434  0.91523035037001  1.0000
  S   S4        1.0  0.9598153373958027  0.3913628443399944  0.584773211304352  1.0000
  O   O1        1.0  0.0054900995127554015  0.8521076858936992  0.19596348175997502  1.0000
  O   O2        1.0  0.9130834810783667  0.9525797456449397  0.4549426826467312  1.0000
  O   O3        1.0  0.26513114468043136  0.9057502942869107  0.12632938031761404  1.0000
  O   O4        1.0  0.3572197212251068  0.8095597936634746  0.3980325839210367  1.0000
  O   O5        1.0  0.7028297885659994  0.9785307522608093  0.5102543943698807  1.0000
  O   O6        1.0  0.8371524668065787  0.9029583778337271  0.13181011923810368  1.0000
  O   O7        1.0  0.4068101722934684  0.7907539948987508  0.27768782842213824  1.0000
  O   O8        1.0  0.25252128539482027  0.8740951154948322  0.9539518033616478  1.0000
  O   O9        1.0  0.14788159207578389  0.9945158550949524  0.3040368931383172  1.0000
  O   O10       1.0  0.0474162331969055  0.08691366712456983  0.04505843128882251  1.0000
  O   O11       1.0  0.09425266734110238  0.7348711050041175  0.37366955393862616  1.0000
  O   O12       1.0  0.1904392617338785  0.6427739335461665  0.10196537971637554  1.0000
  O   O13       1.0  0.021464330041183595  0.2971678348836519  0.989744437777553  1.0000
  O   O14       1.0  0.09703598335176619  0.16285786771969413  0.3681894872501844  1.0000
  O   O15       1.0  0.209243335440945  0.593197089668877  0.22230728240526795  1.0000
  O   O16       1.0  0.12590788305455894  0.7474809418618804  0.5460452072192299  1.0000
  O   O17       1.0  0.9945087136648494  0.1478813893318787  0.8040362631173043  1.0000
  O   O18       1.0  0.08691825079826998  0.047418857543959816  0.545053804183226  1.0000
  O   O19       1.0  0.7348714363658644  0.0942530184010835  0.8736719466811143  1.0000
  O   O20       1.0  0.6427740941567917  0.19043182870894534  0.6019684500210051  1.0000
  O   O21       1.0  0.29716998797731253  0.021467123802771913  0.4897412659739403  1.0000
  O   O22       1.0  0.16285033317036118  0.09703421633562212  0.8681857446147135  1.0000
  O   O23       1.0  0.5931914548603388  0.20925544095092619  0.7223076916800724  1.0000
  O   O24       1.0  0.7474814098769187  0.1259023455401689  0.04604683600629761  1.0000
  O   O25       1.0  0.8521219999492544  0.005487357297560943  0.6959632835772356  1.0000
  O   O26       1.0  0.9525863573813989  0.9130846835793278  0.9549454784228222  1.0000
  O   O27       1.0  0.9057509913198556  0.26512720247536953  0.6263299905530177  1.0000
  O   O28       1.0  0.8095634049800252  0.3572254875516806  0.8980336197056932  1.0000
  O   O29       1.0  0.9785353608403892  0.7028319441716991  0.010254797557216522  1.0000
  O   O30       1.0  0.9029646709337269  0.8371377862841953  0.631813771744014  1.0000
  O   O31       1.0  0.7907414286776485  0.406809403110728  0.7776926930713164  1.0000
  O   O32       1.0  0.8740967580332039  0.25251723678658783  0.4539547944576514  1.0000
