data_image0
_chemical_formula_structural       Zn2H28C58S2N4O18
_chemical_formula_sum              "Zn2 H28 C58 S2 N4 O18"
_cell_length_a       11.756580820868319
_cell_length_b       13.193622433926642
_cell_length_c       28.11012070787222
_cell_angle_alpha    89.52490544038945
_cell_angle_beta     84.97434099853845
_cell_angle_gamma    86.58110128059306

_space_group_name_H-M_alt    "P 1"
_space_group_IT_number       1

loop_
  _space_group_symop_operation_xyz
  'x, y, z'

loop_
  _atom_site_type_symbol
  _atom_site_label
  _atom_site_symmetry_multiplicity
  _atom_site_fract_x
  _atom_site_fract_y
  _atom_site_fract_z
  _atom_site_occupancy
  Zn  Zn1       1.0  0.6155668069897612  0.5022062253410554  0.4952219328455384  1.0000
  Zn  Zn2       1.0  0.38181573649667633  0.49571566902029224  0.5051203429911055  1.0000
  H   H1        1.0  0.6769064386587895  0.5079604678948186  0.341493330437359  1.0000
  H   H2        1.0  0.3229395011416756  0.46305063641368355  0.660394596960657  1.0000
  H   H3        1.0  0.4491269553444041  0.7570091270943137  0.12291987479988357  1.0000
  H   H4        1.0  0.5828038434249833  0.2529241357480744  0.8766507795513261  1.0000
  H   H5        1.0  0.6766971651916476  0.5294634072626039  0.6447832163402367  1.0000
  H   H6        1.0  0.31224557906482875  0.49300710946173615  0.3542425028111538  1.0000
  H   H7        1.0  0.6793119256805794  0.5320476083860015  0.7342106726570277  1.0000
  H   H8        1.0  0.31323618129857767  0.4935868043156832  0.26475434381104174  1.0000
  H   H9        1.0  0.431961625277509  0.7522960338110708  0.8785584633492077  1.0000
  H   H10       1.0  0.5357086961722004  0.24905432331231475  0.12215508990587406  1.0000
  H   H11       1.0  0.4294510285371798  0.7559147487031764  0.9666171888264897  1.0000
  H   H12       1.0  0.5457035370485385  0.24683167741687131  0.0338811110052291  1.0000
  H   H13       1.0  0.45033554048911373  0.7595527323900485  0.03486906964210589  1.0000
  H   H14       1.0  0.5731322733164318  0.24975829272675307  0.9648998128464612  1.0000
  H   H15       1.0  0.35554352131102  0.1740197198720423  0.5107760683328308  1.0000
  H   H16       1.0  0.6460266855101435  0.8242343888657758  0.4893092284194082  1.0000
  H   H17       1.0  0.7205004502641754  0.1793217124972131  0.48558757178452777  1.0000
  H   H18       1.0  0.2813837229467778  0.8189601198911094  0.5158075834151743  1.0000
  H   H19       1.0  0.2635221498596181  0.0083775253291947  0.5177809995402993  1.0000
  H   H20       1.0  0.7384483697429046  0.9899643523220617  0.4832590546708032  1.0000
  H   H21       1.0  0.7794950645906552  0.6269050286126756  0.438311992201875  1.0000
  H   H22       1.0  0.21786699759342545  0.37183676276058725  0.562754713469843  1.0000
  H   H23       1.0  0.005804383226639189  0.348008855476273  0.570401459616761  1.0000
  H   H24       1.0  0.9918201049625635  0.6497990760050955  0.4302386540243006  1.0000
  H   H25       1.0  0.8079036096324967  0.4034611711882549  0.5413450860659096  1.0000
  H   H26       1.0  0.18972217448586548  0.5933928947481776  0.4587945997195887  1.0000
  H   H27       1.0  0.8229643680386544  0.6140551469822102  0.2747617234568195  1.0000
  H   H28       1.0  0.1353264385890895  0.48304305473957504  0.7247371107707962  1.0000
  C   C1        1.0  0.47597450069048347  0.6976970854303276  0.5007385646978761  1.0000
  C   C2        1.0  0.5261534115404203  0.30056841825968666  0.49957232748516117  1.0000
  C   C3        1.0  0.49508561013670505  0.500822069652017  0.40643342825021717  1.0000
  C   C4        1.0  0.4972069538727695  0.49658840344862654  0.5941632722051648  1.0000
  C   C5        1.0  0.47361882775776804  0.5980558606071468  0.17996339132552916  1.0000
  C   C6        1.0  0.541822642794777  0.4092445210220319  0.8200102900223667  1.0000
  C   C7        1.0  0.5040551918609992  0.4075081614774518  0.1796009252941317  1.0000
  C   C8        1.0  0.48163191252960047  0.5957005494690791  0.8206600946300922  1.0000
  C   C9        1.0  0.3922872633033521  0.497541851262561  0.2820137505634861  1.0000
  C   C10       1.0  0.6018148405878277  0.5168854753738615  0.7175683980376844  1.0000
  C   C11       1.0  0.3917994557967007  0.49709729070421105  0.33153736834224645  1.0000
  C   C12       1.0  0.6003352879621389  0.515465479342737  0.6681459785194404  1.0000
  C   C13       1.0  0.5975937715820762  0.5059805030357866  0.3244306256413907  1.0000
  C   C14       1.0  0.4004308797994652  0.4783125472279082  0.6768340224310023  1.0000
  C   C15       1.0  0.5977093715783892  0.507813504884652  0.27485356255036203  1.0000
  C   C16       1.0  0.40243768346865477  0.47881507237347887  0.726298480707065  1.0000
  C   C17       1.0  0.49465290373360193  0.5030735224776991  0.253445029089697  1.0000
  C   C18       1.0  0.5033571622512909  0.49891320571166636  0.7468532094203366  1.0000
  C   C19       1.0  0.4944974464097243  0.5031681642466381  0.10203017785214998  1.0000
  C   C20       1.0  0.5058191752647758  0.5026842750867289  0.8980832748448433  1.0000
  C   C21       1.0  0.4765647649524423  0.5959646269285841  0.12738362205291048  1.0000
  C   C22       1.0  0.5354855205037338  0.41130738047775156  0.8726025481013762  1.0000
  C   C23       1.0  0.4616290080664526  0.6866088440710812  0.10262094826008188  1.0000
  C   C24       1.0  0.5598385587510248  0.3220035091078302  0.8971527135240577  1.0000
  C   C25       1.0  0.5084927443338145  0.4101733240500778  0.12701450975698234  1.0000
  C   C26       1.0  0.4802029753795763  0.5939737708907771  0.8732208452754119  1.0000
  C   C27       1.0  0.4943947228874633  0.5012616974394107  0.35297511829393347  1.0000
  C   C28       1.0  0.49962150185506704  0.49666733400519564  0.6475395775509085  1.0000
  C   C29       1.0  0.4772851871523469  0.5963658406266675  0.9742977777201388  1.0000
  C   C30       1.0  0.5182900588691197  0.4092397897750502  0.025914292923921795  1.0000
  C   C31       1.0  0.525623185166587  0.4096683770096662  0.9737132091107907  1.0000
  C   C32       1.0  0.4787770169679958  0.597135949896405  0.0263097892405781  1.0000
  C   C33       1.0  0.5028984472025896  0.5029359767291554  0.9490966987296473  1.0000
  C   C34       1.0  0.497282949543603  0.5032251435174047  0.05101140781783899  1.0000
  C   C35       1.0  0.4515649999208263  0.6843040111740066  0.9481617483689319  1.0000
  C   C36       1.0  0.5313314763664606  0.3193838905051294  0.052224145720252586  1.0000
  C   C37       1.0  0.4526348825205701  0.6833811558399391  0.8984607211652288  1.0000
  C   C38       1.0  0.5259001876585501  0.3194788220184464  0.10200245333322037  1.0000
  C   C39       1.0  0.4624389054929308  0.6869067655840271  0.05292059522840019  1.0000
  C   C40       1.0  0.5540934768750388  0.3213608275460516  0.9469331773010052  1.0000
  C   C41       1.0  0.5361780659739779  0.18699883735460082  0.4985865962298844  1.0000
  C   C42       1.0  0.4655531936886489  0.811278651502022  0.5020019197195892  1.0000
  C   C43       1.0  0.3471520016772941  0.9679041880752309  0.5114217907208101  1.0000
  C   C44       1.0  0.6547596862596093  0.030357763533920903  0.4895523751510637  1.0000
  C   C45       1.0  0.356530514195775  0.8634995516774994  0.5102735426734029  1.0000
  C   C46       1.0  0.64533780238731  0.13475807611308  0.4908275984211981  1.0000
  C   C47       1.0  0.5629450483877887  0.8655437277877313  0.4953140006773537  1.0000
  C   C48       1.0  0.438750628442257  0.13276514596051917  0.5051037334312907  1.0000
  C   C49       1.0  0.5561491761735197  0.9728282773931911  0.4963333414351751  1.0000
  C   C50       1.0  0.4457351784053569  0.025435669342236605  0.5044239575651446  1.0000
  C   C51       1.0  0.0430234911940062  0.40304252518277656  0.5454033741622337  1.0000
  C   C52       1.0  0.9545545088561197  0.594708841580797  0.4551956617877336  1.0000
  C   C53       1.0  0.1588131069640397  0.4153440386791873  0.5415284917180825  1.0000
  C   C54       1.0  0.8387139560039499  0.5827029150168671  0.4591920512584267  1.0000
  C   C55       1.0  0.14467280207588826  0.54082732217163  0.4828952879997387  1.0000
  C   C56       1.0  0.8528886696805031  0.45658646301860983  0.5175264964253187  1.0000
  C   C57       1.0  0.024676787975131682  0.5344567073484541  0.4841130274276182  1.0000
  C   C58       1.0  0.9728953088464747  0.4631031020537436  0.5163945168342321  1.0000
  S   S1        1.0  0.7287835466783574  0.5124129517443877  0.23773536750833554  1.0000
  S   S2        1.0  0.2783198903872374  0.45486823196130644  0.7651473555203906  1.0000
  N   N1        1.0  0.4934774384722543  0.5031430547955011  0.2023752841658606  1.0000
  N   N2        1.0  0.5057744266292657  0.500781958120868  0.7978254227089534  1.0000
  N   N3        1.0  0.7896822567389847  0.5141669168593098  0.4900493823334242  1.0000
  N   N4        1.0  0.20785704681404837  0.48360295753988686  0.5105191749661913  1.0000
  O   O1        1.0  0.5763979794098475  0.6555757357251296  0.493503371498491  1.0000
  O   O2        1.0  0.4256048325400953  0.34316393594562566  0.5013375506474844  1.0000
  O   O3        1.0  0.38384286896406644  0.6509473370539567  0.5070358051526681  1.0000
  O   O4        1.0  0.6186264266043578  0.3467815605099391  0.4985024606383489  1.0000
  O   O5        1.0  0.5924898897714498  0.49739563308335033  0.4231154199255157  1.0000
  O   O6        1.0  0.4005152787113956  0.48819073489965353  0.5778751194256626  1.0000
  O   O7        1.0  0.39841303480142176  0.5040154321054828  0.4308165133802929  1.0000
  O   O8        1.0  0.5921486696057842  0.5054143494795795  0.5694260597568928  1.0000
  O   O9        1.0  0.45467138379754585  0.6756620285986017  0.20395184348978287  1.0000
  O   O10       1.0  0.5758155554326335  0.33458466180731966  0.7958179815621518  1.0000
  O   O11       1.0  0.4639072604056765  0.6729187347682242  0.7970667264023132  1.0000
  O   O12       1.0  0.5089029683461064  0.3289631009101656  0.20330075737562936  1.0000
  O   O13       1.0  0.7642187021109306  0.41199588575599216  0.22138380958561035  1.0000
  O   O14       1.0  0.7213242229148518  0.5967487229654581  0.20502168945788668  1.0000
  O   O15       1.0  0.8179156243601894  0.5402661846412401  0.2760141461879684  1.0000
  O   O16       1.0  0.30152303370356737  0.3653965077861302  0.7927286220176696  1.0000
  O   O17       1.0  0.23299529041021563  0.5482450167837528  0.7876794674931347  1.0000
  O   O18       1.0  0.18904979113094808  0.4241533103320024  0.7274843595404474  1.0000
