data_image0
_chemical_formula_structural       Zn4H48C56N20O12
_chemical_formula_sum              "Zn4 H48 C56 N20 O12"
_cell_length_a       7.631425265011296
_cell_length_b       12.579716936913671
_cell_length_c       14.144100356482204
_cell_angle_alpha    94.04841861050039
_cell_angle_beta     90.00019058164959
_cell_angle_gamma    90.00002267780847

_space_group_name_H-M_alt    "P 1"
_space_group_IT_number       1

loop_
  _space_group_symop_operation_xyz
  'x, y, z'

loop_
  _atom_site_type_symbol
  _atom_site_label
  _atom_site_symmetry_multiplicity
  _atom_site_fract_x
  _atom_site_fract_y
  _atom_site_fract_z
  _atom_site_occupancy
  Zn  Zn1       1.0  0.959024383313725  0.19735150124480333  0.969127151744992  1.0000
  Zn  Zn2       1.0  0.45902868340834146  0.30264675864840035  0.5308727791152563  1.0000
  Zn  Zn3       1.0  0.0409678325591543  0.8026489141859159  0.030873476372363495  1.0000
  Zn  Zn4       1.0  0.5409661532103556  0.6973520616307525  0.46912916169375757  1.0000
  H   H1        1.0  0.37368923076481764  0.07972101981323479  0.052640472156049604  1.0000
  H   H2        1.0  0.8736862724913903  0.42027932300836573  0.4473591199576674  1.0000
  H   H3        1.0  0.626308226608245  0.9202762026850523  0.9473656092128024  1.0000
  H   H4        1.0  0.1263138055937389  0.5797171117742438  0.5526370132525713  1.0000
  H   H5        1.0  0.5305381820369776  0.00024101367063880005  0.10774908876184237  1.0000
  H   H6        1.0  0.0305421904838852  0.4997576091703167  0.39225330151025867  1.0000
  H   H7        1.0  0.4694579649631763  0.9997570064034352  0.8922563362611697  1.0000
  H   H8        1.0  0.9694591979797593  0.50024041747794  0.6077450538471751  1.0000
  H   H9        1.0  0.857120650401562  0.8733090803408246  0.8560564397155233  1.0000
  H   H10       1.0  0.3571228846775369  0.6266946819569128  0.6439416125145456  1.0000
  H   H11       1.0  0.1428689447267502  0.12669133574674868  0.1439434814323519  1.0000
  H   H12       1.0  0.6428680208249276  0.37330334206016863  0.3560595707013618  1.0000
  H   H13       1.0  0.6957859957978982  0.7870420525008586  0.720881269695667  1.0000
  H   H14       1.0  0.19579435194118838  0.7129592586501803  0.7791191597855303  1.0000
  H   H15       1.0  0.3042088408131391  0.2129583642449759  0.2791179444900179  1.0000
  H   H16       1.0  0.8042096572858951  0.28704194975738767  0.2208857607674233  1.0000
  H   H17       1.0  0.6689311283659977  0.5865795909581379  0.7055229119118636  1.0000
  H   H18       1.0  0.16892924102879192  0.9134209123429075  0.7944788311423494  1.0000
  H   H19       1.0  0.33107157047233926  0.4134208257890962  0.2944763022811046  1.0000
  H   H20       1.0  0.831077388934318  0.0865802980370987  0.2055239685119048  1.0000
  H   H21       1.0  0.9777903269940468  0.5818890187317081  0.9614756265898308  1.0000
  H   H22       1.0  0.4777829644745637  0.9181195649930203  0.5385264876541811  1.0000
  H   H23       1.0  0.022209751108356105  0.41811538129386616  0.038525254646927506  1.0000
  H   H24       1.0  0.5222184239993268  0.0818776614499157  0.46147535191605016  1.0000
  H   H25       1.0  0.7255577316268925  0.09185885923212572  0.83866387069979  1.0000
  H   H26       1.0  0.225555035430979  0.4081441031855063  0.6613309827915899  1.0000
  H   H27       1.0  0.2744475879427384  0.9081407638835232  0.1613317580379601  1.0000
  H   H28       1.0  0.7744450426747135  0.5918547164372614  0.3386716649893202  1.0000
  H   H29       1.0  0.823854773679514  0.9089781443725684  0.5894057518472734  1.0000
  H   H30       1.0  0.323849421427397  0.5910295984950267  0.9105840082824628  1.0000
  H   H31       1.0  0.17614661476329022  0.09102467101840969  0.4105851306072309  1.0000
  H   H32       1.0  0.6761532774160982  0.40897241077495033  0.08941672108944229  1.0000
  H   H33       1.0  0.9047971533134104  0.071179177402577  0.5052810988250371  1.0000
  H   H34       1.0  0.4047768323346261  0.4288350053890826  0.9947155022420588  1.0000
  H   H35       1.0  0.0952068558873194  0.9288284155570707  0.4947143291687155  1.0000
  H   H36       1.0  0.5952245561423695  0.5711677994846909  0.005286691685149902  1.0000
  H   H37       1.0  0.908915984141039  0.24779156552176576  0.5944321639886779  1.0000
  H   H38       1.0  0.40890023646866785  0.252217831317303  0.9055705036786392  1.0000
  H   H39       1.0  0.09108540432571742  0.7522120395573281  0.4055665457257405  1.0000
  H   H40       1.0  0.5910998416447696  0.7477833770895616  0.0944344168706834  1.0000
  H   H41       1.0  0.1969723590112196  0.10069191698875815  0.8476824332262396  1.0000
  H   H42       1.0  0.6969767741618894  0.3993118268558504  0.6523180736968329  1.0000
  H   H43       1.0  0.8030250983546309  0.8993076988949015  0.152320972141716  1.0000
  H   H44       1.0  0.3030233039280432  0.6006893887815821  0.3476790702150083  1.0000
  H   H45       1.0  0.1563065456134254  0.0249116390136166  0.9385240906936829  1.0000
  H   H46       1.0  0.6563091565851451  0.47508970017240415  0.5614754820894703  1.0000
  H   H47       1.0  0.8436882910052718  0.9750871812655363  0.06147785011533101  1.0000
  H   H48       1.0  0.34368699039150385  0.5249083271322378  0.43852216629606733  1.0000
  C   C1        1.0  0.6383959636037912  0.12602262231768444  0.0318158162156905  1.0000
  C   C2        1.0  0.1383911665211599  0.373968873442891  0.4681792485042989  1.0000
  C   C3        1.0  0.36160018338131295  0.8739714171068796  0.968185113892936  1.0000
  C   C4        1.0  0.8616089115571199  0.6260267663930037  0.5318147131823848  1.0000
  C   C5        1.0  0.5011686515063972  0.04094714716028141  0.04312303391099451  1.0000
  C   C6        1.0  0.0011690897940895002  0.4590490750661544  0.4568784431377253  1.0000
  C   C7        1.0  0.49882618512334886  0.9590484815001546  0.9568829462105767  1.0000
  C   C8        1.0  0.9988309882953175  0.5409473584018089  0.5431191040065997  1.0000
  C   C9        1.0  0.8440640577081452  0.7868674635503298  0.8486833655663801  1.0000
  C   C10       1.0  0.3440624686807681  0.7131370896761242  0.6513161270387897  1.0000
  C   C11       1.0  0.1559307789076172  0.2131337487995424  0.1513173131758165  1.0000
  C   C12       1.0  0.6559310575692977  0.28686252686416225  0.3486865713584777  1.0000
  C   C13       1.0  0.7541133769472026  0.7374244819533049  0.7724038854695081  1.0000
  C   C14       1.0  0.2541149060203693  0.7625792408354501  0.7275968038818165  1.0000
  C   C15       1.0  0.24588539077961968  0.26257593413591  0.22759603568686518  1.0000
  C   C16       1.0  0.7458864824604632  0.2374227658049862  0.2724067533570533  1.0000
  C   C17       1.0  0.7418364427658374  0.6266095247799015  0.763890495750509  1.0000
  C   C18       1.0  0.24183417325319573  0.8733941936126755  0.7361101708631776  1.0000
  C   C19       1.0  0.2581662560712488  0.3733924864620447  0.2361081127202667  1.0000
  C   C20       1.0  0.7581685255975118  0.12660542227192204  0.2638932345096237  1.0000
  C   C21       1.0  0.8240231079862141  0.5673712135765641  0.8314562971954372  1.0000
  C   C22       1.0  0.32401523181135156  0.9326341287349037  0.6685439158820614  1.0000
  C   C23       1.0  0.1759809012208322  0.432632392160329  0.168541705554361  1.0000
  C   C24       1.0  0.6759822255497737  0.0673646915447179  0.3314580249293755  1.0000
  C   C25       1.0  0.9113962876703781  0.6234196685517828  0.9066402525753148  1.0000
  C   C26       1.0  0.4113918470477883  0.8765872988797767  0.593360223545666  1.0000
  C   C27       1.0  0.08860248005822062  0.37658393521219585  0.093359871070767  1.0000
  C   C28       1.0  0.5886095414252922  0.1234123189765626  0.4066410609247982  1.0000
  C   C29       1.0  0.8280786546147211  0.4510698117190871  0.8282313897916964  1.0000
  C   C30       1.0  0.32806527579842276  0.048934775980832505  0.6717694105166458  1.0000
  C   C31       1.0  0.17193190644751868  0.5489322001815963  0.17176651171931206  1.0000
  C   C32       1.0  0.6719361126759084  0.9510632473807947  0.32823247967601077  1.0000
  C   C33       1.0  0.8268951913696937  0.2855034098038018  0.7827518719257255  1.0000
  C   C34       1.0  0.326880898252071  0.21450357020029293  0.7172469571564122  1.0000
  C   C35       1.0  0.1731114385793404  0.7144993990148695  0.21724608020407737  1.0000
  C   C36       1.0  0.6731139383730352  0.7854952481068836  0.28275710455373115  1.0000
  C   C37       1.0  0.81922275740029  0.18435885979869232  0.7253550907822299  1.0000
  C   C38       1.0  0.31921281639931465  0.3156465242791668  0.7746429158844208  1.0000
  C   C39       1.0  0.18078256217067687  0.8156431540730226  0.2746406898228031  1.0000
  C   C40       1.0  0.6807833305940747  0.6843546860989633  0.22535988376012736  1.0000
  C   C41       1.0  0.7695689463134697  0.08959936366602513  0.7650621675073097  1.0000
  C   C42       1.0  0.2695601449129724  0.41040520900249083  0.7349321617550756  1.0000
  C   C43       1.0  0.2304363732519761  0.9104042460150478  0.23493159344143777  1.0000
  C   C44       1.0  0.7304373124519897  0.5895928130437865  0.26507114236802204  1.0000
  C   C45       1.0  0.8211332734602409  0.9883080045574887  0.6263827046359864  1.0000
  C   C46       1.0  0.32112632925631607  0.5116981402114363  0.8736104840430414  1.0000
  C   C47       1.0  0.1788720461081468  0.0116932130528582  0.3736123183795712  1.0000
  C   C48       1.0  0.6788763695867317  0.4883030721398427  0.1263901947064454  1.0000
  C   C49       1.0  0.8672133134993415  0.0783664157070518  0.57962993481555  1.0000
  C   C50       1.0  0.36719646885474333  0.4216461611064091  0.9203650814790193  1.0000
  C   C51       1.0  0.132792006072151  0.9216403803341324  0.4203654425569923  1.0000
  C   C52       1.0  0.6328049196218116  0.5783558468486804  0.079637061825764  1.0000
  C   C53       1.0  0.8675227480798  0.17762599250703198  0.6294713591043717  1.0000
  C   C54       1.0  0.36750552950115883  0.3223833921411129  0.8705284040424528  1.0000
  C   C55       1.0  0.1324825714946414  0.8223784114634329  0.37052528033497356  1.0000
  C   C56       1.0  0.6324932382363501  0.6776170206614794  0.1294750519491359  1.0000
  N   N1        1.0  0.9196176225989631  0.7303124201920072  0.9155153451067903  1.0000
  N   N2        1.0  0.4196156708703783  0.7696937539220983  0.5844843886510773  1.0000
  N   N3        1.0  0.08037721401768042  0.2696903859952471  0.0844854348802642  1.0000
  N   N4        1.0  0.5803778553792469  0.23030506569949694  0.4155182591237647  1.0000
  N   N5        1.0  0.7954514631609869  0.3825810531527907  0.7509867480087209  1.0000
  N   N6        1.0  0.29543860146706175  0.11742591362182958  0.7490141437491643  1.0000
  N   N7        1.0  0.2045577875304758  0.6174217556663495  0.2490112041235051  1.0000
  N   N8        1.0  0.7045614766386307  0.882572906000931  0.2509885040317457  1.0000
  N   N9        1.0  0.875937427267871  0.2950910909734005  0.8751370573094236  1.0000
  N   N10       1.0  0.37592781006230774  0.20491431078069416  0.6248638822484907  1.0000
  N   N11       1.0  0.12406658194256442  0.70491091961145  0.12486225812961038  1.0000
  N   N12       1.0  0.6240617850788297  0.7950861013629336  0.3751402807016504  1.0000
  N   N13       1.0  0.876594049479806  0.40033531149406093  0.9041618118423143  1.0000
  N   N14       1.0  0.37658680055708516  0.09967008852356682  0.5958412498348408  1.0000
  N   N15       1.0  0.12340995973018917  0.5996659021721058  0.09583745297429398  1.0000
  N   N16       1.0  0.6234080360672181  0.9003311211970058  0.4041622567755354  1.0000
  N   N17       1.0  0.7713971021357012  0.9935793293957503  0.7178806364536712  1.0000
  N   N18       1.0  0.2713948423588803  0.5064260006483465  0.7821124095070856  1.0000
  N   N19       1.0  0.22860559669283015  0.006422684475495502  0.282115144148932  1.0000
  N   N20       1.0  0.7286078564854179  0.49357361720822723  0.21788887496459347  1.0000
  O   O1        1.0  0.799122111299809  0.0889053932414541  0.0182860236025846  1.0000
  O   O2        1.0  0.2991174231757157  0.4110861580917274  0.4817114596472507  1.0000
  O   O3        1.0  0.20087534605740134  0.9110902400207266  0.9817150077521077  1.0000
  O   O4        1.0  0.7008826549136913  0.588910275376243  0.5182860874970743  1.0000
  O   O5        1.0  0.6021131321416178  0.22206593922900453  0.0324762810196617  1.0000
  O   O6        1.0  0.10210039856227128  0.2779263483464547  0.4675102835232536  1.0000
  O   O7        1.0  0.3978856355666879  0.7779281061119578  0.9675182863879995  1.0000
  O   O8        1.0  0.8979036106121114  0.7220684998300583  0.5324779718082908  1.0000
  O   O9        1.0  0.1290180032831287  0.09370216961062991  0.9097690496559849  1.0000
  O   O10       1.0  0.6290194274332136  0.4063015472745448  0.5902341592963367  1.0000
  O   O11       1.0  0.870976833342425  0.9062974456152376  0.0902350626765838  1.0000
  O   O12       1.0  0.37097671955331185  0.5936988681568707  0.40976646882465667  1.0000
