data_image0
_chemical_formula_structural       NiH20C20N2O8
_chemical_formula_sum              "Ni1 H20 C20 N2 O8"
_cell_length_a       5.669106004141005
_cell_length_b       7.884577655526783
_cell_length_c       10.7761673691802
_cell_angle_alpha    107.10698459219438
_cell_angle_beta     96.1062760403889
_cell_angle_gamma    98.14060775939127

_space_group_name_H-M_alt    "P 1"
_space_group_IT_number       1

loop_
  _space_group_symop_operation_xyz
  'x, y, z'

loop_
  _atom_site_type_symbol
  _atom_site_label
  _atom_site_symmetry_multiplicity
  _atom_site_fract_x
  _atom_site_fract_y
  _atom_site_fract_z
  _atom_site_occupancy
  Ni  Ni1       1.0  2.0494640721999994e-06  1.3476406550999999e-06  5.977285155699999e-06  1.0000
  H   H1        1.0  0.3215056486840098  0.737451527070654  0.8750224289615572  1.0000
  H   H2        1.0  0.6785085644242486  0.26258493766362523  0.1249983855316614  1.0000
  H   H3        1.0  0.3285107248539489  0.5152488081187485  0.6632175220634337  1.0000
  H   H4        1.0  0.6715327910492164  0.4847621220528495  0.3368161980253177  1.0000
  H   H5        1.0  0.6634374211952475  0.653725586876355  0.5165387122582529  1.0000
  H   H6        1.0  0.3365964014073057  0.34624354779988664  0.4834594574647395  1.0000
  H   H7        1.0  0.6798687905487597  0.8647889114682245  0.7381974331489047  1.0000
  H   H8        1.0  0.3201498170010808  0.13521256265405412  0.2617826915968067  1.0000
  H   H9        1.0  0.7581028448889954  0.4463522404792144  0.7585756562903114  1.0000
  H   H10       1.0  0.2418751762062072  0.5536275169043635  0.24139279205193986  1.0000
  H   H11       1.0  0.6074365303004328  0.4605842875378414  0.8967615400061675  1.0000
  H   H12       1.0  0.39254334864222784  0.5394412964877305  0.10323266402325967  1.0000
  H   H13       1.0  0.12940163173552574  0.9856922287565908  0.6022933834168782  1.0000
  H   H14       1.0  0.8705822964147598  0.0143050746613866  0.3976819718889502  1.0000
  H   H15       1.0  0.8650062759767251  0.23066069236998737  0.6159940124577687  1.0000
  H   H16       1.0  0.1349544181755746  0.7693135950799785  0.3839806026141801  1.0000
  H   H17       1.0  0.753977097188084  0.7552980771080654  0.053012639155333705  1.0000
  H   H18       1.0  0.24602206471111998  0.24471946904824904  0.9469939455117214  1.0000
  H   H19       1.0  0.5515717334156703  0.8805873909914937  0.0628393530212747  1.0000
  H   H20       1.0  0.44842940182375185  0.11943148872011015  0.9371824812935969  1.0000
  C   C1        1.0  0.17799255257016003  0.7153394185846267  0.7933118074347476  1.0000
  C   C2        1.0  0.8220053261419623  0.28466595471857675  0.2067143519475749  1.0000
  C   C3        1.0  0.18163904614814896  0.5908961681108096  0.6718687458451525  1.0000
  C   C4        1.0  0.818377811182472  0.40909982062619576  0.3281676304199904  1.0000
  C   C5        1.0  0.9987683719888737  0.5636680053502374  0.5658278040726471  1.0000
  C   C6        1.0  0.001281972328079871  0.4363416100700093  0.43420046165741155  1.0000
  C   C7        1.0  0.813396821037685  0.6642666823202035  0.5920045095802919  1.0000
  C   C8        1.0  0.1866341344815083  0.3357280489646756  0.40800643146946663  1.0000
  C   C9        1.0  0.8206316204986946  0.784895981342828  0.7164718137721379  1.0000
  C   C10       1.0  0.17938740541758583  0.21510815095993507  0.28353581938982586  1.0000
  C   C11       1.0  0.8618021732313965  0.28055912571233677  0.8754891378884935  1.0000
  C   C12       1.0  0.1381857493754381  0.7194556918085483  0.12450971004841448  1.0000
  C   C13       1.0  0.6730475098742515  0.3675163896711808  0.81601445679118  1.0000
  C   C14       1.0  0.3269309261786261  0.632495701566519  0.18397954070966446  1.0000
  C   C15       1.0  0.4931445262985931  0.1233730311117682  0.6229870350388964  1.0000
  C   C16       1.0  0.5068447493137498  0.8766094577243138  0.37698729556097277  1.0000
  C   C17       1.0  0.2917928293254448  0.9907968423793039  0.55690286317801  1.0000
  C   C18       1.0  0.7081956805846872  0.009174859739616202  0.44306724327647373  1.0000
  C   C19       1.0  0.29628192490955035  0.8686368023478651  0.4341455768606792  1.0000
  C   C20       1.0  0.7036996147854423  0.13132812401619992  0.5658282328441828  1.0000
  N   N1        1.0  0.0014760249986522954  0.8129336252369085  0.8162916022797903  1.0000
  N   N2        1.0  0.9985264244521732  0.18707582103233733  0.18372827622978596  1.0000
  O   O1        1.0  0.7804677253311637  0.14001883512466412  0.9060934124330019  1.0000
  O   O2        1.0  0.21951241988762146  0.860008088555162  0.09390759153256302  1.0000
  O   O3        1.0  0.9211107037727899  0.6451457869566396  0.10838633017340267  1.0000
  O   O4        1.0  0.07888353543094687  0.3548502021888779  0.8915921250707014  1.0000
  O   O5        1.0  0.4645061018298832  0.2416379809446454  0.7403051613082354  1.0000
  O   O6        1.0  0.5354856977336695  0.7583404598282899  0.2596767957418109  1.0000
  O   O7        1.0  0.6736424929406651  0.8357095160484961  0.008993503213105198  1.0000
  O   O8        1.0  0.3263473877816097  0.16430663221061081  0.9910224488441487  1.0000
