data_image0
_chemical_formula_structural       Er4H24C24S4N4O32
_chemical_formula_sum              "Er4 H24 C24 S4 N4 O32"
_cell_length_a       7.514464451547382
_cell_length_b       9.28925939093457
_cell_length_c       14.705345660004674
_cell_angle_alpha    89.99992124540407
_cell_angle_beta     89.99996975255802
_cell_angle_gamma    101.13138167864676

_space_group_name_H-M_alt    "P 1"
_space_group_IT_number       1

loop_
  _space_group_symop_operation_xyz
  'x, y, z'

loop_
  _atom_site_type_symbol
  _atom_site_label
  _atom_site_symmetry_multiplicity
  _atom_site_fract_x
  _atom_site_fract_y
  _atom_site_fract_z
  _atom_site_occupancy
  Er  Er1       1.0  0.1385458763123353  0.2775224778195095  0.0438431008824409  1.0000
  Er  Er2       1.0  0.3614503082208741  0.7224782295813481  0.543842685179051  1.0000
  Er  Er3       1.0  0.8614542920759688  0.7224777711102915  0.956156625203434  1.0000
  Er  Er4       1.0  0.6385485275761554  0.27752201156339845  0.4561570409070015  1.0000
  H   H1        1.0  0.15138521166205984  0.04636650607811529  0.44798942888316867  1.0000
  H   H2        1.0  0.3486132386716747  0.9536343329373195  0.9479942561067743  1.0000
  H   H3        1.0  0.8486128669547027  0.9536304436929154  0.552008937154781  1.0000
  H   H4        1.0  0.6513876868957951  0.046369207364548984  0.0520081900768332  1.0000
  H   H5        1.0  0.1042727523136193  0.12232902813223483  0.2882923740914123  1.0000
  H   H6        1.0  0.39572462297523003  0.8776721907679174  0.7882958945244597  1.0000
  H   H7        1.0  0.8957300812572484  0.8776712363676749  0.711707351994093  1.0000
  H   H8        1.0  0.6042728802277751  0.1223280425876466  0.21170723168586386  1.0000
  H   H9        1.0  0.9167418228477616  0.6652558888370945  0.2217985221057432  1.0000
  H   H10       1.0  0.5832584571799018  0.3347433500506085  0.721799198160582  1.0000
  H   H11       1.0  0.08325834553944836  0.33474436009105074  0.7782025640297618  1.0000
  H   H12       1.0  0.41674095402758843  0.6652536075046527  0.2781998479020018  1.0000
  H   H13       1.0  0.9616627740571317  0.6067649495846225  0.387309781797306  1.0000
  H   H14       1.0  0.5383374914423769  0.39323498464595014  0.8873104191738789  1.0000
  H   H15       1.0  0.03833688954305359  0.39323310509411147  0.6126906243144106  1.0000
  H   H16       1.0  0.46166400953831027  0.6067652720705536  0.1126879468621738  1.0000
  H   H17       1.0  0.2915102433435095  0.36168423706748587  0.22345459865792347  1.0000
  H   H18       1.0  0.20848806431678207  0.6383149527672739  0.7234542972944453  1.0000
  H   H19       1.0  0.7084885924535199  0.6383160040772605  0.776545127428129  1.0000
  H   H20       1.0  0.7915105190864579  0.36168419125235113  0.2765454287921258  1.0000
  H   H21       1.0  0.46777852251006646  0.3494424614071575  0.1625943991040515  1.0000
  H   H22       1.0  0.032219883300165  0.6505568761670588  0.6625941346490123  1.0000
  H   H23       1.0  0.5322213934844554  0.6505566903975218  0.8374053269823278  1.0000
  H   H24       1.0  0.9677787001030751  0.3494422678525594  0.3374055914375518  1.0000
  C   C1        1.0  0.0949486666419829  0.9682481892248584  0.3956414057833229  1.0000
  C   C2        1.0  0.40504986811504295  0.031752776868096085  0.8956449782659915  1.0000
  C   C3        1.0  0.9050515017474223  0.031752059706590785  0.6043569602529146  1.0000
  C   C4        1.0  0.5949489676808851  0.9682474642749946  0.1043561078696982  1.0000
  C   C5        1.0  0.0698700821682934  0.007031021270819297  0.3066660193388842  1.0000
  C   C6        1.0  0.4301301810666942  0.9929712657239161  0.80666807031929  1.0000
  C   C7        1.0  0.9301327514025743  0.9929692432290902  0.6933337067466212  1.0000
  C   C8        1.0  0.569871572305587  0.0070300881144121  0.19333301581552578  1.0000
  C   C9        1.0  0.008534543308407054  0.8990615850714001  0.2417314305121749  1.0000
  C   C10       1.0  0.49146423966114133  0.10093975464157977  0.7417349196078717  1.0000
  C   C11       1.0  0.9914667052779437  0.10093757451915047  0.758267615549208  1.0000
  C   C12       1.0  0.5085348485285762  0.8990615836266398  0.2582661665273065  1.0000
  C   C13       1.0  0.9647841978069562  0.7526494860285026  0.2701944838994024  1.0000
  C   C14       1.0  0.5352151763665418  0.2473518218395156  0.7701972888767088  1.0000
  C   C15       1.0  0.03521863576391128  0.2473507784714072  0.7298052421861101  1.0000
  C   C16       1.0  0.4647849920206681  0.7526484270886297  0.2298037972587963  1.0000
  C   C17       1.0  0.9890433840415226  0.7174202113324027  0.3600883366109784  1.0000
  C   C18       1.0  0.5109553403720852  0.28257868406687675  0.8600904375144509  1.0000
  C   C19       1.0  0.010956279559209683  0.2825778433471483  0.6399113894759125  1.0000
  C   C20       1.0  0.48904482801567184  0.7174215648620927  0.13990996859623553  1.0000
  C   C21       1.0  0.9972913299350025  0.9405968123075178  0.1438349064050968  1.0000
  C   C22       1.0  0.5027077432334792  0.05940260805240877  0.6438365233126291  1.0000
  C   C23       1.0  0.0027099186508010944  0.05940234728220868  0.8561648196811049  1.0000
  C   C24       1.0  0.497290335381635  0.9405943417161421  0.3561638827997697  1.0000
  S   S1        1.0  0.8182830071677999  0.40161403177525995  0.0936976147923616  1.0000
  S   S2        1.0  0.6817153190554988  0.5983876967615414  0.5936973553230371  1.0000
  S   S3        1.0  0.18171582862922972  0.5983862093694867  0.9063021112936909  1.0000
  S   S4        1.0  0.3182835167415305  0.4016125443832052  0.4063023707630222  1.0000
  N   N1        1.0  0.059010258291671336  0.82462192101989  0.42040321667431607  1.0000
  N   N2        1.0  0.44098982151850646  0.17538008987603596  0.9204046146655003  1.0000
  N   N3        1.0  0.9409899100960858  0.17537832790908675  0.5795971894363774  1.0000
  N   N4        1.0  0.5590116794605322  0.8246201668379951  0.07959579144500852  1.0000
  O   O1        1.0  0.047608931589927295  0.07548453850300517  0.1237637975809918  1.0000
  O   O2        1.0  0.4523895368415152  0.9245148933313126  0.6237652219787364  1.0000
  O   O3        1.0  0.9523914891921664  0.9245168075519175  0.8762359285043716  1.0000
  O   O4        1.0  0.5476103791524592  0.07548425847253529  0.3762351841324616  1.0000
  O   O5        1.0  0.9397693292747176  0.8395321939665618  0.0875173427255831  1.0000
  O   O6        1.0  0.5602314197023688  0.16046846801500433  0.5875195363799364  1.0000
  O   O7        1.0  0.060232171704320984  0.16046806274746922  0.9124830633849255  1.0000
  O   O8        1.0  0.4397684962915988  0.839530683788851  0.4124808697312616  1.0000
  O   O9        1.0  0.09650365984889923  0.7887479347743418  0.5042067656148959  1.0000
  O   O10       1.0  0.40349709116595983  0.21125508644737315  0.0042085274588217  1.0000
  O   O11       1.0  0.9034925107655666  0.21125229080028862  0.4957929604715261  1.0000
  O   O12       1.0  0.5965078321770036  0.7887484772121308  0.9957918786497899  1.0000
  O   O13       1.0  0.007673454699201336  0.44540912157000867  0.1296825783588105  1.0000
  O   O14       1.0  0.4923263367796268  0.5545903036834969  0.6296822731508485  1.0000
  O   O15       1.0  0.9923251287045859  0.5545900224504406  0.870316467702942  1.0000
  O   O16       1.0  0.5076751642005063  0.4454099530321825  0.370316772910023  1.0000
  O   O17       1.0  0.8254109953979522  0.2781145695120343  0.0292734762855247  1.0000
  O   O18       1.0  0.6745885149210409  0.7218862260766908  0.5292724314681223  1.0000
  O   O19       1.0  0.17459025318729718  0.7218845900768682  0.9707269298254886  1.0000
  O   O20       1.0  0.32541032087598154  0.27811401506804856  0.4707272946179303  1.0000
  O   O21       1.0  0.7603847785799331  0.5252048889794023  0.045198878971724796  1.0000
  O   O22       1.0  0.739614958449053  0.4747969650741125  0.5451987112124073  1.0000
  O   O23       1.0  0.23961697479343505  0.47479646486057425  0.9548008471134535  1.0000
  O   O24       1.0  0.2603836249541871  0.5252021789455127  0.4548010148741639  1.0000
  O   O25       1.0  0.6915415342555208  0.3561337121912515  0.1704214516749687  1.0000
  O   O26       1.0  0.8084574960386421  0.6438656436324378  0.6704204385051256  1.0000
  O   O27       1.0  0.3084599667240653  0.6438665445236037  0.8295782744107214  1.0000
  O   O28       1.0  0.19153975477331642  0.356133492602133  0.3295792875816232  1.0000
  O   O29       1.0  0.3360638673330882  0.35328347928150083  0.16038637461517166  1.0000
  O   O30       1.0  0.16393454203807778  0.6467158636527796  0.6603860779724755  1.0000
  O   O31       1.0  0.6639349684633872  0.6467167618624146  0.8396140314956995  1.0000
  O   O32       1.0  0.8360653739558971  0.35328328815106846  0.3396143281387224  1.0000
