data_image0
_chemical_formula_structural       La4H36C44N4O32
_chemical_formula_sum              "La4 H36 C44 N4 O32"
_cell_length_a       6.916144933008622
_cell_length_b       13.623593534239202
_cell_length_c       14.264486489227748
_cell_angle_alpha    112.71173408605114
_cell_angle_beta     89.99986392600964
_cell_angle_gamma    90.00016114157707

_space_group_name_H-M_alt    "P 1"
_space_group_IT_number       1

loop_
  _space_group_symop_operation_xyz
  'x, y, z'

loop_
  _atom_site_type_symbol
  _atom_site_label
  _atom_site_symmetry_multiplicity
  _atom_site_fract_x
  _atom_site_fract_y
  _atom_site_fract_z
  _atom_site_occupancy
  La  La1       1.0  0.42073062778026576  0.5349606003815595  0.36704273356096445  1.0000
  La  La2       1.0  0.9207452660690264  0.9650371813733185  0.6329555069628156  1.0000
  La  La3       1.0  0.5792790961296249  0.46503862013216235  0.6329581591383189  1.0000
  La  La4       1.0  0.07926590374862737  0.0349612230979943  0.3670380762179661  1.0000
  H   H1        1.0  0.11599261274269419  0.19660610974300852  0.1200028309797361  1.0000
  H   H2        1.0  0.6160008190280166  0.3034009408294551  0.8799974055418575  1.0000
  H   H3        1.0  0.8840040981497026  0.8033978810134599  0.8799984079222509  1.0000
  H   H4        1.0  0.3840117966762762  0.6965990652430422  0.12000026984128448  1.0000
  H   H5        1.0  0.8381250046049685  0.22905738470996787  0.02123103087675557  1.0000
  H   H6        1.0  0.3381347098545646  0.27094594622936796  0.9787696890915996  1.0000
  H   H7        1.0  0.16187604396505859  0.7709489972712618  0.9787724864891915  1.0000
  H   H8        1.0  0.6618764599545701  0.7290524684039853  0.02122740303353514  1.0000
  H   H9        1.0  0.5716891057025394  0.35185694013389224  0.1179571660687486  1.0000
  H   H10       1.0  0.07170005215146351  0.14814768301174303  0.882045737172291  1.0000
  H   H11       1.0  0.42830905108819906  0.6481494357484648  0.8820442459316594  1.0000
  H   H12       1.0  0.9283096717716149  0.8518531167458647  0.1179515280523233  1.0000
  H   H13       1.0  0.7984357863254985  0.536901833862906  0.15458051470636033  1.0000
  H   H14       1.0  0.298439970253142  0.963097402142317  0.8454191010337695  1.0000
  H   H15       1.0  0.2015580327799853  0.46309896995046523  0.8454181541018571  1.0000
  H   H16       1.0  0.7015567406186634  0.036901030774465896  0.1545843071965152  1.0000
  H   H17       1.0  0.3520022863717287  0.4687296426487321  0.005710127499320068  1.0000
  H   H18       1.0  0.8520026534640053  0.0312705313678947  0.9942929246683292  1.0000
  H   H19       1.0  0.6479944245253365  0.5312759375136481  0.9942909928723367  1.0000
  H   H20       1.0  0.14798971972528827  0.968724718669776  0.005709317046452507  1.0000
  H   H21       1.0  0.8649624617066466  0.5749748679544241  0.3085901289867365  1.0000
  H   H22       1.0  0.3649715244255987  0.9250300056887683  0.6914086719525016  1.0000
  H   H23       1.0  0.1350342491732306  0.42502515030346183  0.6914117571354906  1.0000
  H   H24       1.0  0.6350237405593474  0.07496762337840579  0.3085916374935636  1.0000
  H   H25       1.0  0.7937191238320622  0.683974833866358  0.38724164821091717  1.0000
  H   H26       1.0  0.293729415630672  0.8160275674553218  0.6127549267883267  1.0000
  H   H27       1.0  0.2062746952683128  0.31602597604423016  0.6127591259639047  1.0000
  H   H28       1.0  0.7062730788301579  0.1839716388274439  0.3872410533915414  1.0000
  H   H29       1.0  0.5294866067103001  0.7713111577563224  0.508703580009893  1.0000
  H   H30       1.0  0.0294839966162783  0.7286853950910483  0.4912988680791059  1.0000
  H   H31       1.0  0.4705144418449195  0.22868726703330117  0.4912970210633176  1.0000
  H   H32       1.0  0.970527173175803  0.27131303986637073  0.5087052419347131  1.0000
  H   H33       1.0  0.5661222670123891  0.7015804004862787  0.5760833944896219  1.0000
  H   H34       1.0  0.0661232611323754  0.7984122073419471  0.4239147612856015  1.0000
  H   H35       1.0  0.4338744438643048  0.2984188240848482  0.4239189017921987  1.0000
  H   H36       1.0  0.9338850168798415  0.20158223479117504  0.576082978060839  1.0000
  C   C1        1.0  0.8347629579855038  0.36030728814796475  0.31196795718730636  1.0000
  C   C2        1.0  0.334769020076621  0.1396936457074034  0.6880297850067195  1.0000
  C   C3        1.0  0.1652279693179608  0.6396895492623925  0.6880334642088285  1.0000
  C   C4        1.0  0.665236366167349  0.8603039671062761  0.3119649101246651  1.0000
  C   C5        1.0  0.9930982139051137  0.29630232726005806  0.2647041402574715  1.0000
  C   C6        1.0  0.4931058439373217  0.20369799111812628  0.7352931935698734  1.0000
  C   C7        1.0  0.006892713400859001  0.7036976970917549  0.735299851233492  1.0000
  C   C8        1.0  0.5068952046415447  0.7963012029693741  0.2646985758773041  1.0000
  C   C9        1.0  0.9952339218524815  0.2477953088712823  0.15855422229319768  1.0000
  C   C10       1.0  0.4952427474385033  0.2522066033770828  0.8414436932176486  1.0000
  C   C11       1.0  0.004761343130084599  0.7522047154829962  0.841449769196167  1.0000
  C   C12       1.0  0.5047669764901385  0.7477925947801651  0.15854947980407266  1.0000
  C   C13       1.0  0.8423845022930719  0.26571576549616793  0.10396794640818999  1.0000
  C   C14       1.0  0.3423958548838968  0.23428598291940264  0.8960335907383197  1.0000
  C   C15       1.0  0.157612208591253  0.7342866399192046  0.8960348146018545  1.0000
  C   C16       1.0  0.6576196525971695  0.7657108423105046  0.10396361991553256  1.0000
  C   C17       1.0  0.6926233817304495  0.33285008789151493  0.15697330466203138  1.0000
  C   C18       1.0  0.19263606891939128  0.16715149004411242  0.8430283428992952  1.0000
  C   C19       1.0  0.30737477505243754  0.6671539048981783  0.8430286360282863  1.0000
  C   C20       1.0  0.8073794385538166  0.8328429520931308  0.15696939644447366  1.0000
  C   C21       1.0  0.8119047055821511  0.40909510246629566  0.42560349251601076  1.0000
  C   C22       1.0  0.3119124988409395  0.09090342430909001  0.5743954970090073  1.0000
  C   C23       1.0  0.1880891135029685  0.5908993457558225  0.5743963522023633  1.0000
  C   C24       1.0  0.6880943332935274  0.9090941905378218  0.4255998999107078  1.0000
  C   C25       1.0  0.1635593123929837  0.28102093826563396  0.3228064904652967  1.0000
  C   C26       1.0  0.6635608129751134  0.21898139620045506  0.6771933647910728  1.0000
  C   C27       1.0  0.8364316149157246  0.7189814752760667  0.6771990777023545  1.0000
  C   C28       1.0  0.3364330061492567  0.7810249674849956  0.32280383647771055  1.0000
  C   C29       1.0  0.8868941433948905  0.5200974682906577  0.08707053732018007  1.0000
  C   C30       1.0  0.38689230719989354  0.9799026641269464  0.9129293048332058  1.0000
  C   C31       1.0  0.11310545927791078  0.47990253980684366  0.9129278398566356  1.0000
  C   C32       1.0  0.6130986201111952  0.020097354127649705  0.08707258129115299  1.0000
  C   C33       1.0  0.0858625793692269  0.5018488955599665  0.08975309310899594  1.0000
  C   C34       1.0  0.5858601434815895  0.9981532813352346  0.9102478458758441  1.0000
  C   C35       1.0  0.914139915092413  0.49815349969665584  0.9102461589545712  1.0000
  C   C36       1.0  0.41413367561537473  0.0018475326401699  0.0897543318767191  1.0000
  C   C37       1.0  0.19756803280838403  0.48248765484797224  0.002283885538339747  1.0000
  C   C38       1.0  0.6975639697692984  0.017512335236140996  0.9977164733361761  1.0000
  C   C39       1.0  0.8024315698678282  0.5175123491847131  0.9977130880607349  1.0000
  C   C40       1.0  0.3024269575403125  0.982486887299288  0.0022851211589056722  1.0000
  C   C41       1.0  0.1818565759353916  0.4999839077412885  0.18298067662902887  1.0000
  C   C42       1.0  0.6818576350754669  2.084080796290027e-05  0.8170221453917962  1.0000
  C   C43       1.0  0.818145918523058  0.500017693828582  0.8170189855941317  1.0000
  C   C44       1.0  0.3181361840303794  0.999984747482401  0.18298178213640873  1.0000
  N   N1        1.0  0.6890461255365921  0.37957442670846586  0.2585349154714152  1.0000
  N   N2        1.0  0.1890576046257735  0.12042874062503019  0.7414680197752049  1.0000
  N   N3        1.0  0.3109462476654414  0.6204239980762268  0.7414656856049859  1.0000
  N   N4        1.0  0.8109564569592322  0.8795696841720043  0.2585325812932097  1.0000
  O   O1        1.0  0.6721202854558186  0.4755801400960706  0.4597125976402126  1.0000
  O   O2        1.0  0.1721336624502143  0.024416634088048297  0.5402852098950603  1.0000
  O   O3        1.0  0.32787353361930366  0.5244135225689206  0.5402904643932303  1.0000
  O   O4        1.0  0.8278832909222444  0.9755770021688193  0.4597087288745598  1.0000
  O   O5        1.0  0.1704704022513894  0.19852115497374007  0.3423789772965051  1.0000
  O   O6        1.0  0.6704695607431644  0.301481989174647  0.6576232698612259  1.0000
  O   O7        1.0  0.8295205250607295  0.8014812545031518  0.6576251872934122  1.0000
  O   O8        1.0  0.3295083535493077  0.6985267880805283  0.3423839295565401  1.0000
  O   O9        1.0  0.29900629282818164  0.34943890143097167  0.34388899557175273  1.0000
  O   O10       1.0  0.7990089653217821  0.1505604043453346  0.6561095933052529  1.0000
  O   O11       1.0  0.7009860803676062  0.6505635182087771  0.6561186779619773  1.0000
  O   O12       1.0  0.20099352916134447  0.8494443577447014  0.3438835157574473  1.0000
  O   O13       1.0  0.363152615457409  0.4794217433489507  0.17843313576311456  1.0000
  O   O14       1.0  0.8631537656511628  0.020579230950645  0.8215673926571795  1.0000
  O   O15       1.0  0.6368542166842346  0.5205806478453283  0.8215647127211126  1.0000
  O   O16       1.0  0.136842945238044  0.9794239661190717  0.17843425640440094  1.0000
  O   O17       1.0  0.7444531720366355  0.6157796350016299  0.3376661826652239  1.0000
  O   O18       1.0  0.2444635976814382  0.8842219226486493  0.6623329441827933  1.0000
  O   O19       1.0  0.2555406470522498  0.38421959363267183  0.6623375171954039  1.0000
  O   O20       1.0  0.7555345590834648  0.1157733192626864  0.3376664903743887  1.0000
  O   O21       1.0  0.4772651139452293  0.7125495998720337  0.5261232448177892  1.0000
  O   O22       1.0  0.9772665367559057  0.7874474667715103  0.4738802767110142  1.0000
  O   O23       1.0  0.5227373805021927  0.2874488249184211  0.4738773562548886  1.0000
  O   O24       1.0  0.0227431871461334  0.21254937064954763  0.5261211446781857  1.0000
  O   O25       1.0  0.0859981128796505  0.5184489649321834  0.26455864170368665  1.0000
  O   O26       1.0  0.5860051130635284  0.9815563949993091  0.7354434636948425  1.0000
  O   O27       1.0  0.9140000439009485  0.48155104316448677  0.7354397354736548  1.0000
  O   O28       1.0  0.41399593550205077  0.0184475998244409  0.2645591787832799  1.0000
  O   O29       1.0  0.0832404570366094  0.6184241851192452  0.5167514363091357  1.0000
  O   O30       1.0  0.5832264476771414  0.881572402491095  0.483241848897329  1.0000
  O   O31       1.0  0.916763483309822  0.3815742315424017  0.4832463576075269  1.0000
  O   O32       1.0  0.41677315500077583  0.11842759950918237  0.5167544229128751  1.0000
