data_image0
_chemical_formula_structural       Zn2H40C52N12O12
_chemical_formula_sum              "Zn2 H40 C52 N12 O12"
_cell_length_a       8.520739165900345
_cell_length_b       10.609538790368086
_cell_length_c       13.81548347001799
_cell_angle_alpha    90.00011269709255
_cell_angle_beta     89.99982581499481
_cell_angle_gamma    106.75266002611363

_space_group_name_H-M_alt    "P 1"
_space_group_IT_number       1

loop_
  _space_group_symop_operation_xyz
  'x, y, z'

loop_
  _atom_site_type_symbol
  _atom_site_label
  _atom_site_symmetry_multiplicity
  _atom_site_fract_x
  _atom_site_fract_y
  _atom_site_fract_z
  _atom_site_occupancy
  Zn  Zn1       1.0  1.1816387299949101e-06  0.5000001880250978  0.5000002521436573  1.0000
  Zn  Zn2       1.0  0.0  0.0  0.0  1.0000
  H   H1        1.0  0.7864914172956362  0.5150352705918096  0.9931838536869578  1.0000
  H   H2        1.0  0.2135090046381407  0.9849656033109043  0.4931841516090288  1.0000
  H   H3        1.0  0.2135074464529438  0.4849644415905133  0.0068164299811286026  1.0000
  H   H4        1.0  0.7864910345846143  0.0150341141251218  0.5068168558835141  1.0000
  H   H5        1.0  0.9090500985620127  0.1841819374033449  0.21935171994535815  1.0000
  H   H6        1.0  0.09094393498251917  0.3158169335493  0.7193517426390063  1.0000
  H   H7        1.0  0.09094994066231271  0.8158177800321128  0.7806485637216272  1.0000
  H   H8        1.0  0.9090545817593211  0.684181794322271  0.28064854102866843  1.0000
  H   H9        1.0  0.08168272327895917  0.33414873561246583  0.09644631145971524  1.0000
  H   H10       1.0  0.9183165448027567  0.16584996494401594  0.5964474400534174  1.0000
  H   H11       1.0  0.9183188384278511  0.6658519713868857  0.9035539722065808  1.0000
  H   H12       1.0  0.08168466989888389  0.834149757744015  0.4035521197869088  1.0000
  H   H13       1.0  0.1918000294642042  0.6380937185721578  0.3155477089631945  1.0000
  H   H14       1.0  0.8082096595380365  0.8619010200972921  0.8155464464640475  1.0000
  H   H15       1.0  0.808202013706435  0.3619050250582561  0.6844518508756112  1.0000
  H   H16       1.0  0.1917907266914654  0.1380996816494928  0.18445456102890745  1.0000
  H   H17       1.0  0.41946987540926983  0.5936373649199426  0.9158644900141371  1.0000
  H   H18       1.0  0.5805278366379981  0.9063614094403931  0.415865423562103  1.0000
  H   H19       1.0  0.5805293353460571  0.4063633315731394  0.08413579365437583  1.0000
  H   H20       1.0  0.41947303105847317  0.09363732893632461  0.5841334124522463  1.0000
  H   H21       1.0  0.5231256329402214  0.6838759968753367  0.016902796950795107  1.0000
  H   H22       1.0  0.4768726326150912  0.8161221509000925  0.5169042626079587  1.0000
  H   H23       1.0  0.47687523475310906  0.3161227415025039  0.9830974867146626  1.0000
  H   H24       1.0  0.5231274066123748  0.18387756653424253  0.483094573407918  1.0000
  H   H25       1.0  0.5568897489620428  0.8112556372952543  0.8296112999350317  1.0000
  H   H26       1.0  0.4431113818483682  0.6887449818638559  0.3296114404249694  1.0000
  H   H27       1.0  0.4431094617932772  0.1887450591978279  0.17038898373347425  1.0000
  H   H28       1.0  0.5568898328532726  0.3112547408241824  0.6703881194153498  1.0000
  H   H29       1.0  0.5217335450443487  0.02990452943848251  0.7822667609137429  1.0000
  H   H30       1.0  0.4782652647532259  0.47009544482002497  0.2822672600961838  1.0000
  H   H31       1.0  0.47826601271928837  0.9700971513647902  0.21773279892962458  1.0000
  H   H32       1.0  0.5217332519886142  0.5299032830515529  0.7177330235714906  1.0000
  H   H33       1.0  0.6956041992486066  0.8943354424382408  0.13777659407060847  1.0000
  H   H34       1.0  0.30439541196686554  0.6056648674563051  0.6377766198849387  1.0000
  H   H35       1.0  0.3043946644999735  0.10566426974408223  0.8622236895974782  1.0000
  H   H36       1.0  0.69560462725903  0.39433484997859136  0.3622229399564888  1.0000
  H   H37       1.0  0.8306897516971148  0.22640353379381387  0.963521946447948  1.0000
  H   H38       1.0  0.1693087540575178  0.2735947593773531  0.46352128467118103  1.0000
  H   H39       1.0  0.16930911205146507  0.7735961783885159  0.0364783372201458  1.0000
  H   H40       1.0  0.8306912851715182  0.7264049580564205  0.5364768275191383  1.0000
  C   C1        1.0  0.12135474839265464  0.7592580804559574  0.5872126269454299  1.0000
  C   C2        1.0  0.8786477799105016  0.7407431455087307  0.08721274714390863  1.0000
  C   C3        1.0  0.8786469477712446  0.2407396788637045  0.4127869328929564  1.0000
  C   C4        1.0  0.1213502553690802  0.25925754573121657  0.9127875365257057  1.0000
  C   C5        1.0  0.03383301612032602  0.6701729248526649  0.6687045424941334  1.0000
  C   C6        1.0  0.9661656325931957  0.8298284122659036  0.16870463197695076  1.0000
  C   C7        1.0  0.9661681985797446  0.3298267978359348  0.3312957411717435  1.0000
  C   C8        1.0  0.033832884148644396  0.1701703156056666  0.8312956516907237  1.0000
  C   C9        1.0  0.025553131503961855  0.7144270244709929  0.7628583643810462  1.0000
  C   C10       1.0  0.974447460127273  0.7855744697858428  0.2628576475326413  1.0000
  C   C11       1.0  0.9744480831961084  0.2855726982175995  0.2371419192848308  1.0000
  C   C12       1.0  0.02555292610379207  0.21442623196037397  0.7371426361347633  1.0000
  C   C13       1.0  0.9306581562776018  0.6286919022931273  0.8311351856316737  1.0000
  C   C14       1.0  0.06934213946230014  0.8713096982959314  0.331134136493823  1.0000
  C   C15       1.0  0.0693422299534703  0.37130879945308953  0.168865098035731  1.0000
  C   C16       1.0  0.9306552018069284  0.1286890243213747  0.6688646995238516  1.0000
  C   C17       1.0  0.8466807485232337  0.4999966341317047  0.8036182153945648  1.0000
  C   C18       1.0  0.15331548333649184  6.310551761099985e-06  0.3036186181043875  1.0000
  C   C19       1.0  0.1533204661768366  0.5000030885568948  0.19638206827131915  1.0000
  C   C20       1.0  0.8466849028945732  0.9999943911944555  0.69638166556301  1.0000
  C   C21       1.0  0.13262513088660197  0.5380859894042729  0.29139001137762943  1.0000
  C   C22       1.0  0.8673791324360779  0.961909669687735  0.7913887882121532  1.0000
  C   C23       1.0  0.8673760838150387  0.46191373328376534  0.7086095484626899  1.0000
  C   C24       1.0  0.13261938430733272  0.038089058183274495  0.20861077162997085  1.0000
  C   C25       1.0  0.729188867442602  0.40000058225431445  0.8658592865262735  1.0000
  C   C26       1.0  0.27080840461368183  0.099999516935668  0.36585961838850534  1.0000
  C   C27       1.0  0.27081047776823647  0.5999971665596391  0.13414099713988045  1.0000
  C   C28       1.0  0.729188589644103  0.8999982213725773  0.6341413891054161  1.0000
  C   C29       1.0  0.5946172577289774  0.34545679322076955  0.022262402009630505  1.0000
  C   C30       1.0  0.4053865522909065  0.1545437761825355  0.5222608632667447  1.0000
  C   C31       1.0  0.405384303977833  0.654543913778582  0.9777378816566658  1.0000
  C   C32       1.0  0.5946143154024243  0.8454549621953121  0.47773942039872014  1.0000
  C   C33       1.0  0.6290179997600022  0.2218604350407603  0.058958060345787516  1.0000
  C   C34       1.0  0.37098212480369613  0.2781401757521564  0.5589567733292145  1.0000
  C   C35       1.0  0.3709835619452377  0.7781402719591527  0.9410429471460592  1.0000
  C   C36       1.0  0.6290167389464544  0.721859536429605  0.4410427865133217  1.0000
  C   C37       1.0  0.5329176069354704  0.15039418549475417  0.13369163809329626  1.0000
  C   C38       1.0  0.46708371623552847  0.3496075312506194  0.6336910013577324  1.0000
  C   C39       1.0  0.4670834733106446  0.8496084848724121  0.866307921749382  1.0000
  C   C40       1.0  0.5329158415249682  0.650394149553776  0.3663100061367502  1.0000
  C   C41       1.0  0.5545842892135441  0.030825263635613  0.16221749245142555  1.0000
  C   C42       1.0  0.4454157348599779  0.4691764922816333  0.6622163534759411  1.0000
  C   C43       1.0  0.4454140930696441  0.9691764119162161  0.8377842388697163  1.0000
  C   C44       1.0  0.5545827818834326  0.5308222355893761  0.3377832063661757  1.0000
  C   C45       1.0  0.6766135354447654  0.988057948857353  0.11779185921659524  1.0000
  C   C46       1.0  0.3233876848616504  0.5119433194772611  0.6177917075521581  1.0000
  C   C47       1.0  0.3233871977946095  0.011943737199054304  0.8822077006256708  1.0000
  C   C48       1.0  0.6766127013694145  0.4880573822689557  0.38220857611523956  1.0000
  C   C49       1.0  0.7503951969021189  0.17247960711841165  0.02020645963055051  1.0000
  C   C50       1.0  0.24960627107022765  0.3275209485788722  0.5202076479682916  1.0000
  C   C51       1.0  0.249606364803121  0.8275210998815012  0.9797945478612963  1.0000
  C   C52       1.0  0.7503941151577039  0.6724797531684743  0.47979408335022117  1.0000
  N   N1        1.0  0.9578962612105572  0.5444602408745  0.6436469055325135  1.0000
  N   N2        1.0  0.0421020146306574  0.9555430205893032  0.14364820659116626  1.0000
  N   N3        1.0  0.0421046064812032  0.4555384975039091  0.3563541019585018  1.0000
  N   N4        1.0  0.9578975431314094  0.0444586602145307  0.8563520770777588  1.0000
  N   N5        1.0  0.7191554796867126  0.42896394501479324  0.9603026287400741  1.0000
  N   N6        1.0  0.2808469134530469  0.07103534321301198  0.4603021740581427  1.0000
  N   N7        1.0  0.2808449065443596  0.5710367567314235  0.03969765492733052  1.0000
  N   N8        1.0  0.719153954241854  0.9289633951642672  0.5396973857817644  1.0000
  N   N9        1.0  0.7762521800395633  0.059207283089051516  0.04964723029037541  1.0000
  N   N10       1.0  0.22374729085997563  0.44079134458233693  0.5496464671376843  1.0000
  N   N11       1.0  0.2237463367007139  0.9407914447830878  0.9503537772028567  1.0000
  N   N12       1.0  0.7762520543540037  0.5592064042304868  0.45035236887735425  1.0000
  O   O1        1.0  0.13829188255394342  0.702105628336625  0.507504897578798  1.0000
  O   O2        1.0  0.8617098157035271  0.7978954682403552  0.007505136122851802  1.0000
  O   O3        1.0  0.8617096791528668  0.29789507866272663  0.49249538608749094  1.0000
  O   O4        1.0  0.13829022352079792  0.20210424919510933  0.9924951475441335  1.0000
  O   O5        1.0  0.16556792347387275  0.8811400390666935  0.6021929709658098  1.0000
  O   O6        1.0  0.8344353683764397  0.6188602311708494  0.10219371434936163  1.0000
  O   O7        1.0  0.834436817651863  0.11885969938187911  0.3978080365223066  1.0000
  O   O8        1.0  0.16555962193660176  0.38113848094187824  0.8978072931471888  1.0000
  O   O9        1.0  0.6432266123051776  0.29512738389748716  0.8290932932094963  1.0000
  O   O10       1.0  0.3567726885766974  0.20487463190764293  0.32909217350078995  1.0000
  O   O11       1.0  0.3567742553850195  0.7048713544814831  0.17090843810707676  1.0000
  O   O12       1.0  0.6432292201399932  0.7951270594013379  0.6709066625148097  1.0000
