data_image0
_chemical_formula_structural       Zn6H48C48N8O28
_chemical_formula_sum              "Zn6 H48 C48 N8 O28"
_cell_length_a       18.68769868574821
_cell_length_b       19.256355111450716
_cell_length_c       19.4726859556609
_cell_angle_alpha    111.46382121328242
_cell_angle_beta     110.72636132820449
_cell_angle_gamma    104.64712565170073

_space_group_name_H-M_alt    "P 1"
_space_group_IT_number       1

loop_
  _space_group_symop_operation_xyz
  'x, y, z'

loop_
  _atom_site_type_symbol
  _atom_site_label
  _atom_site_symmetry_multiplicity
  _atom_site_fract_x
  _atom_site_fract_y
  _atom_site_fract_z
  _atom_site_occupancy
  Zn  Zn1       1.0  0.07727279552290871  0.008671859623987598  0.5642030128783804  1.0000
  Zn  Zn2       1.0  0.03502577627395442  0.5392855100855555  0.9882523571817221  1.0000
  Zn  Zn3       1.0  0.9372197099804253  0.4108522101367882  0.9858249323465885  1.0000
  Zn  Zn4       1.0  0.94188194520369  0.9954466167264754  0.4390188392860353  1.0000
  Zn  Zn5       1.0  0.5027191886097739  0.5532415274765798  0.55850171506647  1.0000
  Zn  Zn6       1.0  0.5221720693098746  0.4429840591954388  0.44164015354280656  1.0000
  H   H1        1.0  0.9818592653185333  0.727973161810354  0.13752008679920658  1.0000
  H   H2        1.0  0.947721186025852  0.5565341297453157  0.25350514990731204  1.0000
  H   H3        1.0  0.9061413797738068  0.5112858234680713  0.1413801396002369  1.0000
  H   H4        1.0  0.8361502582279172  0.4907116705827761  0.1824325663654848  1.0000
  H   H5        1.0  0.11366530723234547  0.39162382934141243  0.6991416356435638  1.0000
  H   H6        1.0  0.07857720432875939  0.5119799832935499  0.7900772756785347  1.0000
  H   H7        1.0  0.17163053829039404  0.5319041545958996  0.7790343310106282  1.0000
  H   H8        1.0  0.17392567538166046  0.5255825493056746  0.869092626007131  1.0000
  H   H9        1.0  0.35843275645920153  0.5884506581831629  0.21839238086602114  1.0000
  H   H10       1.0  0.23729887695051846  0.610719785694272  0.10877126586440522  1.0000
  H   H11       1.0  0.2182326816654267  0.5073903041442376  0.045754686032829235  1.0000
  H   H12       1.0  0.0341185447364154  0.2876963121083307  0.8216057111428018  1.0000
  H   H13       1.0  0.32143867057443026  0.590281721688157  0.09592411265051473  1.0000
  H   H14       1.0  0.644054573616664  0.5013884127171764  0.8871364412859323  1.0000
  H   H15       1.0  0.7288307430473038  0.41187366982084217  0.9517858451158647  1.0000
  H   H16       1.0  0.703686209776194  0.49093503061433813  0.006206559186161203  1.0000
  H   H17       1.0  0.798277391856331  0.5175043137016855  0.9987669107408411  1.0000
  H   H18       1.0  0.8581266416112142  0.6317848738118881  0.23807605471076707  1.0000
  H   H19       1.0  0.14882805431094678  0.41360169024878246  0.1804919424895246  1.0000
  H   H20       1.0  0.7722149441563033  0.43861381184483844  0.7632806528901244  1.0000
  H   H21       1.0  0.8484707508881827  0.816786935595083  0.21872286712940814  1.0000
  H   H22       1.0  0.7162485242015109  0.6851504164761267  0.09818708466799121  1.0000
  H   H23       1.0  0.7858688978978562  0.6491502375008763  0.06894572690237068  1.0000
  H   H24       1.0  0.7717357799203484  0.7328528944320425  0.0572953241884449  1.0000
  H   H25       1.0  0.1473603647274331  0.2061736635034066  0.7052872476721037  1.0000
  H   H26       1.0  0.2784331084337879  0.3042549989965905  0.8310097011832057  1.0000
  H   H27       1.0  0.23103576780371068  0.3702515451516674  0.863510962437353  1.0000
  H   H28       1.0  0.2622717565621428  0.3689389220023357  0.7866131534959566  1.0000
  H   H29       1.0  0.3792577592963511  0.4237540369040147  0.266479706246301  1.0000
  H   H30       1.0  0.3560417521025414  0.38346212049055584  0.11745991237535951  1.0000
  H   H31       1.0  0.2573336961454018  0.3899728517951572  0.09404249232515136  1.0000
  H   H32       1.0  0.2722384376746092  0.31070842569226903  0.11456007265183393  1.0000
  H   H33       1.0  0.5587861094185271  0.5199642211859797  0.7415006384433768  1.0000
  H   H34       1.0  0.4575215217745594  0.42089034614875226  0.749036446656483  1.0000
  H   H35       1.0  0.527120645811145  0.3727229308132038  0.7637814719334558  1.0000
  H   H36       1.0  0.4754356923631278  0.36794165571548376  0.6643668963625019  1.0000
  H   H37       1.0  0.14040183850874408  0.881809212024045  0.3992572991173305  1.0000
  H   H38       1.0  0.10862315489453063  0.8031798229187571  0.29388827473183454  1.0000
  H   H39       1.0  0.15454313800189806  0.7893846967521083  0.3830839632211465  1.0000
  H   H40       1.0  0.8861529760276028  0.2061467473817657  0.690041754898495  1.0000
  H   H41       1.0  0.8410736631264087  0.1211942813789122  0.5837643399457807  1.0000
  H   H42       1.0  0.8169972790182314  0.2085250048918752  0.6001792302311844  1.0000
  H   H43       1.0  0.27195852208289045  0.5628996325785494  0.4412216486502204  1.0000
  H   H44       1.0  0.19103416702848355  0.5240166355776805  0.33385249490432056  1.0000
  H   H45       1.0  0.2387109802983075  0.6322141702873977  0.41173354967644843  1.0000
  H   H46       1.0  0.8044106722453179  0.6169933360977211  0.7417175273591642  1.0000
  H   H47       1.0  0.7517749094933421  0.5506092685716766  0.6279188736988105  1.0000
  H   H48       1.0  0.8437106442557364  0.547323512183979  0.6959415775394221  1.0000
  C   C1        1.0  0.9757312510221111  0.8731023840363716  0.36882942427731535  1.0000
  C   C2        1.0  0.1404630315629518  0.09410254605091949  0.5028242593323713  1.0000
  C   C3        1.0  0.6409826695099169  0.591677866799955  0.5014972306289849  1.0000
  C   C4        1.0  0.40424317244718827  0.35338961839440225  0.45701797130274013  1.0000
  C   C5        1.0  0.9423278418301848  0.9048641590564656  0.548667565227298  1.0000
  C   C6        1.0  0.8880710277258926  0.8386539607489567  0.5507908621840089  1.0000
  C   C7        1.0  0.20004620648033006  0.14358952960892413  0.48949821169010493  1.0000
  C   C8        1.0  0.7129914940988157  0.6559099722063664  0.5157688909311632  1.0000
  C   C9        1.0  0.9939908984413395  0.1314637484951149  0.5832232245183352  1.0000
  C   C10       1.0  0.3464603578194385  0.2860371657657623  0.4544300863803132  1.0000
  C   C11       1.0  0.8343014752887897  0.7791475303390243  0.5418923203528581  1.0000
  C   C12       1.0  0.24733884009267362  0.18696395179544817  0.4760039917588516  1.0000
  C   C13       1.0  0.7719194464938894  0.7143937862612829  0.5292885369485704  1.0000
  C   C14       1.0  0.2993243958735405  0.23732922114816551  0.4634930974421892  1.0000
  C   C15       1.0  0.40184954709624776  0.5287054769942683  0.40676266681374784  1.0000
  C   C16       1.0  0.9155093937652978  0.6671758101839342  0.1803524438767426  1.0000
  C   C17       1.0  0.08154066434295258  0.3511675543990335  0.7699393943023127  1.0000
  C   C18       1.0  0.25144210776105075  0.5039103308804584  0.19451803829744568  1.0000
  C   C19       1.0  0.7012790119744067  0.45964467515881324  0.823306858422548  1.0000
  C   C20       1.0  0.608802113316287  0.5061698560814066  0.6390148682082428  1.0000
  C   C21       1.0  0.9573356133556458  0.6689153665645478  0.13507570186407497  1.0000
  C   C22       1.0  0.05562845579109419  0.3485093037984655  0.8270138809097463  1.0000
  C   C23       1.0  0.1659164786670999  0.4590028471097511  0.16137913529824746  1.0000
  C   C24       1.0  0.7631343939345642  0.4373370446513789  0.8148243307262536  1.0000
  C   C25       1.0  0.910617235884402  0.7467079644530372  0.22553111618233168  1.0000
  C   C26       1.0  0.07879305095844556  0.2704727891841258  0.7149157376426347  1.0000
  C   C27       1.0  0.31154250451351834  0.4881884884811214  0.25586452768258994  1.0000
  C   C28       1.0  0.6494358486745853  0.47991243583966536  0.7617296748099848  1.0000
  C   C29       1.0  0.972001176574281  0.7979239928858988  0.31063354844232555  1.0000
  C   C30       1.0  0.0032033319645919005  0.2110186027126488  0.6406865922637552  1.0000
  C   C31       1.0  0.3409164034348819  0.5358435561100947  0.3421580506132927  1.0000
  C   C32       1.0  0.6679339133381959  0.49548495744423343  0.7048038884685685  1.0000
  C   C33       1.0  0.8342361169299578  0.43262217327815483  0.8735523347587704  1.0000
  C   C34       1.0  0.09401413592529909  0.4642507096383993  0.10544186142088563  1.0000
  C   C35       1.0  0.04049341464511969  0.40626167812725805  0.886995909033182  1.0000
  C   C36       1.0  0.9762644134703463  0.6070015863349525  0.08457321234565282  1.0000
  C   C37       1.0  0.8928611378990465  0.5375147634171781  0.1929113082375836  1.0000
  C   C38       1.0  0.13494348300002204  0.500124239533129  0.8007099880921874  1.0000
  C   C39       1.0  0.265947600003308  0.5671677188546269  0.10307876052631573  1.0000
  C   C40       1.0  0.7306748397660809  0.47296257853687956  0.9645899342949138  1.0000
  C   C41       1.0  0.77666421675724  0.7044273558621441  0.0975025797715789  1.0000
  C   C42       1.0  0.23500719678727933  0.3301103312607978  0.8092268246738004  1.0000
  C   C43       1.0  0.3041005366784759  0.3760752135326014  0.13256465430414724  1.0000
  C   C44       1.0  0.5054796470297873  0.4074151234850162  0.7339067127705763  1.0000
  C   C45       1.0  0.11349398116013269  0.8146492737337353  0.3555052453577474  1.0000
  C   C46       1.0  0.8662950427217595  0.18891255540606267  0.6233743349163989  1.0000
  C   C47       1.0  0.2502110227384192  0.577122113580195  0.3897944205646058  1.0000
  C   C48       1.0  0.7863799978932279  0.5557808017984412  0.6898176993866304  1.0000
  N   N1        1.0  0.8769372670868236  0.6084578640503651  0.19531852910202477  1.0000
  N   N2        1.0  0.15198438379197646  0.26217103837068817  0.7433922982817479  1.0000
  N   N3        1.0  0.3368297882290534  0.43073086390282356  0.22213250251650163  1.0000
  N   N4        1.0  0.5779433237758909  0.48632419219998  0.7678457715353348  1.0000
  N   N5        1.0  0.8478904295196229  0.762190404228164  0.18280083207858422  1.0000
  N   N6        1.0  0.11303916597491076  0.4122403403637732  0.7547186730807028  1.0000
  N   N7        1.0  0.2949419122760801  0.5571887174325169  0.17717059170896488  1.0000
  N   N8        1.0  0.6817355772273928  0.4714066143397488  0.8871318372397288  1.0000
  O   O1        1.0  0.03394770216873864  0.9117132141249796  0.44661606689179933  1.0000
  O   O2        1.0  0.0518760631250927  0.1080750660963048  0.6110234360025617  1.0000
  O   O3        1.0  0.43373080683210213  0.4775505909692939  0.3838093945517544  1.0000
  O   O4        1.0  0.570989963118457  0.552203162304622  0.6593086807036886  1.0000
  O   O5        1.0  0.9188238547237191  0.8991266448404359  0.3404919582164895  1.0000
  O   O6        1.0  0.023270339403900796  0.9374129343194186  0.5989636159249516  1.0000
  O   O7        1.0  0.0624198920225325  0.07198881952529489  0.4557452145095057  1.0000
  O   O8        1.0  0.606817340585458  0.6140984809137322  0.5461746274918371  1.0000
  O   O9        1.0  0.9293708752236686  0.08765129457533759  0.5065232871283529  1.0000
  O   O10       1.0  0.44019346344313687  0.33626433710752207  0.41150571748372045  1.0000
  O   O11       1.0  0.9047204155956408  0.9243639098581936  0.49562926985009903  1.0000
  O   O12       1.0  0.1727400742060752  0.0775629531026851  0.5620450187613175  1.0000
  O   O13       1.0  0.6174722382764274  0.5168447564269558  0.4443264675483649  1.0000
  O   O14       1.0  0.4159157490383549  0.425275966840914  0.5060695522767988  1.0000
  O   O15       1.0  0.4226463894410415  0.5739799935228689  0.48555270329876543  1.0000
  O   O16       1.0  0.9077025250943579  0.47788179271672254  0.8894525259435401  1.0000
  O   O17       1.0  0.018876505739356647  0.4075280540566766  0.07726803547712541  1.0000
  O   O18       1.0  0.9933705848611751  0.3734411282144662  0.9113970543754848  1.0000
  O   O19       1.0  0.02696647760514987  0.6344585727089508  0.0588156998396414  1.0000
  O   O20       1.0  0.5997981226384396  0.4705705868336167  0.5652979087343656  1.0000
  O   O21       1.0  0.8233964835423392  0.3832322573124785  0.9038066099573002  1.0000
  O   O22       1.0  0.1052026323076021  0.522109916323636  0.0874657326172397  1.0000
  O   O23       1.0  0.07419737409342277  0.48546496578870796  0.9138799927076493  1.0000
  O   O24       1.0  0.9434143555543173  0.530963393161656  0.06451147618119547  1.0000
  O   O25       1.0  0.031347853272137585  0.7714935341564768  0.344001242141225  1.0000
  O   O26       1.0  0.936670774168583  0.23228331186955126  0.6170566305363396  1.0000
  O   O27       1.0  0.3149908402103136  0.597581319413287  0.367408077947488  1.0000
  O   O28       1.0  0.7364387278250674  0.4903347637341254  0.6961234825515208  1.0000
