data_image0
_chemical_formula_structural       Zn4H36C24S4N8O28
_chemical_formula_sum              "Zn4 H36 C24 S4 N8 O28"
_cell_length_a       6.333151002901175
_cell_length_b       7.704723207
_cell_length_c       20.4665
_cell_angle_alpha    90.0
_cell_angle_beta     94.1466029136549
_cell_angle_gamma    90.0

_space_group_name_H-M_alt    "P 1"
_space_group_IT_number       1

loop_
  _space_group_symop_operation_xyz
  'x, y, z'

loop_
  _atom_site_type_symbol
  _atom_site_label
  _atom_site_symmetry_multiplicity
  _atom_site_fract_x
  _atom_site_fract_y
  _atom_site_fract_z
  _atom_site_occupancy
  Zn  Zn1       1.0  0.2136395895068475  0.4067517957235296  0.2878916542104406  1.0000
  Zn  Zn2       1.0  0.786364731507298  0.9067541834147548  0.21210951740042824  1.0000
  Zn  Zn3       1.0  0.7863599820962791  0.5932412985124882  0.712106479511455  1.0000
  Zn  Zn4       1.0  0.2136411726438538  0.09324150663158547  0.7878916896334403  1.0000
  H   H1        1.0  0.084184893414573  0.4692900579108396  0.427132719246579  1.0000
  H   H2        1.0  0.9158146781885534  0.9692898497917424  0.0728673688886232  1.0000
  H   H3        1.0  0.9158083456405351  0.5307056321355006  0.5728638069733165  1.0000
  H   H4        1.0  0.08419280909959778  0.030701946539117793  0.9271348507749125  1.0000
  H   H5        1.0  0.2288377047614745  0.39339505373096967  0.5429201082839726  1.0000
  H   H6        1.0  0.7711587005676463  0.8933961435170372  0.9570803976085501  1.0000
  H   H7        1.0  0.7711602837046456  0.6066136153669603  0.4570765242049362  1.0000
  H   H8        1.0  0.2288424541724865  0.1065995465293028  0.0429221689662924  1.0000
  H   H9        1.0  0.5582679348644888  0.21963151102723086  0.558237330986131  1.0000
  H   H10       1.0  0.4417300536016313  0.7196313029081407  0.9417651647426981  1.0000
  H   H11       1.0  0.4417316367386377  0.780383647596494  0.4417617799424107  1.0000
  H   H12       1.0  0.5582663517274824  0.2803708766639943  0.05823680695980471  1.0000
  H   H13       1.0  0.5652859812107067  0.19446772580210583  0.3474750540056988  1.0000
  H   H14       1.0  0.4347183398034318  0.6944688155881733  0.1525275834151572  1.0000
  H   H15       1.0  0.4347199229404382  0.805525368433912  0.6525241986148701  1.0000
  H   H16       1.0  0.5652812317996947  0.30552687445816656  0.8474749477366857  1.0000
  H   H17       1.0  0.8310836025070216  0.06512628507460508  0.41085178643633924  1.0000
  H   H18       1.0  0.16892071850712403  0.565119587429713  0.08915036238119  1.0000
  H   H19       1.0  0.1689412992881998  0.9348823840233249  0.5891576633268301  1.0000
  H   H20       1.0  0.8310582723149267  0.434882592142415  0.9108434020150183  1.0000
  H   H21       1.0  0.9991921717302219  0.4518241481844854  0.16987819419571082  1.0000
  H   H22       1.0  0.0008105661469102  0.9518304295911904  0.33012294199215836  1.0000
  H   H23       1.0  0.0008089830099109  0.5481585628102648  0.830118997742531  1.0000
  H   H24       1.0  0.9991921717302219  0.04816006883451249  0.6698791714023643  1.0000
  H   H25       1.0  0.37263720526230776  0.7036372176322343  0.3161828464589576  1.0000
  H   H26       1.0  0.6273639494778251  0.20363872365648913  0.1838187429092315  1.0000
  H   H27       1.0  0.6273639494778251  0.2963545786986259  0.6838172770992516  1.0000
  H   H28       1.0  0.3726387883993141  0.796353072674371  0.8161809274686505  1.0000
  H   H29       1.0  0.2011549710799798  0.3316601948371555  0.1663136007508044  1.0000
  H   H30       1.0  0.7988493499341658  0.8316638804335453  0.3336875708600644  1.0000
  H   H31       1.0  0.7988509330711722  0.6683251119679028  0.8336841860597772  1.0000
  H   H32       1.0  0.2011533879429734  0.1683253200869999  0.6663145425344511  1.0000
  H   H33       1.0  0.1791161208237639  0.7342262464225084  0.26528838807819  1.0000
  H   H34       1.0  0.8208850339163688  0.23422775244675614  0.2347132012899991  1.0000
  H   H35       1.0  0.8208866170533682  0.2657694436238316  0.7347122595063453  1.0000
  H   H36       1.0  0.1791177039607703  0.7657692355047345  0.7652854918812295  1.0000
  C   C1        1.0  0.2252503163065782  0.3898374956898038  0.43700005278626725  1.0000
  C   C2        1.0  0.7747508384335547  0.8898359896655561  0.0629990935652884  1.0000
  C   C3        1.0  0.7747476721595419  0.6101659817874887  0.5629965797026415  1.0000
  C   C4        1.0  0.225253482580591  0.11016229619110617  0.9370015894422536  1.0000
  C   C5        1.0  0.3052161496009873  0.3478476679817746  0.5000938750631789  1.0000
  C   C6        1.0  0.69477867259112  0.8478487577678422  0.9999070840096635  1.0000
  C   C7        1.0  0.69477867259112  0.6521597032109978  0.4999041523896964  1.0000
  C   C8        1.0  0.3052145664639809  0.15215082599397783  9.481684683270073e-05  1.0000
  C   C9        1.0  0.49050333847293365  0.2505774637362634  0.5093671160104094  1.0000
  C   C10       1.0  0.5094930668561801  0.7505733619016934  0.99063534429542  1.0000
  C   C11       1.0  0.5094914837191808  0.7494402906977768  0.490630911442473  1.0000
  C   C12       1.0  0.49050492160994  0.24942362604980414  0.009369105846722897  1.0000
  C   C13       1.0  0.5894573170135828  0.195158211346758  0.45382880622812394  1.0000
  C   C14       1.0  0.4105359220415181  0.6951618969431477  0.04617407183502561  1.0000
  C   C15       1.0  0.4105454208635493  0.8048439682253699  0.5461718413564185  1.0000
  C   C16       1.0  0.5894509844655644  0.3048389847238297  0.953828664536104  1.0000
  C   C17       1.0  0.4955139670959383  0.23844075259328426  0.391762961772649  1.0000
  C   C18       1.0  0.5044903539182002  0.7384340549483922  0.10823869844155351  1.0000
  C   C19       1.0  0.5045014358772448  0.7615523416427408  0.6082409008158934  1.0000
  C   C20       1.0  0.4955013019998944  0.2615499539515155  0.8917592581653154  1.0000
  C   C21       1.0  0.9000767132149932  0.0488985768700587  0.5091433772361214  1.0000
  C   C22       1.0  0.0999101932920894  0.5489048582767566  0.9908618021516418  1.0000
  C   C23       1.0  0.0999371066211836  0.9511412419516886  0.490862404342721  1.0000
  C   C24       1.0  0.9000672143929548  0.4511232793985584  0.009139744474801106  1.0000
  S   S1        1.0  0.2790152321568158  0.025490857325223694  0.2164411498519243  1.0000
  S   S2        1.0  0.7209859225833171  0.5254893513009761  0.2835599509129381  1.0000
  S   S3        1.0  0.7209859225833171  0.9745022369107941  0.7835579964996313  1.0000
  S   S4        1.0  0.2790168152938222  0.4745011471247266  0.7164402080682706  1.0000
  N   N1        1.0  0.3202401197849838  0.33512040999138987  0.3839553123853392  1.0000
  N   N2        1.0  0.6797594518181427  0.835122797682615  0.11604428714652931  1.0000
  N   N3        1.0  0.6797657843661682  0.6648739821497924  0.6160429630285691  1.0000
  N   N4        1.0  0.3202306209629526  0.16487419026888253  0.8839565656572931  1.0000
  N   N5        1.0  0.7786738519336538  0.10131966834197927  0.4553522810984846  1.0000
  N   N6        1.0  0.2213241365324663  0.6013155665074092  0.04464874882036442  1.0000
  N   N7        1.0  0.2213288859434854  0.898698086092061  0.5446547183293049  1.0000
  N   N8        1.0  0.778665936248622  0.3986969963059934  0.9553457521402109  1.0000
  O   O1        1.0  0.8618344557055408  0.07376254600342237  0.5668443649043412  1.0000
  O   O2        1.0  0.138154033938541  0.5737740190307647  0.9331554752698282  1.0000
  O   O3        1.0  0.138171448445604  0.9262798686286402  0.4331671027994091  1.0000
  O   O4        1.0  0.8618328725685345  0.42626060817034517  0.0668326030014796  1.0000
  O   O5        1.0  0.1985712914866937  0.133886704594758  0.2695822018599188  1.0000
  O   O6        1.0  0.8014298632534391  0.6338864964756679  0.23041938750827035  1.0000
  O   O7        1.0  0.8014282801164329  0.8661089854515749  0.730415443258643  1.0000
  O   O8        1.0  0.1985744577606994  0.36610919357067206  0.7695832499125788  1.0000
  O   O9        1.0  0.1132449562910196  0.8907341400356683  0.19679572089872724  1.0000
  O   O10       1.0  0.886759364723126  0.3907330502496008  0.3032044735054882  1.0000
  O   O11       1.0  0.886759364723126  0.10925765629519187  0.8032030076955009  1.0000
  O   O12       1.0  0.1132386237429941  0.609257448176102  0.6967936247934007  1.0000
  O   O13       1.0  0.4707964490261034  0.9294571404581831  0.241998752471595  1.0000
  O   O14       1.0  0.5292047057140294  0.4294560506721155  0.2580023482932674  1.0000
  O   O15       1.0  0.5292047057140294  0.0705411453984794  0.7580018596899337  1.0000
  O   O16       1.0  0.4707964490261034  0.5705422351845397  0.7419943550416477  1.0000
  O   O17       1.0  0.3252254182159007  0.1352741652098643  0.1593533031279719  1.0000
  O   O18       1.0  0.6747789027982449  0.6352726591856168  0.3406488456895502  1.0000
  O   O19       1.0  0.6747789027982449  0.8647215248364757  0.8406454254662634  1.0000
  O   O20       1.0  0.3252190856678823  0.3647191371452435  0.6593536500392787  1.0000
  O   O21       1.0  0.2218877333064952  0.6744148829745242  0.3070090983981544  1.0000
  O   O22       1.0  0.778115004570644  0.17441509109361414  0.1929920377897076  1.0000
  O   O23       1.0  0.7781134214336377  0.3255808070718159  0.6929915137633743  1.0000
  O   O24       1.0  0.2218893164435016  0.8255780031424036  0.8070076680111811  1.0000
  O   O25       1.0  0.1515204596775845  0.4465442699971618  0.18206716255078703  1.0000
  O   O26       1.0  0.8484838613365611  0.946549253498702  0.3179340090600817  1.0000
  O   O27       1.0  0.8484838613365611  0.5534397389027461  0.8179301002334614  1.0000
  O   O28       1.0  0.1515204596775845  0.053438649116678484  0.6820676511541138  1.0000
