data_image0
_chemical_formula_structural       Cu2H24C30S2N8O10
_chemical_formula_sum              "Cu2 H24 C30 S2 N8 O10"
_cell_length_a       8.560974931482763
_cell_length_b       10.377299959524212
_cell_length_c       10.880620215784063
_cell_angle_alpha    84.06524553902193
_cell_angle_beta     107.28446063747977
_cell_angle_gamma    110.35001479310812

_space_group_name_H-M_alt    "P 1"
_space_group_IT_number       1

loop_
  _space_group_symop_operation_xyz
  'x, y, z'

loop_
  _atom_site_type_symbol
  _atom_site_label
  _atom_site_symmetry_multiplicity
  _atom_site_fract_x
  _atom_site_fract_y
  _atom_site_fract_z
  _atom_site_occupancy
  Cu  Cu1       1.0  1.3628799563873302e-06  0.5000081660650295  0.49999913845880434  1.0000
  Cu  Cu2       1.0  0.5000100701752859  5.885825799877833e-07  0.5000005885043779  1.0000
  H   H1        1.0  0.18746305464815552  0.8284105231704687  0.388619305500356  1.0000
  H   H2        1.0  0.8125346974721808  0.17159498264533826  0.6113881995434411  1.0000
  H   H3        1.0  0.17513833286683678  0.9501227879786853  0.2837191854025464  1.0000
  H   H4        1.0  0.8248425148544385  0.04987451867008017  0.716284520659116  1.0000
  H   H5        1.0  0.06187908334552362  0.5593126138321338  0.2479140274613911  1.0000
  H   H6        1.0  0.9381532389688376  0.4406958846555754  0.7520889620723283  1.0000
  H   H7        1.0  0.07754711075579483  0.08895569336453243  0.33517359724432083  1.0000
  H   H8        1.0  0.922426503097256  0.9110472897790629  0.6648207049520638  1.0000
  H   H9        1.0  0.37049288005896125  0.9103135806702769  0.9361309796568167  1.0000
  H   H10       1.0  0.6295020971829431  0.08968508717337191  0.06387153988053743  1.0000
  H   H11       1.0  0.14109866580099614  0.4507199516019895  0.09122628032568512  1.0000
  H   H12       1.0  0.8589320900273589  0.5492880703242733  0.9087827931134885  1.0000
  H   H13       1.0  0.47548516784600264  0.8743929311429067  0.7547222975233298  1.0000
  H   H14       1.0  0.5245106441619001  0.1255992414167011  0.24528532252695365  1.0000
  H   H15       1.0  0.0049757585073421946  0.21458353098778818  0.48126478307074205  1.0000
  H   H16       1.0  0.995010358592225  0.7854283346239374  0.5187229915198657  1.0000
  H   H17       1.0  0.5614730926781704  0.5994204549588248  0.6404081403808066  1.0000
  H   H18       1.0  0.43851961695011005  0.40056952783251637  0.3595868370584797  1.0000
  H   H19       1.0  0.3822473060078338  0.5025998950145907  0.5135615809546439  1.0000
  H   H20       1.0  0.6177604305625266  0.49739993004637745  0.4864421873101963  1.0000
  H   H21       1.0  0.2099802832705606  0.23378707202558502  0.7100992659373306  1.0000
  H   H22       1.0  0.7900157085009738  0.7662079016577509  0.2898981404167813  1.0000
  H   H23       1.0  0.3183448770371342  0.1812517916040477  0.5386080404822026  1.0000
  H   H24       1.0  0.6816478549369337  0.8187412000882403  0.46138772989179716  1.0000
  C   C1        1.0  0.23874441528832344  0.10829418406708413  0.9491979136045785  1.0000
  C   C2        1.0  0.7612544004351064  0.891707695734375  0.050803566092561356  1.0000
  C   C3        1.0  0.16192841223809046  0.1891400079531707  0.11278813975830813  1.0000
  C   C4        1.0  0.838073702158795  0.8108643342004456  0.887222333896162  1.0000
  C   C5        1.0  0.11525711598733326  0.25898617372210014  0.199343744901377  1.0000
  C   C6        1.0  0.8847389593517575  0.741015298124239  0.8006626052993655  1.0000
  C   C7        1.0  0.3259025002023889  0.4936407877360977  0.6923933676721392  1.0000
  C   C8        1.0  0.6740979665719777  0.5063467967059195  0.3075944147923694  1.0000
  C   C9        1.0  0.06796062328719189  0.45559868175105583  0.2623808052638523  1.0000
  C   C10       1.0  0.9320530478612953  0.544405993649967  0.7376140755984012  1.0000
  C   C11       1.0  0.2890560260109111  0.0797786692335265  0.840662346949806  1.0000
  C   C12       1.0  0.71094207838744  0.9202154142921941  0.15933377688445208  1.0000
  C   C13       1.0  0.3801444298150685  0.7011098167024983  0.53786088388447  1.0000
  C   C14       1.0  0.619869317134558  0.29889198608950807  0.46213137971625434  1.0000
  C   C15       1.0  0.07526410325649378  0.19285957473593382  0.3110214961165525  1.0000
  C   C16       1.0  0.9247255073766992  0.8071435387150814  0.6889748978527237  1.0000
  C   C17       1.0  0.35906352234680844  0.9739998466982488  0.8502256119395781  1.0000
  C   C18       1.0  0.6409358482812169  0.025988767072298895  0.14977567307751383  1.0000
  C   C19       1.0  0.1096101986612936  0.3931942788677816  0.17537305369864953  1.0000
  C   C20       1.0  0.8904185917606285  0.6068148376540066  0.8246345657701398  1.0000
  C   C21       1.0  0.4169333518508438  0.953154104583959  0.7501077774306426  1.0000
  C   C22       1.0  0.5830611924937087  0.046832050634094485  0.24989795551179134  1.0000
  C   C23       1.0  0.03602996804672642  0.26275280307744003  0.393604015917397  1.0000
  C   C24       1.0  0.9639672481302666  0.7372536572422844  0.6063904176001671  1.0000
  C   C25       1.0  0.42218784286585986  0.5731278487538702  0.5942986459829174  1.0000
  C   C26       1.0  0.5778176391557039  0.42688585323313083  0.4056827618932531  1.0000
  C   C27       1.0  0.2707951659687993  0.15475443651263987  0.7256911948799998  1.0000
  C   C28       1.0  0.7291936619200784  0.8452378036157099  0.2742999624551104  1.0000
  C   C29       1.0  0.3300076422524826  0.12599614764562259  0.6294976551680522  1.0000
  C   C30       1.0  0.6699896439100783  0.8740019026242862  0.370499933195788  1.0000
  S   S1        1.0  0.2088315514673766  0.259882562622856  0.9716514619781906  1.0000
  S   S2        1.0  0.7911807378578075  0.7401108339189975  0.02835739835149556  1.0000
  N   N1        1.0  0.4059381263186168  0.029427520670871794  0.6419433948397781  1.0000
  N   N2        1.0  0.5940525873108271  0.9705647933613833  0.35807493905102933  1.0000
  N   N3        1.0  0.03416401687733383  0.39234722402613204  0.3707660368998519  1.0000
  N   N4        1.0  0.9658469464300763  0.607659640105588  0.6292262372600776  1.0000
  N   N5        1.0  0.1734077148496667  0.0638826062115427  0.13566749829431765  1.0000
  N   N6        1.0  0.8265896650779254  0.9361215300062469  0.8643307637755202  1.0000
  N   N7        1.0  0.2169780605969862  0.018467001718278198  0.043858849778473506  1.0000
  N   N8        1.0  0.7830147369807465  0.9815235295801304  0.9561425734746296  1.0000
  O   O1        1.0  0.5031211731485429  0.815560459116931  0.5734984944085397  1.0000
  O   O2        1.0  0.4968926501193991  0.18443081730053731  0.42651175922161155  1.0000
  O   O3        1.0  0.23305897794755023  0.6886300723146731  0.4602860209006396  1.0000
  O   O4        1.0  0.7669563048956859  0.31137344368417524  0.5397249692165289  1.0000
  O   O5        1.0  0.4122496964162963  0.4797884959725494  0.8040826843132438  1.0000
  O   O6        1.0  0.5877357394704036  0.5202279530363968  0.19591208845734806  1.0000
  O   O7        1.0  0.15853850869406474  0.4365867255059115  0.6504565855085858  1.0000
  O   O8        1.0  0.8414600553293211  0.5634169298904297  0.3495346198224709  1.0000
  O   O9        1.0  0.17832473037749016  0.92205374640475  0.3736337073600709  1.0000
  O   O10       1.0  0.8216515096999402  0.0779443831763587  0.6263715909079864  1.0000
