data_image0
_chemical_formula_structural       Cu2H16C14O14
_chemical_formula_sum              "Cu2 H16 C14 O14"
_cell_length_a       6.717894207233501
_cell_length_b       7.843462162229279
_cell_length_c       11.120821793793336
_cell_angle_alpha    69.92900680757954
_cell_angle_beta     71.39705727823936
_cell_angle_gamma    67.30901112364931

_space_group_name_H-M_alt    "P 1"
_space_group_IT_number       1

loop_
  _space_group_symop_operation_xyz
  'x, y, z'

loop_
  _atom_site_type_symbol
  _atom_site_label
  _atom_site_symmetry_multiplicity
  _atom_site_fract_x
  _atom_site_fract_y
  _atom_site_fract_z
  _atom_site_occupancy
  Cu  Cu1       1.0  0.4661406705481356  0.2354309913819606  0.4466447427914062  1.0000
  Cu  Cu2       1.0  0.533859801154094  0.7645628321321708  0.5533566052335743  1.0000
  H   H1        1.0  0.22111430628346085  0.8756801835146818  0.8294047290383375  1.0000
  H   H2        1.0  0.778876834977531  0.1243379422391229  0.17059214789896524  1.0000
  H   H3        1.0  0.10991953093471112  0.7485997521192188  0.0701545628919504  1.0000
  H   H4        1.0  0.890079745115422  0.25141249865207976  0.9298432156369358  1.0000
  H   H5        1.0  0.569961857137578  0.5116757267291518  0.2819219753207918  1.0000
  H   H6        1.0  0.43003421812156983  0.48832677823294557  0.7180797698576099  1.0000
  H   H7        1.0  0.3513323596767109  0.5103852446402045  0.2651665920337649  1.0000
  H   H8        1.0  0.6486419609340787  0.48962983925309084  0.734851238182209  1.0000
  H   H9        1.0  0.8105581289626753  0.13265267757547147  0.5324453310156088  1.0000
  H   H10       1.0  0.1894417165155533  0.8673580399731619  0.4675500342939927  1.0000
  H   H11       1.0  0.893126595086166  0.11030154872641161  0.3870977361873003  1.0000
  H   H12       1.0  0.1068768180315872  0.8896978276436938  0.6129016592247182  1.0000
  H   H13       1.0  0.0515865345547084  0.2964038472406614  0.5501514101538092  1.0000
  H   H14       1.0  0.9484147467634972  0.703577346315484  0.4498557016159026  1.0000
  H   H15       1.0  0.07861076850547731  0.4159214084239764  0.398986087751851  1.0000
  H   H16       1.0  0.9213766922305313  0.5840213193669684  0.6010126562116298  1.0000
  C   C1        1.0  0.4250358067838321  0.13622793938147026  0.7085319734786353  1.0000
  C   C2        1.0  0.5749726603614322  0.8637798829700287  0.29146794396326914  1.0000
  C   C3        1.0  0.4250556298614684  0.015725045254690408  0.845980964109792  1.0000
  C   C4        1.0  0.5749454745668886  0.9842770574809591  0.1540136632432549  1.0000
  C   C5        1.0  0.2920656841772383  0.8987507877514317  0.895574370193117  1.0000
  C   C6        1.0  0.7079376402715954  0.10125854330944149  0.10442430789804286  1.0000
  C   C7        1.0  0.2312464586606923  0.8251457957145547  0.03127205012090433  1.0000
  C   C8        1.0  0.7687582701385128  0.17485922017148428  0.9687265685759883  1.0000
  C   C9        1.0  0.3025550279953322  0.868476620729375  0.11792668902799618  1.0000
  C   C10       1.0  0.6974527308883154  0.13152399332189188  0.8820706943767931  1.0000
  C   C11       1.0  0.5315533005388745  0.03758663323098691  0.93030824382177  1.0000
  C   C12       1.0  0.4684588106773902  0.962410776616686  0.06968285888169125  1.0000
  C   C13       1.0  0.17369505344289857  0.8407725411456467  0.25702010474893916  1.0000
  C   C14       1.0  0.8263133442856018  0.15923091044439996  0.7429773390647654  1.0000
  O   O1        1.0  0.4346822269328429  0.055271927948084  0.621932716505178  1.0000
  O   O2        1.0  0.565335665376715  0.9447258109310255  0.37807073573289773  1.0000
  O   O3        1.0  0.4043378701482184  0.3108578083237674  0.6803364819437192  1.0000
  O   O4        1.0  0.595662392791141  0.6891515182487852  0.31966006027839455  1.0000
  O   O5        1.0  0.13112834881831503  0.9687523613594565  0.31537049927394617  1.0000
  O   O6        1.0  0.8688756590338259  0.0312553297938152  0.6846230729990808  1.0000
  O   O7        1.0  0.10409407322556778  0.6949789301711036  0.3075692978929183  1.0000
  O   O8        1.0  0.8959153048254506  0.30502603910494486  0.6924311783081123  1.0000
  O   O9        1.0  0.5025452851180817  0.4230252325969985  0.2736950057152399  1.0000
  O   O10       1.0  0.49743573495445076  0.576984884963508  0.7263093645504809  1.0000
  O   O11       1.0  0.77662530289102  0.19331544561948286  0.443027612563732  1.0000
  O   O12       1.0  0.22337372035037373  0.8066881703138478  0.556967911307602  1.0000
  O   O13       1.0  0.14806805228368353  0.2974052043388014  0.4580104671658916  1.0000
  O   O14       1.0  0.8519325714500924  0.7025588617879847  0.541995725420513  1.0000
