data_image0
_chemical_formula_structural       Cu4H36C28S4I4N4
_chemical_formula_sum              "Cu4 H36 C28 S4 I4 N4"
_cell_length_a       7.606832810305094
_cell_length_b       9.394460371593885
_cell_length_c       14.780963094006822
_cell_angle_alpha    90.00007117815784
_cell_angle_beta     89.99989381305595
_cell_angle_gamma    110.77521350310504

_space_group_name_H-M_alt    "P 1"
_space_group_IT_number       1

loop_
  _space_group_symop_operation_xyz
  'x, y, z'

loop_
  _atom_site_type_symbol
  _atom_site_label
  _atom_site_symmetry_multiplicity
  _atom_site_fract_x
  _atom_site_fract_y
  _atom_site_fract_z
  _atom_site_occupancy
  Cu  Cu1       1.0  0.5293039918185015  0.13424945574253394  0.462671948419647  1.0000
  Cu  Cu2       1.0  0.47069477575750795  0.8657508314487005  0.9626728417018168  1.0000
  Cu  Cu3       1.0  0.47069689829834255  0.8657449248514838  0.5373284334878291  1.0000
  Cu  Cu4       1.0  0.5293056379395296  0.1342515109505342  0.0373282167549789  1.0000
  H   H1        1.0  0.50087408803671  0.0955621373140545  0.2500004191781214  1.0000
  H   H2        1.0  0.4991268214738369  0.9044413435648481  0.7500013158247966  1.0000
  H   H3        1.0  0.8853907748426264  0.011002270669664  0.39657386807197526  1.0000
  H   H4        1.0  0.11461231500615558  0.9890013680732398  0.8965745294609488  1.0000
  H   H5        1.0  0.11461127864008366  0.9889977998041606  0.6034265138372206  1.0000
  H   H6        1.0  0.8853895861365971  0.011004389763243699  0.10342517590469667  1.0000
  H   H7        1.0  0.6702032467924325  0.9247627564397688  0.3372757668027119  1.0000
  H   H8        1.0  0.3298000255440315  0.07524082047386571  0.8372768403981677  1.0000
  H   H9        1.0  0.3297997983204083  0.07523959099233932  0.662723938561008  1.0000
  H   H10       1.0  0.6702013797831442  0.9247637988836533  0.16272354151315935  1.0000
  H   H11       1.0  0.9694044100279696  0.9312365572423005  0.2499984965908978  1.0000
  H   H12       1.0  0.030597815194639097  0.06876692615163188  0.7499998556818779  1.0000
  H   H13       1.0  0.041831468066384  0.12991906237701303  0.24999930282898922  1.0000
  H   H14       1.0  0.9581720728610036  0.8700844235344148  0.7500004025349509  1.0000
  H   H15       1.0  0.2867101400094114  0.21401875684525604  0.25000057064605125  1.0000
  H   H16       1.0  0.7132887862419036  0.7859801701167228  0.750001840901909  1.0000
  H   H17       1.0  0.19511580215250746  0.4449852733153676  0.24999935453708125  1.0000
  H   H18       1.0  0.8048778612755354  0.5550136435780358  0.7500003508298291  1.0000
  H   H19       1.0  0.4442797041328602  0.7026223637944683  0.24999933667336183  1.0000
  H   H20       1.0  0.5557152750030809  0.29737655561537923  0.7499996921469998  1.0000
  H   H21       1.0  0.7834752173137645  0.7263596689343358  0.24999985795721352  1.0000
  H   H22       1.0  0.21651680633068787  0.27364151988377466  0.749999170865493  1.0000
  H   H23       1.0  0.8701479151816471  0.49696945600315706  0.2500004005422482  1.0000
  H   H24       1.0  0.12985085873076227  0.5030351583211328  0.75000065791626  1.0000
  H   H25       1.0  0.23370746808365786  0.5324795844860972  0.4481718431741512  1.0000
  H   H26       1.0  0.7662895325966019  0.4675195465892656  0.9481714537923689  1.0000
  H   H27       1.0  0.7662868435009642  0.46751478352327075  0.5518271856447186  1.0000
  H   H28       1.0  0.23371597219630758  0.5324793929542083  0.051826221931086984  1.0000
  H   H29       1.0  0.20145103339704917  0.48624783987811776  0.5657764909160219  1.0000
  H   H30       1.0  0.7985487838789068  0.5137486205528176  0.06577631654411677  1.0000
  H   H31       1.0  0.7985531362880138  0.5137419968661447  0.43422456753394545  1.0000
  H   H32       1.0  0.20145376542043178  0.4862525883996227  0.934222712273488  1.0000
  H   H33       1.0  0.04151550032957369  0.36650339221803563  0.4853555093554362  1.0000
  H   H34       1.0  0.9584800702121822  0.6334957751115055  0.9853550661855546  1.0000
  H   H35       1.0  0.958488173541987  0.6334853060465592  0.5146448725484163  1.0000
  H   H36       1.0  0.0415170639208071  0.3665111111360773  0.014642609545148797  1.0000
  C   C1        1.0  0.6289366123223628  0.19828385050910668  0.25000039810512925  1.0000
  C   C2        1.0  0.37106429718817663  0.8017196303698028  0.7500013368977887  1.0000
  C   C3        1.0  0.8055427162134519  0.0203990709907913  0.3363234388267528  1.0000
  C   C4        1.0  0.19446055905453363  0.9796045049296042  0.836324015115778  1.0000
  C   C5        1.0  0.1944603288993889  0.9796032764413172  0.6636762665369671  1.0000
  C   C6        1.0  0.8055416661659932  0.0203989784650318  0.16367569024879455  1.0000
  C   C7        1.0  0.9164816959411866  0.0261316762221426  0.2499995129434324  1.0000
  C   C8        1.0  0.08352184498620109  0.9738718096892852  0.7500001924205077  1.0000
  C   C9        1.0  0.5814259478339351  0.3403308648348328  0.2500011546121853  1.0000
  C   C10       1.0  0.4185736459687063  0.6596726135276396  0.7500012569372743  1.0000
  C   C11       1.0  0.392909618284456  0.32775886141517674  0.25000056460554276  1.0000
  C   C12       1.0  0.6070876681832756  0.6722423374715092  0.7500011703982209  1.0000
  C   C13       1.0  0.3432869777271249  0.45709902839546146  0.2500006405041829  1.0000
  C   C14       1.0  0.6567061898842892  0.5428987500193329  0.7500004179543109  1.0000
  C   C15       1.0  0.4834675018674445  0.601594717934596  0.2500006302730354  1.0000
  C   C16       1.0  0.5165256657450071  0.3984030604798506  0.7499997516395565  1.0000
  C   C17       1.0  0.6725276426152857  0.6148298045745336  0.24999986718924555  1.0000
  C   C18       1.0  0.3274656967329079  0.3851713867614208  0.7500011912705273  1.0000
  C   C19       1.0  0.7220722685501426  0.48530748342074753  0.2500011443473582  1.0000
  C   C20       1.0  0.27792518965332386  0.5146971283874534  0.7500012672035864  1.0000
  C   C21       1.0  0.3040951876431208  0.3456917621934963  0.48985981608230117  1.0000
  C   C22       1.0  0.695899377405162  0.6543051328748463  0.989860997773121  1.0000
  C   C23       1.0  0.6959099930730586  0.6543094517914624  0.5101371830963257  1.0000
  C   C24       1.0  0.3040924551098598  0.3456835427368646  0.0101360014069627  1.0000
  C   C25       1.0  0.18904554050999411  0.4383226481778379  0.49725590885672927  1.0000
  C   C26       1.0  0.8109513091153246  0.5616765340769518  0.9972555514949162  1.0000
  C   C27       1.0  0.8109566653157928  0.5616717349322684  0.5027431199583032  1.0000
  C   C28       1.0  0.18905024855804703  0.4383223979157905  0.0027414476845492993  1.0000
  S   S1        1.0  0.7575304085539187  0.19454398140734952  0.3538345694510595  1.0000
  S   S2        1.0  0.24247018141060292  0.8054596077380299  0.8538349596246916  1.0000
  S   S3        1.0  0.2424721407422935  0.8054572275461424  0.6461664890042511  1.0000
  S   S4        1.0  0.7575299082086671  0.19454500910305234  0.14616609883317716  1.0000
  I   I1        1.0  0.7405129420807838  0.11824466331835028  0.6017459976351417  1.0000
  I   I2        1.0  0.2594864404209503  0.8817541090598767  0.10174664170566668  1.0000
  I   I3        1.0  0.25948893966514663  0.8817519942343067  0.39825438427276777  1.0000
  I   I4        1.0  0.7405134774625777  0.11824709485969012  0.8982537402050139  1.0000
  N   N1        1.0  0.3949260132473497  0.2690901355358903  0.4836118398859524  1.0000
  N   N2        1.0  0.6050703825511263  0.7309078940135905  0.9836124946242604  1.0000
  N   N3        1.0  0.6050803114389183  0.7309076680447003  0.5163851592907489  1.0000
  N   N4        1.0  0.3949239290355776  0.2690864739950669  0.016385181102805294  1.0000
