data_image0
_chemical_formula_structural       Al2H4C20S2Cl6O10
_chemical_formula_sum              "Al2 H4 C20 S2 Cl6 O10"
_cell_length_a       6.592184246082209
_cell_length_b       11.206981664436245
_cell_length_c       12.713279398790903
_cell_angle_alpha    79.0527984437421
_cell_angle_beta     75.09711123690393
_cell_angle_gamma    71.78072381120994

_space_group_name_H-M_alt    "P 1"
_space_group_IT_number       1

loop_
  _space_group_symop_operation_xyz
  'x, y, z'

loop_
  _atom_site_type_symbol
  _atom_site_label
  _atom_site_symmetry_multiplicity
  _atom_site_fract_x
  _atom_site_fract_y
  _atom_site_fract_z
  _atom_site_occupancy
  Al  Al1       1.0  0.49113934007758797  0.49757256168670955  0.49835976198634324  1.0000
  Al  Al2       1.0  0.9895272582667332  0.5017452923098418  0.497468578226659  1.0000
  H   H1        1.0  0.2840577972587112  0.34480510424972277  0.5683025953273741  1.0000
  H   H2        1.0  0.7623269944975704  0.5782757274225786  0.36506819668093726  1.0000
  H   H3        1.0  0.2337538541269809  0.24432034188200183  0.3644995781753977  1.0000
  H   H4        1.0  0.4721890912021606  0.7758911622955723  0.37857541139432266  1.0000
  C   C1        1.0  0.8532957076112453  0.2730265420206734  0.4935276474204855  1.0000
  C   C2        1.0  0.6557404729193619  0.49357044314317017  0.6917214115811064  1.0000
  C   C3        1.0  0.13314114664959936  0.7228183081010541  0.5049485469338678  1.0000
  C   C4        1.0  0.3234002929950961  0.5115351534659213  0.3000100995548466  1.0000
  C   C5        1.0  0.4292334580138261  0.4484565974457553  0.8859222460880931  1.0000
  C   C6        1.0  0.5456658148656501  0.5611266302489354  0.1055944717372128  1.0000
  C   C7        1.0  0.5877570867754401  0.49658789482787563  0.8106511833045078  1.0000
  C   C8        1.0  0.38743643089394914  0.5127606170793017  0.1808076982709821  1.0000
  C   C9        1.0  0.5611321963916538  0.5378536077296728  0.9978221852832975  1.0000
  C   C10       1.0  0.41400433093089356  0.47225028830492016  0.9934822641341795  1.0000
  C   C11       1.0  0.929371739381196  0.13163586966689414  0.49591922350356304  1.0000
  C   C12       1.0  0.13877897034196712  0.07160432959133799  0.43367039499511156  1.0000
  C   C13       1.0  0.7963711161789248  0.0590589307008358  0.5606923987705984  1.0000
  C   C14       1.0  0.2823699213071151  0.14184340795260647  0.3686902540243011  1.0000
  C   C15       1.0  0.4873410004096499  0.08226825503333397  0.3124745284141923  1.0000
  C   C16       1.0  0.0636356714467326  0.8643527306726636  0.5019967173897371  1.0000
  C   C17       1.0  0.8626518196025049  0.9249568511451686  0.5630940336877757  1.0000
  C   C18       1.0  0.20705518493002043  0.9363457940623119  0.437223193416962  1.0000
  C   C19       1.0  0.41614902074308446  0.8781032717695041  0.37589347329522843  1.0000
  C   C20       1.0  0.5551766011799941  0.9481681489439281  0.3161384755035925  1.0000
  S   S1        1.0  0.7191080418028479  0.5694778559599101  0.8713044312216526  1.0000
  S   S2        1.0  0.25557715504618267  0.4408096176180152  0.11972219336491464  1.0000
  Cl  Cl1       1.0  0.27265167988635836  0.36703271893576084  0.8588440205328354  1.0000
  Cl  Cl2       1.0  0.6982411769805098  0.6448128132771772  0.13367835533362885  1.0000
  Cl  Cl3       1.0  0.6947044305445756  0.8396436597878321  0.6473956294416824  1.0000
  Cl  Cl4       1.0  0.5541727579719904  0.12769353645425952  0.646042591594238  1.0000
  Cl  Cl5       1.0  0.6607355496573674  0.17061109230062496  0.2391697639337806  1.0000
  Cl  Cl6       1.0  0.8120397745526091  0.8722381253139488  0.2475054820764342  1.0000
  O   O1        1.0  0.6687241918571302  0.32862299317963556  0.46899681099628054  1.0000
  O   O2        1.0  0.8330479892285323  0.5223124098484677  0.6445900606657914  1.0000
  O   O3        1.0  0.008254136724602353  0.6723326049527785  0.47891879285946004  1.0000
  O   O4        1.0  0.44853806593364004  0.5370718487166429  0.3486863322098658  1.0000
  O   O5        1.0  0.3161456301217314  0.6642958612949669  0.53020855024198  1.0000
  O   O6        1.0  0.14420073359808327  0.4835748303822953  0.346297704370322  1.0000
  O   O7        1.0  0.9787220051959762  0.325866888428969  0.5169006214683733  1.0000
  O   O8        1.0  0.5348646161828013  0.46276521289529166  0.6443091558608103  1.0000
  O   O9        1.0  0.2505738178606691  0.4350551264304698  0.5442157790166178  1.0000
  O   O10       1.0  0.7342483315158075  0.5595291592427428  0.4444511160488816  1.0000
