data_image0
_chemical_formula_structural       Ba2H56C40O20
_chemical_formula_sum              "Ba2 H56 C40 O20"
_cell_length_a       7.148656595616083
_cell_length_b       12.98368841349896
_cell_length_c       14.952177221564831
_cell_angle_alpha    114.90601610211367
_cell_angle_beta     102.08674573868858
_cell_angle_gamma    94.17790149555233

_space_group_name_H-M_alt    "P 1"
_space_group_IT_number       1

loop_
  _space_group_symop_operation_xyz
  'x, y, z'

loop_
  _atom_site_type_symbol
  _atom_site_label
  _atom_site_symmetry_multiplicity
  _atom_site_fract_x
  _atom_site_fract_y
  _atom_site_fract_z
  _atom_site_occupancy
  Ba  Ba1       1.0  0.14624394084989228  0.3541896733116303  0.8978379958455631  1.0000
  Ba  Ba2       1.0  0.7489162074986309  0.4565085410156725  0.10169481836868494  1.0000
  H   H1        1.0  0.2661452897568424  0.3095544501752627  0.5588516141620445  1.0000
  H   H2        1.0  0.20731968882374463  0.7508958584157951  0.44110458412865217  1.0000
  H   H3        1.0  0.20513787384431473  0.3774373850102179  0.4771806549495919  1.0000
  H   H4        1.0  0.23100482330906394  0.9011643961430592  0.5239759301564246  1.0000
  H   H5        1.0  0.04015076779117517  0.35490915842001397  0.5441935422292016  1.0000
  H   H6        1.0  0.9974308065078146  0.8122247765599154  0.45660510303759577  1.0000
  H   H7        1.0  0.3566950256124172  0.5809516621322287  0.5543052239220498  1.0000
  H   H8        1.0  0.30530439103841894  0.028580823920243893  0.4482036089215241  1.0000
  H   H9        1.0  0.42258128638321313  0.6671778706878724  0.6957934387557853  1.0000
  H   H10       1.0  0.2283668732639795  0.9728489137920915  0.30681819932259896  1.0000
  H   H11       1.0  0.3501818816269235  0.6009824635181785  0.8874445009046068  1.0000
  H   H12       1.0  0.9625885022458786  0.714819903461766  0.11388220454018229  1.0000
  H   H13       1.0  0.1436506167771369  0.9340330773132165  0.6882413686304428  1.0000
  H   H14       1.0  0.9527252566062997  0.247250403637004  0.31018905058499496  1.0000
  H   H15       1.0  0.9703508741582141  0.8939519913111055  0.7406514477384504  1.0000
  H   H16       1.0  0.7279350415838548  0.15270702207136813  0.25668971300882487  1.0000
  H   H17       1.0  0.13277721280132931  0.7987098024549083  0.6935393964172076  1.0000
  H   H18       1.0  0.9388610547471712  0.10652341068855257  0.30473852384522354  1.0000
  H   H19       1.0  0.38536696675304677  0.8014119668407174  0.8345504997834678  1.0000
  H   H20       1.0  0.05312422456869109  0.9684478731908682  0.16495559219740835  1.0000
  H   H21       1.0  0.4881802510519577  0.9408179033301565  0.9511452687896875  1.0000
  H   H22       1.0  0.03954175107549662  0.9902030469724464  0.048507792628768524  1.0000
  H   H23       1.0  0.379194110875602  0.2076538848441487  0.02867627846754318  1.0000
  H   H24       1.0  0.8491069516135281  0.17763017179049  0.9701525819271237  1.0000
  H   H25       1.0  0.7898750058900247  0.41762089800204183  0.742890109571398  1.0000
  H   H26       1.0  0.5507377605681754  0.6752872849205076  0.2586936877638306  1.0000
  H   H27       1.0  0.7407510162892663  0.0238036765846346  0.5477226405034726  1.0000
  H   H28       1.0  0.6933445816947099  0.4725055515051153  0.4484646114061162  1.0000
  H   H29       1.0  0.9466374854146264  0.07580081181421149  0.5219823153948082  1.0000
  H   H30       1.0  0.925972150167297  0.5521038628876695  0.4784490839670922  1.0000
  H   H31       1.0  0.7280746009216656  0.006206646442897998  0.42121638964000846  1.0000
  H   H32       1.0  0.8031877142760422  0.5807142798225229  0.5765801981905126  1.0000
  H   H33       1.0  0.32561399656517404  0.9124848831588038  0.07171230065407026  1.0000
  H   H34       1.0  0.7533683619392022  0.8413907219929229  0.9300356200486632  1.0000
  H   H35       1.0  0.2239727008381323  0.7606074782738901  0.9757367918393738  1.0000
  H   H36       1.0  0.7467041561448866  0.7853127396714965  0.025072692386018416  1.0000
  H   H37       1.0  0.7242744065503643  0.8559252642406888  0.21423448250902047  1.0000
  H   H38       1.0  0.012976087484346987  0.6426069940783492  0.7885998581842839  1.0000
  H   H39       1.0  0.5338316853347178  0.85479475549765  0.27269874204291233  1.0000
  H   H40       1.0  0.763686676619983  0.5829062059041094  0.7288327701038282  1.0000
  H   H41       1.0  0.5648072275627242  0.9569439817190497  0.224085034329647  1.0000
  H   H42       1.0  0.8446649686820604  0.7343315954138134  0.7791102963088077  1.0000
  H   H43       1.0  0.3870993607670669  0.2319952387216162  0.6887665776810008  1.0000
  H   H44       1.0  0.2035544317044398  0.543380059412776  0.312584312830104  1.0000
  H   H45       1.0  0.2393406551324517  0.1366136695735207  0.7124247774498185  1.0000
  H   H46       1.0  0.02964781458982197  0.42418563108459034  0.2869498658231108  1.0000
  H   H47       1.0  0.3567174896516789  0.07953935103951439  0.6130594944146778  1.0000
  H   H48       1.0  0.24732824153226562  0.4646227297218458  0.3859606579022099  1.0000
  H   H49       1.0  0.5783707308332993  0.9723442356806797  0.6708544262347613  1.0000
  H   H50       1.0  0.40867809249719034  0.298940848605504  0.3256778345407908  1.0000
  H   H51       1.0  0.763443622794874  0.0502056982145618  0.7966481367573832  1.0000
  H   H52       1.0  0.4662752199685656  0.25146490469044375  0.19990539597677776  1.0000
  H   H53       1.0  0.558935564844866  0.1457328794031838  0.3819127562620749  1.0000
  H   H54       1.0  0.6747301711523264  0.7600590575347679  0.6175488076253327  1.0000
  H   H55       1.0  0.5698087015021827  0.2917792277153808  0.4872460299851296  1.0000
  H   H56       1.0  0.583221113465832  0.8026074752258906  0.5137288419056033  1.0000
  C   C1        1.0  0.2890078986526489  0.5003409035085793  0.740917002781799  1.0000
  C   C2        1.0  0.04914297621644435  0.7603820515101558  0.2601219543511488  1.0000
  C   C3        1.0  0.28408722452974183  0.4932429497312539  0.6380437620875197  1.0000
  C   C4        1.0  0.14770841084945363  0.8563733795641041  0.36347984334861366  1.0000
  C   C5        1.0  0.19455449906486413  0.3777536127882683  0.5493517820338452  1.0000
  C   C6        1.0  0.14682602425308028  0.8293204646879175  0.45147484707711527  1.0000
  C   C7        1.0  0.3574212954013942  0.5853257550602889  0.6288238003276232  1.0000
  C   C8        1.0  0.23074333219190626  0.9580942368209477  0.3734916009698991  1.0000
  C   C9        1.0  0.2652363157210047  0.07264224179301948  0.8987017830389801  1.0000
  C   C10       1.0  0.865547302429043  0.17364771029502177  0.09989052445045127  1.0000
  C   C11       1.0  0.2628720122211803  0.9472203472370423  0.8379073969827642  1.0000
  C   C12       1.0  0.9246586361665621  0.10972430845465908  0.16072612794349786  1.0000
  C   C13       1.0  0.12035201085962645  0.8895161675113099  0.7343724925666136  1.0000
  C   C14       1.0  0.8846695087591171  0.1558377379571283  0.2637732128333709  1.0000
  C   C15       1.0  0.38555529114068304  0.8934072506294227  0.8760910242421714  1.0000
  C   C16       1.0  0.0109818893157012  0.0181370871545852  0.12314393494746409  1.0000
  C   C17       1.0  0.7927953907648442  0.2637843656351109  0.6404878958935214  1.0000
  C   C18       1.0  0.6556509549395456  0.6224954119713502  0.3596474437232544  1.0000
  C   C19       1.0  0.7230620812216841  0.17893312089480415  0.5300378482272234  1.0000
  C   C20       1.0  0.6939699084691069  0.6467171852010267  0.46944023905287197  1.0000
  C   C21       1.0  0.6244671386367243  0.24808146466365594  0.8646331820279297  1.0000
  C   C22       1.0  0.2603148278139357  0.38327058766699196  0.13468671107432326  1.0000
  C   C23       1.0  0.5482216579748211  0.1430499073081037  0.7635588495985245  1.0000
  C   C24       1.0  0.28613103756397607  0.3785611212188158  0.23504897471349295  1.0000
  C   C25       1.0  0.7869898830190608  0.0645896097182401  0.5027420311791602  1.0000
  C   C26       1.0  0.7838464901673419  0.5588217802073103  0.4956218289925046  1.0000
  C   C27       1.0  0.43259165964348506  0.6579159133105037  0.0754887085253769  1.0000
  C   C28       1.0  0.8578993595305132  0.5831439892679882  0.9257077820056591  1.0000
  C   C29       1.0  0.43891891858953597  0.7848448215569306  0.10839718375755326  1.0000
  C   C30       1.0  0.831969760791786  0.6772397368137318  0.8932955920819337  1.0000
  C   C31       1.0  0.3242367816182393  0.8207817386573097  0.048352118493426036  1.0000
  C   C32       1.0  0.7756708194972288  0.7730613609327505  0.9530590884611169  1.0000
  C   C33       1.0  0.5725482745737906  0.867585666734186  0.2102889382726757  1.0000
  C   C34       1.0  0.8650703154179383  0.6582738176530682  0.7920756880791938  1.0000
  C   C35       1.0  0.3740308149775088  0.148093493154775  0.6904299110780413  1.0000
  C   C36       1.0  0.18692466525069307  0.4570049111498803  0.309225467089753  1.0000
  C   C37       1.0  0.634350461113428  0.050352528688478095  0.7430540611689691  1.0000
  C   C38       1.0  0.3919778601731706  0.3054074038810057  0.25409483003708994  1.0000
  C   C39       1.0  0.6110185472037415  0.20695681582986936  0.4626465698752041  1.0000
  C   C40       1.0  0.648081053635643  0.7416734617850551  0.5373301484424714  1.0000
  O   O1        1.0  0.23826654999739108  0.412825019804245  0.7500627785750635  1.0000
  O   O2        1.0  0.9900904471900774  0.6629674817340855  0.24991344564230622  1.0000
  O   O3        1.0  0.3482753412872199  0.6050638750713588  0.8192047549982815  1.0000
  O   O4        1.0  0.028696306577010843  0.7874468425279912  0.18265229050322754  1.0000
  O   O5        1.0  0.1620369766837513  0.12610364247515088  0.8625495194025773  1.0000
  O   O6        1.0  0.7982988221164787  0.26346511946542245  0.13596616400262457  1.0000
  O   O7        1.0  0.3842857546743517  0.12116285667657681  0.9925756564082346  1.0000
  O   O8        1.0  0.8903740606038184  0.12755023265899718  0.0061154019212281835  1.0000
  O   O9        1.0  0.7350705087558254  0.36507856732488614  0.6652233330147722  1.0000
  O   O10       1.0  0.5740617599477671  0.6998608026519546  0.3360374516153397  1.0000
  O   O11       1.0  0.8963700475146226  0.2383680793972829  0.7028691539305141  1.0000
  O   O12       1.0  0.6975944973854665  0.5350261289285142  0.2967484049617821  1.0000
  O   O13       1.0  0.7958911574784507  0.2601352464808144  0.9216088441584771  1.0000
  O   O14       1.0  0.3741870741904023  0.33862687767405214  0.07741476371941755  1.0000
  O   O15       1.0  0.5180848515546757  0.3232824805541199  0.892142938474329  1.0000
  O   O16       1.0  0.12627761965304524  0.4312254083904817  0.10799632770394388  1.0000
  O   O17       1.0  0.3509687700998967  0.5848824374928157  0.9827053421277722  1.0000
  O   O18       1.0  0.8687190190631638  0.6031787294019892  0.018228245573070005  1.0000
  O   O19       1.0  0.5117402189735001  0.6256744034349352  0.14188536140910188  1.0000
  O   O20       1.0  0.8700401531828632  0.48392798294739947  0.8591130229296905  1.0000
