data_image0
_chemical_formula_structural       Co2H8C4O12
_chemical_formula_sum              "Co2 H8 C4 O12"
_cell_length_a       5.501906420945898
_cell_length_b       6.539131629516353
_cell_length_c       8.107804185814869
_cell_angle_alpha    80.68386197196297
_cell_angle_beta     70.16820139052712
_cell_angle_gamma    65.20767933187871

_space_group_name_H-M_alt    "P 1"
_space_group_IT_number       1

loop_
  _space_group_symop_operation_xyz
  'x, y, z'

loop_
  _atom_site_type_symbol
  _atom_site_label
  _atom_site_symmetry_multiplicity
  _atom_site_fract_x
  _atom_site_fract_y
  _atom_site_fract_z
  _atom_site_occupancy
  Co  Co1       1.0  0.4216060003139927  0.7502757424323081  0.24984995590608602  1.0000
  Co  Co2       1.0  0.5783899325578614  0.24972792914753233  0.7501481323877428  1.0000
  H   H1        1.0  0.12198729913646392  0.1698286280370169  0.35308350288523366  1.0000
  H   H2        1.0  0.6453667190805417  0.3299092725090773  0.14689387190641415  1.0000
  H   H3        1.0  0.8780108516048063  0.8301716686039882  0.6469179825894926  1.0000
  H   H4        1.0  0.3546113508644453  0.6700977626156189  0.8531010701578836  1.0000
  H   H5        1.0  0.19215384717983855  0.1714595103466081  0.1401041880029155  1.0000
  H   H6        1.0  0.5041365963210823  0.32846616228374614  0.3598609257571184  1.0000
  H   H7        1.0  0.8078688262610783  0.8285290166550257  0.8598901892534129  1.0000
  H   H8        1.0  0.49585671339944776  0.6715273849005285  0.6401430869797905  1.0000
  C   C1        1.0  0.8690362804064407  0.7511890556183047  0.3520413142607737  1.0000
  C   C2        1.0  0.9724319648617337  0.748604875623393  0.14802333794248307  1.0000
  C   C3        1.0  0.1309764962948563  0.24881295282067134  0.6479503020627461  1.0000
  C   C4        1.0  0.027577779248432008  0.25140215138604566  0.8519902823898631  1.0000
  O   O1        1.0  0.03490052318053219  0.7517897459782575  0.4288779971724637  1.0000
  O   O2        1.0  0.21536484558393446  0.7487795510883332  0.07123435279725503  1.0000
  O   O3        1.0  0.9651226522755465  0.2481920250635596  0.57112521708585  1.0000
  O   O4        1.0  0.7846536026583588  0.2512173877406028  0.9287678034962141  1.0000
  O   O5        1.0  0.6255410252923567  0.752746226388503  0.42741942454726717  1.0000
  O   O6        1.0  0.806280631897316  0.7464551165768042  0.07255723402195713  1.0000
  O   O7        1.0  0.374459810309965  0.24727094557379561  0.5725706404343923  1.0000
  O   O8        1.0  0.1937279381204249  0.2535569810907248  0.9274471446522553  1.0000
  O   O9        1.0  0.25776866075368343  0.09439686020367329  0.24237842212797028  1.0000
  O   O10       1.0  0.5946092404284614  0.4057110146027584  0.2575128621686815  1.0000
  O   O11       1.0  0.7422082982499846  0.9055815013680045  0.7576285093947346  1.0000
  O   O12       1.0  0.4053464876561677  0.5943010604199872  0.7424826186678146  1.0000
