data_image0
_chemical_formula_structural       Ag4H24C36S4N12O12
_chemical_formula_sum              "Ag4 H24 C36 S4 N12 O12"
_cell_length_a       6.401749081886573
_cell_length_b       12.301532734884708
_cell_length_c       13.38854928322996
_cell_angle_alpha    90.00033626927764
_cell_angle_beta     90.00097650301782
_cell_angle_gamma    95.59832445433202

_space_group_name_H-M_alt    "P 1"
_space_group_IT_number       1

loop_
  _space_group_symop_operation_xyz
  'x, y, z'

loop_
  _atom_site_type_symbol
  _atom_site_label
  _atom_site_symmetry_multiplicity
  _atom_site_fract_x
  _atom_site_fract_y
  _atom_site_fract_z
  _atom_site_occupancy
  Ag  Ag1       1.0  0.20779446335105695  0.9426001363757948  0.8329839597441477  1.0000
  Ag  Ag2       1.0  0.7922090344347056  0.5574022463547337  0.3329846742552007  1.0000
  Ag  Ag3       1.0  0.7921987621905942  0.057398558598251305  0.1670167134904261  1.0000
  Ag  Ag4       1.0  0.20780015907138258  0.44259783289734866  0.6670145050614096  1.0000
  H   H1        1.0  0.33209945185137724  0.3237357680753022  0.0363903083088672  1.0000
  H   H2        1.0  0.6678785922132278  0.17626660856787882  0.5363840760233316  1.0000
  H   H3        1.0  0.6679233506141955  0.6762624546115603  0.9636073771186631  1.0000
  H   H4        1.0  0.33210122465496994  0.823734759328815  0.4636136096539829  1.0000
  H   H5        1.0  0.29939443043297587  0.21295928881814055  0.147156549946672  1.0000
  H   H6        1.0  0.7005570019824462  0.28704460147472594  0.6471541592667478  1.0000
  H   H7        1.0  0.7005891015520122  0.7870444786424002  0.8528411356971687  1.0000
  H   H8        1.0  0.2994568616925904  0.7129554032351211  0.3528465138353596  1.0000
  H   H9        1.0  0.25143341079151343  0.8286838232244949  0.0422166717799328  1.0000
  H   H10       1.0  0.748590767277122  0.6713195719221403  0.5422192030491573  1.0000
  H   H11       1.0  0.7485732711182467  0.17131875502207808  0.9577832544478824  1.0000
  H   H12       1.0  0.2514149117883164  0.32867892421298717  0.4577814701098859  1.0000
  H   H13       1.0  0.31560396265847873  0.8747710606633278  0.2252007974527857  1.0000
  H   H14       1.0  0.6844059463140225  0.6252351443009516  0.7252007918087173  1.0000
  H   H15       1.0  0.6843893108216433  0.12523419056180532  0.7747998757523291  1.0000
  H   H16       1.0  0.31560128944188653  0.3747633269793057  0.2747998813408827  1.0000
  H   H17       1.0  0.32696724292241447  0.06876593063652339  0.277816435963679  1.0000
  H   H18       1.0  0.6730024065501964  0.43124021426910997  0.7778145945365864  1.0000
  H   H19       1.0  0.6730151335781047  0.9312394945391136  0.7221819965867978  1.0000
  H   H20       1.0  0.32700794258665417  0.5687582073014142  0.2221860785941274  1.0000
  H   H21       1.0  0.29482487410343344  0.4474665266175607  0.891690270785837  1.0000
  H   H22       1.0  0.7051595968558146  0.052536471691382806  0.3916861215241383  1.0000
  H   H23       1.0  0.705209426980069  0.5525339713700106  0.1083081614679315  1.0000
  H   H24       1.0  0.2948073653801302  0.9474634622063647  0.6083123111453473  1.0000
  C   C1        1.0  0.28929028571589294  0.2895942397124572  0.9635568962955077  1.0000
  C   C2        1.0  0.7106922717980808  0.21040945166781455  0.4635565029481157  1.0000
  C   C3        1.0  0.7107226228094631  0.7104082390810973  0.0364407891738097  1.0000
  C   C4        1.0  0.2892960830447748  0.7895885014351264  0.5364434234127344  1.0000
  C   C5        1.0  0.2554947836693344  0.17710206421647  0.9459948349325203  1.0000
  C   C6        1.0  0.7444907523650173  0.3229034760074114  0.44599377291957143  1.0000
  C   C7        1.0  0.744502156891592  0.8228990302990623  0.054004344454760704  1.0000
  C   C8        1.0  0.2555093016743868  0.6770975688207487  0.5540069002626495  1.0000
  C   C9        1.0  0.2916598671406519  0.12717078539884602  0.1266797791109937  1.0000
  C   C10       1.0  0.7083048595340102  0.37283387607433127  0.6266780240156606  1.0000
  C   C11       1.0  0.7083240660503379  0.8728346149219347  0.8733186534300401  1.0000
  C   C12       1.0  0.2917039329611343  0.6271645703622398  0.3733233960314095  1.0000
  C   C13       1.0  0.26702679604257173  0.9127257337576182  0.0693849411888863  1.0000
  C   C14       1.0  0.7329836053832751  0.5872779318395944  0.569386170873095  1.0000
  C   C15       1.0  0.732971901884973  0.08727615234994349  0.9306157319979107  1.0000
  C   C16       1.0  0.2670220737796924  0.41272056431789395  0.4306159960997675  1.0000
  C   C17       1.0  0.2994930384382073  0.9381796756228624  0.1699481754157972  1.0000
  C   C18       1.0  0.7005057879476482  0.5618282151974655  0.6699485362304783  1.0000
  C   C19       1.0  0.7004990795086882  0.0618272333061824  0.8300524977890404  1.0000
  C   C20       1.0  0.2994998911665547  0.43817028094883864  0.33005288383547793  1.0000
  C   C21       1.0  0.3096952612343884  0.047317048713431106  0.1991942281418275  1.0000
  C   C22       1.0  0.6902771769829386  0.45268899244924643  0.6991912370008181  1.0000
  C   C23       1.0  0.6902840019827181  0.9526884261943068  0.8008056982413478  1.0000
  C   C24       1.0  0.30973472884438996  0.5473094042664144  0.30080943612045274  1.0000
  C   C25       1.0  0.2657435082172981  0.09536917150722249  0.026483264222754602  1.0000
  C   C26       1.0  0.7342418284065104  0.4046360500189436  0.5264838956445885  1.0000
  C   C27       1.0  0.7342493639592931  0.9046344468353029  0.9735151682713479  1.0000
  C   C28       1.0  0.2657595818422749  0.5953641535521969  0.473518271346876  1.0000
  C   C29       1.0  0.2058123556637526  0.21197929249691336  0.7789283403200002  1.0000
  C   C30       1.0  0.7941762721528746  0.2880208476691024  0.2789299665030214  1.0000
  C   C31       1.0  0.7941843844160844  0.7880209856164554  0.22107233288596723  1.0000
  C   C32       1.0  0.20582493751728492  0.7119785394775064  0.7210722004933032  1.0000
  C   C33       1.0  0.27235621225371176  0.3590349371241856  0.883233575058668  1.0000
  C   C34       1.0  0.7276249962322724  0.1409653836010136  0.3832328447886156  1.0000
  C   C35       1.0  0.7276656351597168  0.6409657596687667  0.11676261654989159  1.0000
  C   C36       1.0  0.2723479922844732  0.859033634475111  0.6167670816617843  1.0000
  S   S1        1.0  0.1806384100746783  0.15394473032412748  0.6534252375648535  1.0000
  S   S2        1.0  0.8193509532623225  0.34605137854786955  0.15342753232187786  1.0000
  S   S3        1.0  0.8193557704215948  0.8460514905214752  0.3465754356748647  1.0000
  S   S4        1.0  0.18065628254235125  0.6539470927435715  0.8465738877346354  1.0000
  N   N1        1.0  0.21543707927362726  0.139747154275824  0.8524712978757593  1.0000
  N   N2        1.0  0.784554323156712  0.36025283809102143  0.3524716526368437  1.0000
  N   N3        1.0  0.784554790107407  0.8602523819664397  0.1475286284564845  1.0000
  N   N4        1.0  0.21544999969933804  0.6397464993011255  0.647527526712949  1.0000
  N   N5        1.0  0.2512473641754058  0.9893736123872049  0.9992628894917104  1.0000
  N   N6        1.0  0.748755049664922  0.5106300150302943  0.4992638064924648  1.0000
  N   N7        1.0  0.7487497769641321  0.0106282985528594  0.0007362898907033  1.0000
  N   N8        1.0  0.2512457587504784  0.4893677392448979  0.5007368666997607  1.0000
  N   N9        1.0  0.22845762712922382  0.3209758238531748  0.7898975383378543  1.0000
  N   N10       1.0  0.7715287178081738  0.1790222451702377  0.2898974245228274  1.0000
  N   N11       1.0  0.7715564369293659  0.679024997236468  0.2101001471317403  1.0000
  N   N12       1.0  0.22845787976558546  0.8209749163630423  0.710102501852326  1.0000
  O   O1        1.0  0.3947461525232043  0.1240322801614369  0.636048761311919  1.0000
  O   O2        1.0  0.6052533385238448  0.3759819618925205  0.1360504298023884  1.0000
  O   O3        1.0  0.605250387075543  0.8759671815497683  0.3639534057127349  1.0000
  O   O4        1.0  0.3947605730408982  0.6240245990572221  0.8639494963633538  1.0000
  O   O5        1.0  0.11971889821068521  0.2416993046939666  0.5891957080063079  1.0000
  O   O6        1.0  0.8802490229136384  0.2582926305613499  0.0891995298106281  1.0000
  O   O7        1.0  0.8802717676011087  0.7582953329787757  0.4108027245412842  1.0000
  O   O8        1.0  0.11975605456223803  0.7417034163337419  0.9108033840837352  1.0000
  O   O9        1.0  0.022129314370054907  0.06060882734267639  0.661192963468828  1.0000
  O   O10       1.0  0.9778851201290736  0.4393772945032453  0.161196216991371  1.0000
  O   O11       1.0  0.9778664230117471  0.9393873686927917  0.33881069738909997  1.0000
  O   O12       1.0  0.022134521407210214  0.5606144217317351  0.8388074437397961  1.0000
