data_image0
_chemical_formula_structural       Ag2H50C54N4O4
_chemical_formula_sum              "Ag2 H50 C54 N4 O4"
_cell_length_a       9.597874626509924
_cell_length_b       9.912722732954588
_cell_length_c       12.86
_cell_angle_alpha    81.4829152738093
_cell_angle_beta     77.07820071997186
_cell_angle_gamma    87.96900437857465

_space_group_name_H-M_alt    "P 1"
_space_group_IT_number       1

loop_
  _space_group_symop_operation_xyz
  'x, y, z'

loop_
  _atom_site_type_symbol
  _atom_site_label
  _atom_site_symmetry_multiplicity
  _atom_site_fract_x
  _atom_site_fract_y
  _atom_site_fract_z
  _atom_site_occupancy
  Ag  Ag1       1.0  0.5445252383811904  0.7953863411205617  0.3773182655714534  1.0000
  Ag  Ag2       1.0  0.4554689585790186  0.2046224027055459  0.6226799162344037  1.0000
  H   H1        1.0  0.8365990460373495  0.8302172054956786  0.018575675489579193  1.0000
  H   H2        1.0  0.163409088683899  0.1697752174193425  0.9814243761907446  1.0000
  H   H3        1.0  0.6649219850062877  0.8343678171966786  0.9921390105606135  1.0000
  H   H4        1.0  0.3350861419934787  0.1656276658891755  0.007858360239751467  1.0000
  H   H5        1.0  0.9602433442977374  0.3336912277581945  0.5040968420931476  1.0000
  H   H6        1.0  0.03975515684528119  0.6663062954415437  0.495903457534247  1.0000
  H   H7        1.0  0.08575046040834877  0.1991120550995547  0.5039840742095976  1.0000
  H   H8        1.0  0.914251242490053  0.8008875082140676  0.4960193461791817  1.0000
  H   H9        1.0  0.9379271036528678  0.0877361177229545  0.6826005678434086  1.0000
  H   H10       1.0  0.06207352255636778  0.9122665057614938  0.3174034604920307  1.0000
  H   H11       1.0  0.8125400483158671  0.21878487330193508  0.6792391040453296  1.0000
  H   H12       1.0  0.18745951664717347  0.7812146900116943  0.3207615627369762  1.0000
  H   H13       1.0  0.39754923687520005  0.6790519069441174  0.6120402791692852  1.0000
  H   H14       1.0  0.6024460367741753  0.320953776711157  0.38795807229488577  1.0000
  H   H15       1.0  0.9255840386553658  0.1604835187257123  0.40367988755438927  1.0000
  H   H16       1.0  0.07441980989986519  0.839512984417084  0.5963235240859887  1.0000
  H   H17       1.0  0.6679013633125094  0.9885116820217448  0.7120374688543335  1.0000
  H   H18       1.0  0.33209499989516184  0.0114858411779934  0.2879655204014213  1.0000
  H   H19       1.0  0.5457668406642994  0.8494034565362513  0.6145407944182252  1.0000
  H   H20       1.0  0.454231655331064  0.1505961067773711  0.38546005077079565  1.0000
  H   H21       1.0  0.3809712933257785  0.5639741829214344  0.31824079014190687  1.0000
  H   H22       1.0  0.6190261234065985  0.43602946061995596  0.6817597693671188  1.0000
  H   H23       1.0  0.2281280363928744  0.4958139779912756  0.7124789315206712  1.0000
  H   H24       1.0  0.7718715157010294  0.5041906856070568  0.2875203775482689  1.0000
  H   H25       1.0  0.0654178141025739  0.7040310613638994  0.7913168500563472  1.0000
  H   H26       1.0  0.934573175954611  0.2959776824622082  0.20868419978457803  1.0000
  H   H27       1.0  0.7825699134611099  0.0211600612252525  0.3176295260584254  1.0000
  H   H28       1.0  0.21743178686345735  0.9788405221453189  0.682371445493743  1.0000
  H   H29       1.0  0.9474598705295705  0.3068780109549323  0.004836494518777139  1.0000
  H   H30       1.0  0.05253755135046839  0.6931235924725812  0.9951674074535075  1.0000
  H   H31       1.0  0.2004446576298022  0.3862159998663017  0.4047300281865204  1.0000
  H   H32       1.0  0.7995506134457456  0.6137907038459218  0.595269762465925  1.0000
  H   H33       1.0  0.029195114656666  0.4590256243425799  0.8621940600008599  1.0000
  H   H34       1.0  0.9708022892065742  0.5409831194835277  0.137808252214711  1.0000
  H   H35       1.0  0.0014167287061041998  0.3794550624482085  0.6831792276124417  1.0000
  H   H36       1.0  0.9985796164847685  0.620549601150131  0.31681983907166966  1.0000
  H   H37       1.0  0.13101228902173997  0.2509564492266918  0.6801179415921721  1.0000
  H   H38       1.0  0.8689872630721709  0.7490482143716477  0.31988370029169727  1.0000
  H   H39       1.0  0.5774379183325493  0.505939063207336  0.8748542255330417  1.0000
  H   H40       1.0  0.42255950869513725  0.49406050010628627  0.12514602045771275  1.0000
  H   H41       1.0  0.5825068985385329  0.0416417845834189  0.9031227517034282  1.0000
  H   H42       1.0  0.4175023077242201  0.9583496182746599  0.0968733495669696  1.0000
  H   H43       1.0  0.6068451242172159  0.2865248147715818  0.8378106418535225  1.0000
  H   H44       1.0  0.39316301565168726  0.7134655680295552  0.1621849762402902  1.0000
  H   H45       1.0  0.9185255231376528  0.0613972273981744  0.07279029671468615  1.0000
  H   H46       1.0  0.0814772461545914  0.9386033559723899  0.927213606850678  1.0000
  H   H47       1.0  0.8581825657752802  0.851826091775841  0.7610337797241654  1.0000
  H   H48       1.0  0.1418073707571921  0.1481765317086143  0.2389642566286625  1.0000
  H   H49       1.0  0.6140510089265803  0.7504344717571669  0.8027321392598951  1.0000
  H   H50       1.0  0.38594107841038283  0.2495630514425713  0.1972653427829059  1.0000
  C   C1        1.0  0.6677746376782352  0.846397348725283  0.15558431629685998  1.0000
  C   C2        1.0  0.3322302849923346  0.1535971143036292  0.8444144833502988  1.0000
  C   C3        1.0  0.7328693386365329  0.8828654044938844  0.03435171769874045  1.0000
  C   C4        1.0  0.2671387935108882  0.1171280384780786  0.9656474403549282  1.0000
  C   C5        1.0  0.007441550417418299  0.2565484013881232  0.5570976077076252  1.0000
  C   C6        1.0  0.9925569507255999  0.743449121811615  0.44290346952474385  1.0000
  C   C7        1.0  0.8914124484066334  0.1612914038245492  0.6263086539541547  1.0000
  C   C8        1.0  0.10858712170406899  0.8387061193751819  0.37369380008145464  1.0000
  C   C9        1.0  0.35163859141908194  0.6115139367491835  0.5690232510030384  1.0000
  C   C10       1.0  0.6483577563456252  0.388489706792214  0.4309774869127023  1.0000
  C   C11       1.0  0.19366619258396156  0.4286371079541595  0.5674306016458317  1.0000
  C   C12       1.0  0.8063322853946103  0.571369595758064  0.4325709866013978  1.0000
  C   C13       1.0  0.812589183747555  0.0828072025744575  0.5664774921733409  1.0000
  C   C14       1.0  0.1874135906923442  0.9171913406822227  0.4335250882254229  1.0000
  C   C15       1.0  0.8426224957177482  0.0922876118025471  0.45393095819434137  1.0000
  C   C16       1.0  0.1573802812959784  0.907709911397191  0.546072515831078  1.0000
  C   C17       1.0  0.7010391231420172  0.9958081493349055  0.6246054954720747  1.0000
  C   C18       1.0  0.2989647202655589  0.0041903939217747  0.3753961289149996  1.0000
  C   C19       1.0  0.6313357449603245  0.9188111911076788  0.570108911340327  1.0000
  C   C20       1.0  0.3686648915442206  0.0811873521490014  0.42989247066191166  1.0000
  C   C21       1.0  0.34133704772950313  0.5483509907827013  0.405454094995484  1.0000
  C   C22       1.0  0.6586614353967235  0.4516536728156382  0.5945453924801711  1.0000
  C   C23       1.0  0.800796496047802  0.4636056800165775  0.8730734301364436  1.0000
  C   C24       1.0  0.19919879304453048  0.5363938832970518  0.12692872787769718  1.0000
  C   C25       1.0  0.25480101802649097  0.5114494108133272  0.6247197953008552  1.0000
  C   C26       1.0  0.7451985289197578  0.4885572928988964  0.3752777265147812  1.0000
  C   C27       1.0  0.9582656812377053  0.6607796269244588  0.8087632955316977  1.0000
  C   C28       1.0  0.04172531654096189  0.3392260567308227  0.19123732476928978  1.0000
  C   C29       1.0  0.7805982005049258  0.3166583169242543  0.9151875235119105  1.0000
  C   C30       1.0  0.21940456878731845  0.68334226644631  0.084810936818613  1.0000
  C   C31       1.0  0.76471493309554  0.0143868831238407  0.4052302812919919  1.0000
  C   C32       1.0  0.235285703409012  0.9856116601328395  0.5947718783152283  1.0000
  C   C33       1.0  0.8674489539162025  0.249164209177863  0.9816892879634054  1.0000
  C   C34       1.0  0.1325527515560196  0.7508343340788102  0.018311138027144066  1.0000
  C   C35       1.0  0.2407130201252272  0.4479304649737443  0.4550020749954625  1.0000
  C   C36       1.0  0.7592833250656454  0.5520741986245881  0.5449954364786933  1.0000
  C   C37       1.0  0.9376655098677203  0.5227067592360939  0.8495020967526159  1.0000
  C   C38       1.0  0.06232869481397069  0.47729892441918753  0.15049798832822597  1.0000
  C   C39       1.0  0.08150748052124608  0.3267293391223305  0.6272670869749389  1.0000
  C   C40       1.0  0.9184910077526425  0.6732732843621179  0.37273185493909716  1.0000
  C   C41       1.0  0.685180193629719  0.5483224291882962  0.8546730842272651  1.0000
  C   C42       1.0  0.3148150954626132  0.4516771341253261  0.1453259633669717  1.0000
  C   C43       1.0  0.662564854877317  0.0993535462465971  0.9265189500489797  1.0000
  C   C44       1.0  0.3374454126316309  0.900640916782315  0.07347817995962908  1.0000
  C   C45       1.0  0.7489777939147046  0.0325234955700893  0.9927971345150934  1.0000
  C   C46       1.0  0.25103247102040877  0.9674719875157649  0.0072022122867637  1.0000
  C   C47       1.0  0.6768060986188118  0.2389779205452314  0.8891689734092336  1.0000
  C   C48       1.0  0.3232020283809547  0.7610175625406157  0.11082839739113125  1.0000
  C   C49       1.0  0.8509172881365501  0.1106618975165077  0.020275546214485008  1.0000
  C   C50       1.0  0.14908869320638019  0.8893366457401726  0.9797241661492038  1.0000
  C   C51       1.0  0.8425821532540708  0.7433307952062265  0.7908290158285495  1.0000
  C   C52       1.0  0.157408849672251  0.256672848335171  0.20916794849090786  1.0000
  C   C53       1.0  0.7058775947293583  0.6864136579016318  0.8140878103049117  1.0000
  C   C54       1.0  0.2941155590014546  0.3135848853550485  0.1859117101244294  1.0000
  N   N1        1.0  0.39468763336460455  0.6315937576718156  0.4605594032196407  1.0000
  N   N2        1.0  0.6053087144000954  0.3684098858695819  0.5394390018811706  1.0000
  N   N3        1.0  0.662519092132051  0.9262423059373149  0.4620344068707992  1.0000
  N   N4        1.0  0.3374804779786515  0.0737552172624234  0.5379657143498804  1.0000
  O   O1        1.0  0.6136188000822145  0.9420623690660436  0.20862525512912805  1.0000
  O   O2        1.0  0.3863893243437245  0.0579341340767456  0.7913727772545299  1.0000
  O   O3        1.0  0.6700277923885024  0.7215107571388657  0.1953410980829844  1.0000
  O   O4        1.0  0.3299707190498324  0.2784826858330973  0.8046565552112098  1.0000
