data_image0
_chemical_formula_structural       Ba4H44C36O30
_chemical_formula_sum              "Ba4 H44 C36 O30"
_cell_length_a       7.4908645385000865
_cell_length_b       12.030211783629728
_cell_length_c       14.461451714286586
_cell_angle_alpha    114.56796273294478
_cell_angle_beta     100.0141037963979
_cell_angle_gamma    90.00523212850096

_space_group_name_H-M_alt    "P 1"
_space_group_IT_number       1

loop_
  _space_group_symop_operation_xyz
  'x, y, z'

loop_
  _atom_site_type_symbol
  _atom_site_label
  _atom_site_symmetry_multiplicity
  _atom_site_fract_x
  _atom_site_fract_y
  _atom_site_fract_z
  _atom_site_occupancy
  Ba  Ba1       1.0  0.939939952485517  0.16140655740148452  0.8853848038675023  1.0000
  Ba  Ba2       1.0  0.5597170020663285  0.2759998404606137  0.11458973060372553  1.0000
  Ba  Ba3       1.0  0.0600580103453012  0.8385878311724467  0.11461284761953279  1.0000
  Ba  Ba4       1.0  0.44028159757816343  0.7240000504516146  0.8854112633240585  1.0000
  H   H1        1.0  0.099251078648571  0.4561541548917987  0.9948288638885499  1.0000
  H   H2        1.0  0.40082334366471156  0.4616584415334302  0.005228223088529697  1.0000
  H   H3        1.0  0.900832002848169  0.543801967374023  0.005163744070607393  1.0000
  H   H4        1.0  0.5992641695146543  0.5383737710706384  0.9947689679828569  1.0000
  H   H5        1.0  0.096614987691872  0.42630994216590073  0.09147725786579032  1.0000
  H   H6        1.0  0.4033203785698944  0.3351085926530645  0.908641131547348  1.0000
  H   H7        1.0  0.9033685022707373  0.573688074417966  0.9085238305539675  1.0000
  H   H8        1.0  0.5966649790927575  0.6648940120789179  0.09136032557148609  1.0000
  H   H9        1.0  0.19128022498623654  0.09203619178600768  0.045438750282151774  1.0000
  H   H10       1.0  0.30850838479444326  0.046558651291150006  0.9544346515232005  1.0000
  H   H11       1.0  0.8087155374280286  0.907962773731228  0.9545589074951548  1.0000
  H   H12       1.0  0.6914832154692617  0.9534393865177152  0.04556370152621978  1.0000
  H   H13       1.0  0.7752143845020213  0.36982060871826417  0.7891394781414646  1.0000
  H   H14       1.0  0.7250095562931591  0.5804584630591947  0.2106785062440081  1.0000
  H   H15       1.0  0.2247840848035523  0.6301783640319273  0.21085772920412882  1.0000
  H   H16       1.0  0.2749879901600352  0.4195441745764585  0.7893219619884558  1.0000
  H   H17       1.0  0.6043463174303055  0.28985597754662257  0.7875750389385555  1.0000
  H   H18       1.0  0.8958003418450531  0.5020273681257521  0.21228804788839273  1.0000
  H   H19       1.0  0.3956497530179419  0.7101457386659008  0.21242290598395644  1.0000
  H   H20       1.0  0.1041942889032157  0.4979734283221405  0.7877122179872698  1.0000
  H   H21       1.0  0.43753048592513716  0.3024156787358621  0.6330499328777959  1.0000
  H   H22       1.0  0.0622769721812091  0.6688258704814416  0.3668425451709821  1.0000
  H   H23       1.0  0.5624655948959614  0.697586037950515  0.3669493961198852  1.0000
  H   H24       1.0  0.9377332850965487  0.3311813849449265  0.6331585661464344  1.0000
  H   H25       1.0  0.4779849138353852  0.22807206612968398  0.4525347710873645  1.0000
  H   H26       1.0  0.02206485153182311  0.775244294346706  0.5473437340009538  1.0000
  H   H27       1.0  0.5220123193973976  0.7719278205737509  0.5474647179623131  1.0000
  H   H28       1.0  0.977942704041048  0.22476295408363717  0.45265851978576416  1.0000
  H   H29       1.0  0.18836903616617925  0.8824689104488359  0.37892725127089477  1.0000
  H   H30       1.0  0.3114871538266399  0.5034087496311627  0.6212503228623375  1.0000
  H   H31       1.0  0.8116312327375964  0.11753373513055723  0.6210748426426063  1.0000
  H   H32       1.0  0.6885143511499338  0.49659298199497937  0.3787494893470792  1.0000
  H   H33       1.0  0.1464050658064551  0.9610304347088319  0.5629818826133288  1.0000
  H   H34       1.0  0.3531791452882941  0.39761099479820666  0.4371935116523884  1.0000
  H   H35       1.0  0.8535964495429623  0.03897129739116421  0.4370193136712571  1.0000
  H   H36       1.0  0.6468237157271444  0.6023907405628748  0.5628064213599583  1.0000
  H   H37       1.0  0.5992664793360589  0.08809717349321741  0.3224800067418413  1.0000
  H   H38       1.0  0.9008450283568477  0.7654294064490442  0.6775501191332436  1.0000
  H   H39       1.0  0.4007283654122489  0.9119054571464174  0.6775216039599313  1.0000
  H   H40       1.0  0.09915322694870099  0.23456773210939733  0.3224457433862397  1.0000
  H   H41       1.0  0.4100675872650114  0.15709541164412144  0.27948581731534006  1.0000
  H   H42       1.0  0.0899414072349316  0.8774966197030095  0.7203138274450679  1.0000
  H   H43       1.0  0.5899269390764557  0.842904467826365  0.7205141221660581  1.0000
  H   H44       1.0  0.9100559667096133  0.12250418563633052  0.279690832261977  1.0000
  C   C1        1.0  0.2884040438651353  0.13683737192157966  0.6103312592534917  1.0000
  C   C2        1.0  0.211325917843169  0.5260263080775333  0.38969469934515627  1.0000
  C   C3        1.0  0.7115977743318497  0.8631671106367875  0.38966953213871125  1.0000
  C   C4        1.0  0.7886770579519222  0.4739763447348082  0.6103069441366313  1.0000
  C   C5        1.0  0.38086226744104573  0.2108301879319399  0.5774343542356843  1.0000
  C   C6        1.0  0.11902172589787337  0.6329389827636546  0.42252570944076223  1.0000
  C   C7        1.0  0.619134970978159  0.7891696990084256  0.42256582685158134  1.0000
  C   C8        1.0  0.8809866636798418  0.36706368451459076  0.5774750331775776  1.0000
  C   C9        1.0  0.4022678355167457  0.1692021188431596  0.4749337977279423  1.0000
  C   C10       1.0  0.09770835816946291  0.6939503803979507  0.5250137849854183  1.0000
  C   C11       1.0  0.597732209014147  0.8307986920706373  0.5250655672842796  1.0000
  C   C12       1.0  0.9022960521391851  0.3060531919420981  0.47498484550563075  1.0000
  C   C13       1.0  0.33084276543559094  0.0506355482071612  0.4034956028517981  1.0000
  C   C14       1.0  0.1692024636851102  0.6469786739903826  0.5965549617901188  1.0000
  C   C15       1.0  0.6691587447273972  0.9493661836559115  0.5965049013951996  1.0000
  C   C16       1.0  0.8308004077031725  0.35302306184456  0.40344635529740447  1.0000
  C   C17       1.0  0.23886366583982976  0.9750936940876472  0.43519702727  1.0000
  C   C18       1.0  0.2610158696053587  0.5396782448075257  0.5649143530731847  1.0000
  C   C19       1.0  0.7611335829522261  0.0249061933265793  0.564804537892435  1.0000
  C   C20       1.0  0.7389857449644452  0.4603244040329528  0.4350864775680775  1.0000
  C   C21       1.0  0.21804748240051444  0.018603242992568898  0.5375193897319972  1.0000
  C   C22       1.0  0.28169898622159195  0.4807000055280568  0.46258582599880055  1.0000
  C   C23       1.0  0.7819511172439847  0.9813966479196669  0.46248160419578704  1.0000
  C   C24       1.0  0.7183007399024673  0.5192980542165915  0.5374118677930467  1.0000
  C   C25       1.0  0.2668334295151098  0.1817616986177484  0.7205695908653097  1.0000
  C   C26       1.0  0.2328005230464356  0.4607360514725728  0.2794411776648501  1.0000
  C   C27       1.0  0.733162969712822  0.8182427692377843  0.27943140935274596  1.0000
  C   C28       1.0  0.7671987906368258  0.5392583405993747  0.7205559025875343  1.0000
  C   C29       1.0  0.4642798418633091  0.06911540386771971  0.2719061869217255  1.0000
  C   C30       1.0  0.035872749003715405  0.7971576438866208  0.7280507216809652  1.0000
  C   C31       1.0  0.5357214594860764  0.9308844940405336  0.7280936645367502  1.0000
  C   C32       1.0  0.9641244946019184  0.2028422432906751  0.2719501514438888  1.0000
  C   C33       1.0  0.48896167033507953  0.9985869234058173  0.1603854373718718  1.0000
  C   C34       1.0  0.011250866256205066  0.8383710663830615  0.8396152032108402  1.0000
  C   C35       1.0  0.5110508969524686  0.0014166722915832004  0.8396166860871188  1.0000
  C   C36       1.0  0.9887397696637308  0.16163063441584308  0.16038087442476717  1.0000
  O   O1        1.0  0.162297066668593  0.12129260530072372  0.7458888134297579  1.0000
  O   O2        1.0  0.337040388636602  0.37480782854023437  0.2540336488758328  1.0000
  O   O3        1.0  0.8376983889612645  0.878715526492563  0.2541126795248301  1.0000
  O   O4        1.0  0.6629496571474718  0.6251883720527261  0.7459653146573044  1.0000
  O   O5        1.0  0.359514322983955  0.2836398779578673  0.7854800274275815  1.0000
  O   O6        1.0  0.14043450739548297  0.49791794548619367  0.21459415637631446  1.0000
  O   O7        1.0  0.6404885328450616  0.7163618571662909  0.2145192135471773  1.0000
  O   O8        1.0  0.8595639670965196  0.5020810275009211  0.78540374300686  1.0000
  O   O9        1.0  0.3454145020237647  0.0013564034411289003  0.3009236082787367  1.0000
  O   O10       1.0  0.15481221892436284  0.7004223781483745  0.699147276420696  1.0000
  O   O11       1.0  0.6545843064343443  0.9986453214259114  0.6990780384375694  1.0000
  O   O12       1.0  0.8451876167929269  0.29957659881061016  0.30085143580300405  1.0000
  O   O13       1.0  0.595712069210059  0.05763631361946861  0.13365902046668046  1.0000
  O   O14       1.0  0.9042850646788309  0.9239903774288297  0.8662199802567013  1.0000
  O   O15       1.0  0.4042684843019301  0.9423598608289157  0.8663390974459302  1.0000
  O   O16       1.0  0.09570957519269999  0.0759985025215713  0.13377754737165046  1.0000
  O   O17       1.0  0.4101253986478142  0.8933338795518824  0.10357057720752041  1.0000
  O   O18       1.0  0.09039657496722953  0.7902092939401301  0.8965822845999367  1.0000
  O   O19       1.0  0.5898848398931519  0.10664862898215695  0.8964337277096346  1.0000
  O   O20       1.0  0.9096020649190636  0.20977868189618218  0.10342012330605847  1.0000
  O   O21       1.0  0.04914688480455001  0.39599176124224306  0.014398641897962212  1.0000
  O   O22       1.0  0.45077578637375365  0.38188131757163996  0.9857048832014069  1.0000
  O   O23       1.0  0.9508057411069469  0.6040208378154261  0.9856061536347763  1.0000
  O   O24       1.0  0.5491810769854695  0.6181083788056227  0.0143013529780589  1.0000
  O   O25       1.0  0.2498288072746604  0.119004353675237  0.999910369927761  1.0000
  O   O26       1.0  0.7501626833958072  0.8809927669192849  8.696468981384994e-05  1.0000
  O   O27       1.0  0.7386747881497085  0.29614382024028885  0.7978470668313731  1.0000
  O   O28       1.0  0.7614610627189933  0.4980896332606052  0.20203553842108582  1.0000
  O   O29       1.0  0.2613240047491203  0.7038579039159742  0.2021525037721758  1.0000
  O   O30       1.0  0.23853775092553056  0.501912091843373  0.7979668003328084  1.0000
