data_image0
_chemical_formula_structural       Cu2H28C32N4O22
_chemical_formula_sum              "Cu2 H28 C32 N4 O22"
_cell_length_a       6.190414271840994
_cell_length_b       7.228325659019099
_cell_length_c       23.08100189666918
_cell_angle_alpha    89.41659845064814
_cell_angle_beta     88.61043744935861
_cell_angle_gamma    64.60299461061929

_space_group_name_H-M_alt    "P 1"
_space_group_IT_number       1

loop_
  _space_group_symop_operation_xyz
  'x, y, z'

loop_
  _atom_site_type_symbol
  _atom_site_label
  _atom_site_symmetry_multiplicity
  _atom_site_fract_x
  _atom_site_fract_y
  _atom_site_fract_z
  _atom_site_occupancy
  Cu  Cu1       1.0  0.20156900807062064  0.5964038577143854  0.2499720407728887  1.0000
  Cu  Cu2       1.0  0.7984355692639795  0.4035912384184428  0.7500282746014831  1.0000
  H   H1        1.0  0.6553396561501684  0.94050296964906  0.9069609265597334  1.0000
  H   H2        1.0  0.40357712148895775  0.9407123608940182  0.5931092226085182  1.0000
  H   H3        1.0  0.34467136360833445  0.059489061368054805  0.0930380735683016  1.0000
  H   H4        1.0  0.5964069667866239  0.0592980534326983  0.40688896672925506  1.0000
  H   H5        1.0  0.09758006301557029  0.0353571898830936  0.2643687851477664  1.0000
  H   H6        1.0  0.8670319100616692  0.03555087330943961  0.23560379151889774  1.0000
  H   H7        1.0  0.9024261725945024  0.9646409683488459  0.7356323869989935  1.0000
  H   H8        1.0  0.13297196370721293  0.9644488167707694  0.7643969523514114  1.0000
  H   H9        1.0  0.6600673631111389  0.4786902197526573  0.039629753059585895  1.0000
  H   H10       1.0  0.8604385799175842  0.47924640706762023  0.4603268433734512  1.0000
  H   H11       1.0  0.3399324905410807  0.52130794007671  0.9603697057618772  1.0000
  H   H12       1.0  0.1395567384102775  0.520764003953687  0.5396730442183041  1.0000
  H   H13       1.0  0.916602863772098  0.9495580988293852  0.037512363357336695  1.0000
  H   H14       1.0  0.13210966417522482  0.9498936705233022  0.46256274761307015  1.0000
  H   H15       1.0  0.0834016302344764  0.0504339349749472  0.9624879569310563  1.0000
  H   H16       1.0  0.8678755413236842  0.05010143227147519  0.5374371946914492  1.0000
  H   H17       1.0  0.05355627774862623  0.8506039003459592  0.13932297553009218  1.0000
  H   H18       1.0  0.09438844660656538  0.8511014371871541  0.36070123386514297  1.0000
  H   H19       1.0  0.9464442806292865  0.1493927285444059  0.8606777833017812  1.0000
  H   H20       1.0  0.9056074907990136  0.1488982545498985  0.6392965016383556  1.0000
  H   H21       1.0  0.9755772802867283  0.2532235212055269  0.16619416044278518  1.0000
  H   H22       1.0  0.770760578174304  0.2538039372622478  0.33373788182716163  1.0000
  H   H23       1.0  0.024422552823473654  0.7467746387938092  0.8338057317337755  1.0000
  H   H24       1.0  0.22924808206297334  0.7461957516198937  0.6662641470371183  1.0000
  H   H25       1.0  0.8031436907858163  0.2327563252682481  0.1071301029568872  1.0000
  H   H26       1.0  0.9636297629484643  0.23324824823128412  0.3928124564160313  1.0000
  H   H27       1.0  0.19685212336770513  0.7672433674886251  0.8928702326771756  1.0000
  H   H28       1.0  0.036373470040714916  0.7667590982947774  0.6071891443912774  1.0000
  C   C1        1.0  0.7463661095208847  0.5653090874595748  0.05922876455144889  1.0000
  C   C2        1.0  0.6873590467886928  0.5658298586893551  0.44074347471875797  1.0000
  C   C3        1.0  0.2536353396207999  0.434689071970439  0.9407711226013403  1.0000
  C   C4        1.0  0.31263378528593927  0.4341790221916638  0.5592568562207632  1.0000
  C   C5        1.0  0.7735907981192013  0.723243763521687  0.03062830974419479  1.0000
  C   C6        1.0  0.5019233619912599  0.7236907434914526  0.4693831134440245  1.0000
  C   C7        1.0  0.2264122248099554  0.276751332670564  0.9693707105886629  1.0000
  C   C8        1.0  0.4980677284798744  0.27631201296195945  0.5306163656371296  1.0000
  C   C9        1.0  0.8904114548671982  0.8265391369052821  0.05951382988728678  1.0000
  C   C10       1.0  0.2816347867723509  0.8269786812303864  0.44052997769132657  1.0000
  C   C11       1.0  0.1095939721471524  0.1734574901071326  0.9404864805181815  1.0000
  C   C12       1.0  0.7183553501490038  0.17301948218491253  0.5594699446278497  1.0000
  C   C13       1.0  0.9659001452947111  0.7746112265226016  0.11517032684963616  1.0000
  C   C14       1.0  0.2581636038981826  0.7751432279223351  0.38484347525860574  1.0000
  C   C15       1.0  0.03410117943492711  0.22538387091884715  0.8848304319273693  1.0000
  C   C16       1.0  0.7418314849876282  0.22485799594350916  0.6151559937201369  1.0000
  C   C17       1.0  0.9309293431448963  0.6149831393408507  0.14487893584602318  1.0000
  C   C18       1.0  0.45309210039555825  0.615588172557537  0.35509930040393545  1.0000
  C   C19       1.0  0.06907276847847747  0.3850104264817205  0.8551213895210166  1.0000
  C   C20       1.0  0.5469126846791068  0.3844130478923449  0.6449001384321845  1.0000
  C   C21       1.0  0.6779159724742742  0.7723592010726746  0.972059017704687  1.0000
  C   C22       1.0  0.5488064079760518  0.7726710542989681  0.5279254469127607  1.0000
  C   C23       1.0  0.32208937121205133  0.22763436361124434  0.027941297614809492  1.0000
  C   C24       1.0  0.45118240398191733  0.22733629633120964  0.4720735989779143  1.0000
  C   C25       1.0  0.8129974246915024  0.332936946768605  0.14112521632204528  1.0000
  C   C26       1.0  0.8535157530925019  0.3334822096469948  0.3588240000649419  1.0000
  C   C27       1.0  0.1870000671195198  0.6670627449090322  0.85887381422296  1.0000
  C   C28       1.0  0.14648824624840967  0.6665236054301504  0.6411776006875056  1.0000
  C   C29       1.0  0.5995053139975183  0.3788006953742739  0.18291665352127495  1.0000
  C   C30       1.0  0.02129223613250276  0.37912147286312603  0.31704898914473734  1.0000
  C   C31       1.0  0.40049290308121493  0.6211974651943919  0.8170832436790503  1.0000
  C   C32       1.0  0.9787149324853387  0.6208812785769029  0.6829521731190978  1.0000
  N   N1        1.0  0.8277225831876791  0.5095811342139457  0.1131370277826136  1.0000
  N   N2        1.0  0.6618700197075712  0.5101372068799463  0.3868304393256776  1.0000
  N   N3        1.0  0.17227797519023355  0.4904154946764195  0.8868637310492602  1.0000
  N   N4        1.0  0.33813246631190436  0.4898686079166766  0.6131689996750679  1.0000
  O   O1        1.0  0.7346096913947661  0.9141054703898633  0.9444877713970637  1.0000
  O   O2        1.0  0.3504181719022624  0.9145613227840245  0.555591901556916  1.0000
  O   O3        1.0  0.2653989254385252  0.08588809281546617  0.05551166716470849  1.0000
  O   O4        1.0  0.6495665788550157  0.0854444979352564  0.4444067259951083  1.0000
  O   O5        1.0  0.5573194375071466  0.6975517999181878  0.9487877221172735  1.0000
  O   O6        1.0  0.744515336953043  0.6976031400594138  0.5511173605309592  1.0000
  O   O7        1.0  0.4426867341569363  0.3024402328069087  0.05121129308207629  1.0000
  O   O8        1.0  0.2554738288590173  0.30241645971478454  0.4488812323485191  1.0000
  O   O9        1.0  0.983555051404245  0.5561070111216326  0.196203140801579  1.0000
  O   O10       1.0  0.459592844202639  0.5567095876289373  0.3037594195088643  1.0000
  O   O11       1.0  0.01644552751567825  0.4438896175987637  0.8037971846751971  1.0000
  O   O12       1.0  0.5404126866817406  0.4432901015420043  0.6962404526274851  1.0000
  O   O13       1.0  0.6009959715654887  0.22791414875845817  0.21011507080216765  1.0000
  O   O14       1.0  0.17088466926480084  0.22805838839222764  0.28989222925139296  1.0000
  O   O15       1.0  0.39900220442922313  0.7720840121501454  0.7898856931083458  1.0000
  O   O16       1.0  0.8291198681457601  0.7719397710889169  0.7101106813395148  1.0000
  O   O17       1.0  0.4386776554090445  0.5643942785939373  0.18555972388470815  1.0000
  O   O18       1.0  0.9963819989089514  0.5646556571509649  0.3143790446778353  1.0000
  O   O19       1.0  0.5613158174452906  0.43560694584123644  0.814439750117806  1.0000
  O   O20       1.0  0.0036196374307877087  0.4353486267660713  0.6856203992917995  1.0000
  O   O21       1.0  0.028182983057327218  0.9437424421175464  0.2499705972704119  1.0000
  O   O22       1.0  0.9718249096682425  0.0562557152051326  0.7500297031423953  1.0000
