data_image0
_chemical_formula_structural       Zr6H35C62Br5O34
_chemical_formula_sum              "Zr6 H35 C62 Br5 O34"
_cell_length_a       14.865346167678961
_cell_length_b       14.835437517945474
_cell_length_c       14.83342423328199
_cell_angle_alpha    59.922182331915465
_cell_angle_beta     59.960502082540636
_cell_angle_gamma    59.98812732696637

_space_group_name_H-M_alt    "P 1"
_space_group_IT_number       1

loop_
  _space_group_symop_operation_xyz
  'x, y, z'

loop_
  _atom_site_type_symbol
  _atom_site_label
  _atom_site_symmetry_multiplicity
  _atom_site_fract_x
  _atom_site_fract_y
  _atom_site_fract_z
  _atom_site_occupancy
  Zr  Zr1       1.0  0.8915294781041682  0.3711201335122354  0.6192550577163943  1.0000
  Zr  Zr2       1.0  0.12468378874504532  0.6150005386136427  0.3775914524307282  1.0000
  Zr  Zr3       1.0  0.12963886889254883  0.3765106373540734  0.6161069741023438  1.0000
  Zr  Zr4       1.0  0.8885143610966965  0.6096563689855331  0.38144165041380507  1.0000
  Zr  Zr5       1.0  0.8893690502969562  0.6101149500125588  0.6199472269994288  1.0000
  Zr  Zr6       1.0  0.12995644927280378  0.37200034344351  0.38102732053269506  1.0000
  H   H1        1.0  0.9152652722369082  0.4001393647968713  0.780756179061953  1.0000
  H   H2        1.0  0.9093615754760268  0.7735794039607882  0.407262651347139  1.0000
  H   H3        1.0  0.29097314168542704  0.40328597188312904  0.4021065026716215  1.0000
  H   H4        1.0  0.9162682803495488  0.39613623446021545  0.4071479502866849  1.0000
  H   H5        1.0  0.5730841695323291  0.3724740162210908  0.8861921061042964  1.0000
  H   H6        1.0  0.5392387127481302  0.7575976642795864  0.866428921847522  1.0000
  H   H7        1.0  0.6249551035835027  0.6647198650657274  0.9503593052123731  1.0000
  H   H8        1.0  0.4559537344895119  0.6582689646954947  0.12083553801944892  1.0000
  H   H9        1.0  0.37174880601822485  0.7541888800561054  0.03541674513981966  1.0000
  H   H10       1.0  0.8626564445495432  0.08639688785790167  0.6388789046779451  1.0000
  H   H11       1.0  0.24324963862110852  0.052674204334849206  0.2940255630334647  1.0000
  H   H12       1.0  0.14231038544394892  0.13863112813622538  0.22707651763001022  1.0000
  H   H13       1.0  0.13321714824948552  0.9705455370319386  0.23406031597317414  1.0000
  H   H14       1.0  0.23073348603408317  0.8838383509518478  0.3053570596746624  1.0000
  H   H15       1.0  0.6001034006889512  0.8996676381529697  0.6440999941643142  1.0000
  H   H16       1.0  0.5105750328878356  0.8466030742892345  0.3695284998098173  1.0000
  H   H17       1.0  0.5987008414153862  0.9275446277750133  0.27097773056690494  1.0000
  H   H18       1.0  0.4337566484678348  0.10150052155893267  0.2755564857666145  1.0000
  H   H19       1.0  0.34610538598514756  0.02058353856584466  0.37472723164561467  1.0000
  H   H20       1.0  0.13414993128871805  0.3300326887890961  0.10815278940696521  1.0000
  H   H21       1.0  0.8668290834952829  0.7510766421023404  0.021388659884223716  1.0000
  H   H22       1.0  0.7677548163488056  0.6816049031927562  0.10503126281392382  1.0000
  H   H23       1.0  0.7740908665948963  0.6761108907135593  0.9346588455245238  1.0000
  H   H24       1.0  0.8741918696011409  0.7435523947973481  0.8511613359262143  1.0000
  H   H25       1.0  0.7958106659399035  0.26052268362417413  0.9266312651612837  1.0000
  H   H26       1.0  0.6272346174215997  0.25948224068380193  0.08822522354640941  1.0000
  H   H27       1.0  0.7900943688310775  0.9269047423746387  0.2633999359432764  1.0000
  H   H28       1.0  0.6248850512728409  0.09245559157776745  0.2585586267291689  1.0000
  H   H29       1.0  0.59937365034768  0.6388956172096628  0.3590286792795823  1.0000
  H   H30       1.0  0.5203369747392514  0.3463998403764493  0.7687796725917977  1.0000
  H   H31       1.0  0.6009136602744151  0.25437531647902045  0.6910957359648863  1.0000
  H   H32       1.0  0.42874388425176585  0.2718590779333354  0.6806565720952024  1.0000
  H   H33       1.0  0.3477938571811378  0.36319025619008016  0.7584307149016142  1.0000
  H   H34       1.0  0.17994522988764328  0.7883773186626898  0.105313776393082  1.0000
  H   H35       1.0  0.18718596925339873  0.0966318995259813  0.8015334688700193  1.0000
  C   C1        1.0  0.6996713632185347  0.499141376171508  0.7941774327054745  1.0000
  C   C2        1.0  0.9985174255244046  0.8009995633537913  0.49786222090039445  1.0000
  C   C3        1.0  0.30126680670368705  0.5014788734294342  0.18536051923110358  1.0000
  C   C4        1.0  0.01328352034251165  0.18802788604443782  0.49852694206850856  1.0000
  C   C5        1.0  0.005535256503051703  0.1901080161404637  0.8060343756411257  1.0000
  C   C6        1.0  0.703133461913218  0.49236660540017146  0.5060932924779779  1.0000
  C   C7        1.0  0.9979961085293215  0.8013467438315444  0.19654113413381688  1.0000
  C   C8        1.0  0.30297834925910644  0.5109775728517505  0.49715464104566826  1.0000
  C   C9        1.0  0.01267155315935037  0.48793268310836174  0.8030730202852324  1.0000
  C   C10       1.0  0.30898374313832727  0.1859716670864487  0.5088692885730381  1.0000
  C   C11       1.0  0.01146453738692808  0.49284019880703056  0.19656715096144947  1.0000
  C   C12       1.0  0.6983264758430463  0.7847021237832055  0.5079670529818187  1.0000
  C   C13       1.0  0.5918308143823411  0.5078649425098334  0.8849945096960141  1.0000
  C   C14       1.0  0.39345427149321216  0.5065353447226643  0.07747804407511442  1.0000
  C   C15       1.0  0.5411531475596334  0.5856770658108773  0.9369285122176549  1.0000
  C   C16       1.0  0.4411710281471599  0.4329897681876957  0.018059523782021355  1.0000
  C   C17       1.0  0.44604165615290736  0.5839579976905754  0.03008752344816656  1.0000
  C   C18       1.0  0.5374110802100417  0.4330567137049073  0.9262833485837305  1.0000
  C   C19       1.0  0.5500479601816861  0.6821772099822213  0.938166093919719  1.0000
  C   C20       1.0  0.4438201231615722  0.6794687253221455  0.04453292682270414  1.0000
  C   C21       1.0  0.004309378564521126  0.09657442146123434  0.49117123137449437  1.0000
  C   C22       1.0  0.9889128043294305  0.9077953455060455  0.49393243452064445  1.0000
  C   C23       1.0  0.07252261830536359  0.05277222878785891  0.4054681832786429  1.0000
  C   C24       1.0  0.9115882530508301  0.9615806195428223  0.5737401662978882  1.0000
  C   C25       1.0  0.06490937494264408  0.9610105935977842  0.40866112524320636  1.0000
  C   C26       1.0  0.9211803388473714  0.05050111860375497  0.5736902486864608  1.0000
  C   C27       1.0  0.16451116913370356  0.06296457590160291  0.2947381276499712  1.0000
  C   C28       1.0  0.1574340675330178  0.9578330116927203  0.2995414832672267  1.0000
  C   C29       1.0  0.5954092414622139  0.8817823491660238  0.5117825431372084  1.0000
  C   C30       1.0  0.40456281703674085  0.08124777621854672  0.5163785718552134  1.0000
  C   C31       1.0  0.5360909273292052  0.9287590383307532  0.4410615048957141  1.0000
  C   C32       1.0  0.46384312115731774  0.030139317898374457  0.5905036900262176  1.0000
  C   C33       1.0  0.4447170544940775  0.025086964295553658  0.4439096996233118  1.0000
  C   C34       1.0  0.5558025622196181  0.9344154498207264  0.5874891447620315  1.0000
  C   C35       1.0  0.5281992902733775  0.9199694643986832  0.34793100600128923  1.0000
  C   C36       1.0  0.4249855471833044  0.029205535101844742  0.3507884740439239  1.0000
  C   C37       1.0  0.008369170185218903  0.48938438402808526  0.09989621592187352  1.0000
  C   C38       1.0  0.010802522006898022  0.48036892127741027  0.9079833197543155  1.0000
  C   C39       1.0  0.9365200324799261  0.5727528945763539  0.04225300881318352  1.0000
  C   C40       1.0  0.07879000465242558  0.3921766222401574  0.972049122272651  1.0000
  C   C41       1.0  0.9392954810186749  0.5679931027872628  0.9492603895343732  1.0000
  C   C42       1.0  0.07882175080831631  0.3979697753283703  0.06310980667817735  1.0000
  C   C43       1.0  0.8451258655470255  0.6834441898324926  0.03510981961973392  1.0000
  C   C44       1.0  0.8492592938281046  0.679029850205197  0.9288209610907145  1.0000
  C   C45       1.0  0.9984659571246296  0.09964034571325464  0.9139470089209  1.0000
  C   C46       1.0  0.8950058868630818  0.09542292676511013  0.0019491931066398264  1.0000
  C   C47       1.0  0.09699133490862986  0.017493852431691412  0.9288586524122235  1.0000
  C   C48       1.0  0.7963761796392533  0.18736427627371924  0.0002260651990227117  1.0000
  C   C49       1.0  0.7010222672782546  0.18655409596567557  0.09085521212996632  1.0000
  C   C50       1.0  0.994490177373123  0.9082084229442702  0.10505987416768667  1.0000
  C   C51       1.0  0.09488323824788839  0.9203511781501845  0.024912555751520096  1.0000
  C   C52       1.0  0.8930417991642445  0.9988160340797096  0.09895940060424366  1.0000
  C   C53       1.0  0.7930157383758498  0.9997759300654182  0.1894752088930147  1.0000
  C   C54       1.0  0.6995261086222726  0.0923019744490645  0.18634255685930867  1.0000
  C   C55       1.0  0.5983022671867106  0.49952129993972977  0.5091013121816985  1.0000
  C   C56       1.0  0.40003083532354855  0.5158545123209565  0.4990953137159765  1.0000
  C   C57       1.0  0.5382198892944529  0.4291260358763794  0.5907904636763418  1.0000
  C   C58       1.0  0.46019160823842503  0.5896331309396388  0.4186002308647828  1.0000
  C   C59       1.0  0.44280068868546624  0.438241380037468  0.5850343287491813  1.0000
  C   C60       1.0  0.5554115490952897  0.5813337256530036  0.4235641821575556  1.0000
  C   C61       1.0  0.5321608381411949  0.3316700509391809  0.6974009073072408  1.0000
  C   C62       1.0  0.4241451512035042  0.3423045483369762  0.6911264457948505  1.0000
  Br  Br1       1.0  0.3803556500966678  0.3271578167282386  0.05435921800106062  1.0000
  Br  Br2       1.0  0.7829675174634756  0.9248660237916583  0.6843174528283668  1.0000
  Br  Br3       1.0  0.4291205673703899  0.08416833749667763  0.7007680832535004  1.0000
  Br  Br4       1.0  0.17146613008414147  0.25432906658087273  0.9463646554712071  1.0000
  Br  Br5       1.0  0.42016374649573185  0.7079654068262401  0.2941342388440944  1.0000
  O   O1        1.0  0.7420920408607258  0.41970920334350864  0.7577869415140839  1.0000
  O   O2        1.0  0.07584873556922389  0.7649101504607786  0.41914687730523775  1.0000
  O   O3        1.0  0.26503012865057235  0.5783705505379544  0.22363274270922057  1.0000
  O   O4        1.0  0.9408127903094794  0.2237693024086767  0.5787217664270232  1.0000
  O   O5        1.0  0.09001931069813904  0.22214223473996228  0.7578162979289617  1.0000
  O   O6        1.0  0.7455813311843257  0.5661791053087698  0.4269306487028004  1.0000
  O   O7        1.0  0.9223703204884328  0.7611536210637342  0.23731994324716513  1.0000
  O   O8        1.0  0.26816257332945526  0.4312511609958421  0.5733464353990172  1.0000
  O   O9        1.0  0.9358449491170547  0.5666441478979112  0.7651692939667569  1.0000
  O   O10       1.0  0.2729462939539928  0.2235160871633255  0.43025074875833264  1.0000
  O   O11       1.0  0.08756109564086503  0.416351976330141  0.23628485193873414  1.0000
  O   O12       1.0  0.741169539860394  0.7480523246095744  0.5810527938608983  1.0000
  O   O13       1.0  0.27012072079433114  0.2319840567301127  0.5801213706748244  1.0000
  O   O14       1.0  0.9361906199387849  0.5718523287301737  0.23320520268909922  1.0000
  O   O15       1.0  0.7376004301003861  0.7477226725379185  0.42961318569311396  1.0000
  O   O16       1.0  0.09102423212435443  0.41656949152294226  0.7573982015080603  1.0000
  O   O17       1.0  0.930392185036524  0.22966716793325756  0.765153817970294  1.0000
  O   O18       1.0  0.2630006280589613  0.5835774529947456  0.4197164550847178  1.0000
  O   O19       1.0  0.08275564037236904  0.7526429342702913  0.22890388157300384  1.0000
  O   O20       1.0  0.7436266983057465  0.41297845940383143  0.5808689106172906  1.0000
  O   O21       1.0  0.09213096012077665  0.2247151951312674  0.4233495989519369  1.0000
  O   O22       1.0  0.7431593661100919  0.5706195965514811  0.7615286964113536  1.0000
  O   O23       1.0  0.9312795006965545  0.7517681047769503  0.5794289436981047  1.0000
  O   O24       1.0  0.26751308603826374  0.4192545761182558  0.23422189225793488  1.0000
  O   O25       1.0  0.9433492223877736  0.4227115522434135  0.4334286188349381  1.0000
  O   O26       1.0  0.21106902738338826  0.42889230742051865  0.4297032452839317  1.0000
  O   O27       1.0  0.938387095692782  0.6935616239902771  0.4322625673243436  1.0000
  O   O28       1.0  0.9433015249858059  0.42465467565627785  0.7006725396137412  1.0000
  O   O29       1.0  0.057640639993216856  0.544240570638948  0.5465294141004549  1.0000
  O   O30       1.0  0.8606810445062011  0.5397472703996015  0.5500242990866298  1.0000
  O   O31       1.0  0.05719683188551988  0.5413828574536126  0.3515279992718304  1.0000
  O   O32       1.0  0.059979758570314325  0.3448761426194694  0.5485822624899583  1.0000
  O   O33       1.0  0.19409476825065755  0.8436910248637802  0.029440231727676142  1.0000
  O   O34       1.0  0.19785460276784048  0.020447465895472354  0.8562384764591189  1.0000
