data_image0
_chemical_formula_structural       Zn2H32C36N12Cl4
_chemical_formula_sum              "Zn2 H32 C36 N12 Cl4"
_cell_length_a       8.115582121424975
_cell_length_b       10.013548376910055
_cell_length_c       12.796894953683168
_cell_angle_alpha    77.55623025837129
_cell_angle_beta     74.50136977048093
_cell_angle_gamma    70.19512835188065

_space_group_name_H-M_alt    "P 1"
_space_group_IT_number       1

loop_
  _space_group_symop_operation_xyz
  'x, y, z'

loop_
  _atom_site_type_symbol
  _atom_site_label
  _atom_site_symmetry_multiplicity
  _atom_site_fract_x
  _atom_site_fract_y
  _atom_site_fract_z
  _atom_site_occupancy
  Zn  Zn1       1.0  0.6320781649368924  0.7419982725727651  0.7194133416211629  1.0000
  Zn  Zn2       1.0  0.36792110930185357  0.257999593131899  0.28058655525248355  1.0000
  H   H1        1.0  0.5803752394369824  0.703143113029114  0.5060256074549514  1.0000
  H   H2        1.0  0.4196189245833324  0.29685475395421435  0.4939759488542492  1.0000
  H   H3        1.0  0.9179177394693808  0.2792751519069583  0.44161733585947605  1.0000
  H   H4        1.0  0.08208329690945947  0.720724856840228  0.5583826760055572  1.0000
  H   H5        1.0  0.9852497931509064  0.23778383941414924  0.6259037962035096  1.0000
  H   H6        1.0  0.014754674500984702  0.7622172399648407  0.3740946628794717  1.0000
  H   H7        1.0  0.8453050090172596  0.4368497122929966  0.7446793244257393  1.0000
  H   H8        1.0  0.1546938699634736  0.5631492253151293  0.2553212399424822  1.0000
  H   H9        1.0  0.8997327253288813  0.3577202955701607  0.2520192878182641  1.0000
  H   H10       1.0  0.10026526031626995  0.6422775698913697  0.7479792676543441  1.0000
  H   H11       1.0  0.7302941308325329  0.5279798624145966  0.08797635546471844  1.0000
  H   H12       1.0  0.26969675358551376  0.47202336309250364  0.9120248552364032  1.0000
  H   H13       1.0  0.33233934162911516  0.8039523404611587  0.19608739822833599  1.0000
  H   H14       1.0  0.667657062984013  0.19604981261421278  0.8039138272225655  1.0000
  H   H15       1.0  0.496124849512661  0.7598460702038567  0.07346818245316902  1.0000
  H   H16       1.0  0.503876606655261  0.2401528678905293  0.9265350647171289  1.0000
  H   H17       1.0  0.464338424538731  0.0038305406756365  0.10902601978385458  1.0000
  H   H18       1.0  0.5356604642544337  0.9961683974327473  0.8909761057043042  1.0000
  H   H19       1.0  0.5143763704536325  0.9303596371511704  0.2414431918191653  1.0000
  H   H20       1.0  0.4856238705029836  0.06964251515280753  0.7585573744750462  1.0000
  H   H21       1.0  0.8413129809637209  0.7618079478543863  0.24594126308534212  1.0000
  H   H22       1.0  0.15868891931341267  0.2381931315386012  0.7540560743154999  1.0000
  H   H23       1.0  0.1557490885712837  0.7177488581992008  0.08805156072077837  1.0000
  H   H24       1.0  0.8442519379951248  0.2822511500477277  0.9119468900243248  1.0000
  H   H25       1.0  0.8444164052960372  0.9609252931093977  0.789881860994477  1.0000
  H   H26       1.0  0.15558206861426527  0.0390747159019185  0.21011780974838254  1.0000
  H   H27       1.0  0.03649002471463076  0.9910789166024969  0.6034519059595383  1.0000
  H   H28       1.0  0.9635114069222154  0.008920020241234304  0.39654743841092716  1.0000
  H   H29       1.0  0.37016220244265696  0.9100242088292915  0.5823321038066993  1.0000
  H   H30       1.0  0.6298362812800775  0.08997580068228932  0.41766912805609013  1.0000
  H   H31       1.0  0.33010452333843426  0.7621849788698969  0.9136869087634522  1.0000
  H   H32       1.0  0.6698956295172492  0.2378139582309657  0.086312655325905  1.0000
  C   C1        1.0  0.6679936607307795  0.5978602360515808  0.5310221138622779  1.0000
  C   C2        1.0  0.3320090545934492  0.4021387007851516  0.4689777913492534  1.0000
  C   C3        1.0  0.7394498067228737  0.49477542562586047  0.45911865782039735  1.0000
  C   C4        1.0  0.2605541922887298  0.5052235112038661  0.5408818082322071  1.0000
  C   C5        1.0  0.8554459486191206  0.3627009944329203  0.49459322858865573  1.0000
  C   C6        1.0  0.1445593291736386  0.637297942139675  0.505407017745057  1.0000
  C   C7        1.0  0.894033928494757  0.33924695005539013  0.5978045858112112  1.0000
  C   C8        1.0  0.10597133948557755  0.6607519860169405  0.4021940994025641  1.0000
  C   C9        1.0  0.8176338455646004  0.4472890750010094  0.6639682173077333  1.0000
  C   C10       1.0  0.18236886975962108  0.5527098618357158  0.3360316879037981  1.0000
  C   C11       1.0  0.7001413774741464  0.5291046927645126  0.34987069512281727  1.0000
  C   C12       1.0  0.29986301679546296  0.4708931721617517  0.6501291034352192  1.0000
  C   C13       1.0  0.787910861626159  0.4548915836561992  0.2581063676053432  1.0000
  C   C14       1.0  0.21208584523782986  0.54510628206247  0.7418924075861639  1.0000
  C   C15       1.0  0.7057707259194573  0.53801585367475  0.17405959780088415  1.0000
  C   C16       1.0  0.29423078400589003  0.4619862978718247  0.8259391876544911  1.0000
  C   C17       1.0  0.47529145555319025  0.7809465016790682  0.1574157798146771  1.0000
  C   C18       1.0  0.5247053541303685  0.21905457999311295  0.8425863392615867  1.0000
  C   C19       1.0  0.5385615329744623  0.9090335898079474  0.15723293323938495  1.0000
  C   C20       1.0  0.46143822952943486  0.0909664194465094  0.8427680789045126  1.0000
  C   C21       1.0  0.8662977416137423  0.7990154796811169  0.15877841687824903  1.0000
  C   C22       1.0  0.13370288478844825  0.20098560021913414  0.8412199208014499  1.0000
  C   C23       1.0  0.02100640216112726  0.7788086366899095  0.07806793633267967  1.0000
  C   C24       1.0  0.9789929454599006  0.22119244346747285  0.9219306210659256  1.0000
  C   C25       1.0  0.9631323577377483  0.851767754053718  0.9801583537793378  1.0000
  C   C26       1.0  0.036867390047497395  0.1482322544503418  0.019840316684657498  1.0000
  C   C27       1.0  0.06958858876934912  0.8661601530074635  0.8692676011825569  1.0000
  C   C28       1.0  0.9304115640863345  0.13383878409339192  0.13073196290680036  1.0000
  C   C29       1.0  0.9894596706736747  0.9280303702281363  0.778616599766714  1.0000
  C   C30       1.0  0.010538403072409594  0.0719707104365099  0.2213829579107482  1.0000
  C   C31       1.0  0.09618774903550074  0.9438459452496487  0.6746730536107038  1.0000
  C   C32       1.0  0.9038145612182832  0.056154062990273715  0.32532595797547254  1.0000
  C   C33       1.0  0.2815638557820605  0.8957006843943988  0.661852296490835  1.0000
  C   C34       1.0  0.7184355848461123  0.10430361121623123  0.3381480436725823  1.0000
  C   C35       1.0  0.25712771226447  0.8158334157964332  0.848560483464837  1.0000
  C   C36       1.0  0.7428720453332075  0.18416659320789117  0.15143974811909536  1.0000
  N   N1        1.0  0.7068127057549204  0.5748463645791234  0.6301712116683191  1.0000
  N   N2        1.0  0.29318609493731873  0.42514935832615214  0.3698299116149856  1.0000
  N   N3        1.0  0.5715972835948121  0.6502832758043128  0.32359166460296523  1.0000
  N   N4        1.0  0.42840496308912185  0.34971351848315635  0.6764102475781897  1.0000
  N   N5        1.0  0.5767072759163766  0.652294065465043  0.2171436345118351  1.0000
  N   N6        1.0  0.4232877716270876  0.3477048731646094  0.7828583695730417  1.0000
  N   N7        1.0  0.7284920460468598  0.8804292632903525  0.10898256297894451  1.0000
  N   N8        1.0  0.2715060276992248  0.1195718173742932  0.8910169946985178  1.0000
  N   N9        1.0  0.7839393078682803  0.9131502659764834  0.00018223140469330297  1.0000
  N   N10       1.0  0.21606044482318507  0.08684974277770863  0.999817219619267  1.0000
  N   N11       1.0  0.35947244823369545  0.8299358942546108  0.7477005226184943  1.0000
  N   N12       1.0  0.6405273142701943  0.1700641149998461  0.2523004895254033  1.0000
  Cl  Cl1       1.0  0.732145795948874  0.913158992610775  0.600718747404386  1.0000
  Cl  Cl2       1.0  0.26785179443827184  0.08683994475421743  0.39928047556279717  1.0000
  Cl  Cl3       1.0  0.7101431948805441  0.6500132631262332  0.8801098681808596  1.0000
  Cl  Cl4       1.0  0.2898544885137466  0.349988889692007  0.11989113755114293  1.0000
