data_image0
_chemical_formula_structural       Zn8H16C72S12Cl20O62
_chemical_formula_sum              "Zn8 H16 C72 S12 Cl20 O62"
_cell_length_a       15.09557067842601
_cell_length_b       20.047326406725613
_cell_length_c       22.804297480862413
_cell_angle_alpha    89.67161273861203
_cell_angle_beta     90.29804115194445
_cell_angle_gamma    89.3972903059835

_space_group_name_H-M_alt    "P 1"
_space_group_IT_number       1

loop_
  _space_group_symop_operation_xyz
  'x, y, z'

loop_
  _atom_site_type_symbol
  _atom_site_label
  _atom_site_symmetry_multiplicity
  _atom_site_fract_x
  _atom_site_fract_y
  _atom_site_fract_z
  _atom_site_occupancy
  Zn  Zn1       1.0  0.5667823269992951  0.5843187748503951  0.0068754965913698  1.0000
  Zn  Zn2       1.0  0.574122443024763  0.0831147543213433  0.503740179811743  1.0000
  Zn  Zn3       1.0  0.5707936190210179  0.42236589917713724  0.9961067661345666  1.0000
  Zn  Zn4       1.0  0.5755859838746037  0.9211146139406736  0.49698628903901465  1.0000
  Zn  Zn5       1.0  0.42110225316995553  0.5036175102903115  0.928695659559061  1.0000
  Zn  Zn6       1.0  0.4230535221721254  0.499554662409004  0.0702010556409576  1.0000
  Zn  Zn7       1.0  0.42752018529031943  0.0039090931535384005  0.4282393018441155  1.0000
  Zn  Zn8       1.0  0.4285408563323615  0.0014389522974340996  0.5702847072690035  1.0000
  H   H1        1.0  0.6246536671040419  0.29531665763731507  0.8727344551606181  1.0000
  H   H2        1.0  0.08623109853094492  0.0722196793036218  0.6210994414972149  1.0000
  H   H3        1.0  0.2723763643370276  0.6948970409805354  0.05646333188149551  1.0000
  H   H4        1.0  0.2214339764056845  0.7572812422932031  0.8444371837879174  1.0000
  H   H5        1.0  0.27168130826231623  0.20071045510044877  0.555783916938374  1.0000
  H   H6        1.0  0.22728920554993692  0.24867038238373604  0.3408974997439387  1.0000
  H   H7        1.0  0.10681968320775333  0.2714958224152326  0.9381178412264151  1.0000
  H   H8        1.0  0.11712042930462732  0.7754769458456678  0.4303612100678933  1.0000
  H   H9        1.0  0.6791992475747861  0.3286662757308888  0.1556727868811549  1.0000
  H   H10       1.0  0.5336311728820534  0.7451104007737326  0.40652661218381786  1.0000
  H   H11       1.0  0.6740885681006932  0.8257088277014403  0.6569805706907843  1.0000
  H   H12       1.0  0.920099672838056  0.6381207433100329  0.8468981674009797  1.0000
  H   H13       1.0  0.9224354517947405  0.140671365290487  0.3442002394957271  1.0000
  H   H14       1.0  0.260675617082569  0.3964423710022018  0.07133017475725721  1.0000
  H   H15       1.0  0.2657537273545501  0.8986798745120979  0.5687864534859983  1.0000
  H   H16       1.0  0.08311192671514789  0.5711756894399899  0.124245624769209  1.0000
  C   C1        1.0  0.5279153735622515  0.3834600490285354  0.11574895224809723  1.0000
  C   C2        1.0  0.47934430725482013  0.2779032799349679  0.2526551979963614  1.0000
  C   C3        1.0  0.45185059278171025  0.7762323671998599  0.2468164902332362  1.0000
  C   C4        1.0  0.4730046568551601  0.7791353906391619  0.7544350088589695  1.0000
  C   C5        1.0  0.4325185690355157  0.3154660376787674  0.7962146012762831  1.0000
  C   C6        1.0  0.46591812411637784  0.31588125553847146  0.1998509529909427  1.0000
  C   C7        1.0  0.4608596837203507  0.8305462034123393  0.2870205254972902  1.0000
  C   C8        1.0  0.4603548163615017  0.8153307233461149  0.7005868047595316  1.0000
  C   C9        1.0  0.5750043888956713  0.28681187934294883  0.8389600033603558  1.0000
  C   C10       1.0  0.6229180375016625  0.3119736012462795  0.18128725027833784  1.0000
  C   C11       1.0  0.5122979374354487  0.7536084869245698  0.361471200213245  1.0000
  C   C12       1.0  0.4864418964773805  0.3725404635283168  0.8898934912942238  1.0000
  C   C13       1.0  0.6174417332784545  0.8099746764942708  0.6827159044808653  1.0000
  C   C14       1.0  0.5907613747706721  0.2399801494757767  0.7963234161630979  1.0000
  C   C15       1.0  0.6362620779989357  0.2666523392692283  0.22627267188632064  1.0000
  C   C16       1.0  0.5177859588789034  0.7021390993081977  0.3218872327869136  1.0000
  C   C17       1.0  0.6300163039620658  0.7662491622867831  0.7289952877010606  1.0000
  C   C18       1.0  0.8280255486104624  0.506469387315768  0.978773328843161  1.0000
  C   C19       1.0  0.8338426967612237  0.005657645345039  0.47612850492701847  1.0000
  C   C20       1.0  0.1615657892144  0.4721606431032869  0.9980664990319214  1.0000
  C   C21       1.0  0.16760835121431947  0.9754385475861725  0.49510134582766346  1.0000
  C   C22       1.0  0.0352537497430632  0.39793499689394446  0.98415854623223  1.0000
  C   C23       1.0  0.5244617026976641  0.8805976610747379  0.6153828536066968  1.0000
  C   C24       1.0  0.043317860038286  0.8999206251273718  0.4790357300287695  1.0000
  C   C25       1.0  0.12644646635794743  0.4070079419244977  0.9896628938079103  1.0000
  C   C26       1.0  0.13415019068041545  0.9100296056876044  0.4853580146016867  1.0000
  C   C27       1.0  0.10447547260144321  0.5267372397117569  0.997970376376287  1.0000
  C   C28       1.0  0.10954344164684932  0.02944777774899879  0.4948357577146679  1.0000
  C   C29       1.0  0.4965390729890233  0.6294649107476644  0.892401753753596  1.0000
  C   C30       1.0  0.47822902317450666  0.624336600829551  0.1135014291278367  1.0000
  C   C31       1.0  0.5066318088670982  0.1260669458433981  0.3885769415582487  1.0000
  C   C32       1.0  0.4922926649920499  0.12509271606578656  0.6127267434011259  1.0000
  C   C33       1.0  0.013601141965658306  0.519896360194295  0.9812224723445837  1.0000
  C   C34       1.0  0.48905271624610697  0.8711623194775698  0.3911909628989961  1.0000
  C   C35       1.0  0.019062599805792505  0.021651116504365596  0.47760003753471386  1.0000
  C   C36       1.0  0.9768305502579369  0.4548244083414731  0.9863124290068299  1.0000
  C   C37       1.0  0.9838752157597881  0.9560408692066745  0.4819040031528345  1.0000
  C   C38       1.0  0.8820345149538938  0.4528953638095958  0.9946544622679241  1.0000
  C   C39       1.0  0.8893453916292701  0.9526004125807787  0.4908935853705927  1.0000
  C   C40       1.0  0.8685500409707104  0.5639675829263737  0.9538062705071086  1.0000
  C   C41       1.0  0.8727439046699033  0.0638863113982495  0.4510631166004019  1.0000
  C   C42       1.0  0.9591750201630945  0.5727288349133772  0.9577508944492125  1.0000
  C   C43       1.0  0.9631090756891609  0.07391696825294498  0.4546818069549019  1.0000
  C   C44       1.0  0.7289399345005665  0.5050942078383827  0.9872417559518212  1.0000
  C   C45       1.0  0.48910184875537505  0.711117583208022  0.2621963256724769  1.0000
  C   C46       1.0  0.7354079408800516  0.003646496111557  0.4865842181157589  1.0000
  C   C47       1.0  0.26096559731610114  0.4837506032799154  0.0023996197767104004  1.0000
  C   C48       1.0  0.266623240805643  0.9878241903994079  0.5008523435537242  1.0000
  C   C49       1.0  0.494946150526104  0.32346614434622006  0.8408480368503106  1.0000
  C   C50       1.0  0.5376827961719853  0.33575440398089995  0.1663454360784087  1.0000
  C   C51       1.0  0.48591257322636494  0.8185123330401751  0.34494242800114716  1.0000
  C   C52       1.0  0.5325768002728708  0.8336037724964527  0.6667018523354642  1.0000
  C   C53       1.0  0.4672112739423824  0.6780336952115604  0.1592438080544127  1.0000
  C   C54       1.0  0.48924697911534326  0.6860208282216574  0.8479808952037261  1.0000
  C   C55       1.0  0.4851988778234286  0.18225592955011652  0.6553101072080665  1.0000
  C   C56       1.0  0.5572269565992799  0.7458298431612318  0.7648669514816078  1.0000
  C   C57       1.0  0.4975187314917805  0.18240709193187854  0.3441194723974661  1.0000
  C   C58       1.0  0.4075627946395457  0.784031466774003  0.19131413036839012  1.0000
  C   C59       1.0  0.4069537523504323  0.7748870822696575  0.7991634239383245  1.0000
  C   C60       1.0  0.4090759853899756  0.2817964713949904  0.689773591773367  1.0000
  C   C61       1.0  0.41357337047077886  0.27178678001480716  0.2973120513333711  1.0000
  C   C62       1.0  0.4219683047014087  0.7384901330303392  0.1466444966331579  1.0000
  C   C63       1.0  0.413832494606588  0.7284977654995188  0.8443899494344436  1.0000
  C   C64       1.0  0.42862230387087413  0.2378456751740501  0.6445459623824874  1.0000
  C   C65       1.0  0.4214190354829199  0.22421406740372157  0.34151792730323655  1.0000
  C   C66       1.0  0.49411843278359413  0.6629105685477086  0.21618931906838412  1.0000
  C   C67       1.0  0.5283153304309779  0.2300739107986231  0.7498778641403591  1.0000
  C   C68       1.0  0.5591852063852444  0.6954112420824784  0.809616816279039  1.0000
  C   C69       1.0  0.5334531520223463  0.17842872981643856  0.7069323074354301  1.0000
  C   C70       1.0  0.5669035569869506  0.19311447971229256  0.3055852910086969  1.0000
  C   C71       1.0  0.5639790187600582  0.24471724391511873  0.2619258000809666  1.0000
  C   C72       1.0  0.45375184234865173  0.27601265169458594  0.7455784201140291  1.0000
  S   S1        1.0  0.011610715175670808  0.6400584029263213  0.9183272459448376  1.0000
  S   S2        1.0  0.3340876622327614  0.21438052728248644  0.39466701868812487  1.0000
  S   S3        1.0  0.9858976288513548  0.31985582149120967  0.9568820112074476  1.0000
  S   S4        1.0  0.9954291809116427  0.8219846139535175  0.4501121486148705  1.0000
  S   S5        1.0  0.013520897316901401  0.14254100554089177  0.41585030672409573  1.0000
  S   S6        1.0  0.20893607737736636  0.34098539913838266  0.0004104704596841003  1.0000
  S   S7        1.0  0.21703756910158495  0.8444681535202392  0.4960694422401489  1.0000
  S   S8        1.0  0.13493993476015487  0.5989850167435834  0.0406099514422777  1.0000
  S   S9        1.0  0.137676979544608  0.10194214777578026  0.5379391683156385  1.0000
  S   S10       1.0  0.3861902805175462  0.7560793910405293  0.0723966629295489  1.0000
  S   S11       1.0  0.32712927166972616  0.7217842959369134  0.8984215344726748  1.0000
  S   S12       1.0  0.3924325666289548  0.25303121691830915  0.5699360230184355  1.0000
  Cl  Cl1       1.0  0.3263829110739779  0.3444854579147929  0.8067753845597282  1.0000
  Cl  Cl2       1.0  0.7391904717475057  0.7444602738427974  0.7434354744615278  1.0000
  Cl  Cl3       1.0  0.6936777948350327  0.2014509902956974  0.7989153396591321  1.0000
  Cl  Cl4       1.0  0.7456985120056173  0.2446756469760203  0.2395105268122464  1.0000
  Cl  Cl5       1.0  0.5340161551827195  0.5824527254155  0.2267397821546027  1.0000
  Cl  Cl6       1.0  0.6440171694358555  0.637050388852856  0.8136808053762011  1.0000
  Cl  Cl7       1.0  0.5919008880697804  0.10530662465270518  0.7203968769379044  1.0000
  Cl  Cl8       1.0  0.6524356778082778  0.13527769853218527  0.3084309498641957  1.0000
  Cl  Cl9       1.0  0.8396824371548066  0.38824073795155567  0.0346186223249276  1.0000
  Cl  Cl10      1.0  0.8502065065157325  0.886609668094721  0.5305943944931357  1.0000
  Cl  Cl11      1.0  0.8017367758217947  0.6205059069530847  0.9170442726515233  1.0000
  Cl  Cl12      1.0  0.3607180857939412  0.3255966529503879  0.1713446136509873  1.0000
  Cl  Cl13      1.0  0.8045847271235472  0.11961348905606428  0.41448472992425417  1.0000
  Cl  Cl14      1.0  0.45752117889320953  0.911254192946366  0.26101888784754834  1.0000
  Cl  Cl15      1.0  0.35536909973058783  0.824818822188021  0.6717919283097588  1.0000
  Cl  Cl16      1.0  0.33928171182024874  0.3478586550348197  0.6749054342261971  1.0000
  Cl  Cl17      1.0  0.3295761228590379  0.33082579727395967  0.30126979137705234  1.0000
  Cl  Cl18      1.0  0.3259466322646318  0.843454071793452  0.182327791632332  1.0000
  Cl  Cl19      1.0  0.3240844826299139  0.835006106960158  0.8016723130734676  1.0000
  Cl  Cl20      1.0  0.5619191147574298  0.6289736901153661  0.3508751016907325  1.0000
  O   O1        1.0  0.4949350390706614  0.5025819566334988  0.999725163421367  1.0000
  O   O2        1.0  0.562080551455857  0.1209174744333552  0.5823648658839318  1.0000
  O   O3        1.0  0.6898146858268746  0.45245422514095407  0.9713000655762798  1.0000
  O   O4        1.0  0.6962318023942017  0.9498483480082455  0.474250597050947  1.0000
  O   O5        1.0  0.29550271647863013  0.5061340545823113  0.9566946578018118  1.0000
  O   O6        1.0  0.2993587872849304  0.4694300516439184  0.0515155325126315  1.0000
  O   O7        1.0  0.30205343522695943  0.010355150413488399  0.45552215372483573  1.0000
  O   O8        1.0  0.30368739877598483  0.9738827768868105  0.5504546256045728  1.0000
  O   O9        1.0  0.5328692371393444  0.35982433104847183  0.9357678183933089  1.0000
  O   O10       1.0  0.5791135016363711  0.3746966673780818  0.07210696817270448  1.0000
  O   O11       1.0  0.5432489312219958  0.8605335329590674  0.43358038558159256  1.0000
  O   O12       1.0  0.5005734964487658  0.002223731196700399  0.4997171328000505  1.0000
  O   O13       1.0  0.5774263361347283  0.8717543382913816  0.5726304939140405  1.0000
  O   O14       1.0  0.4124183839995511  0.5852066112738399  0.10911735262327231  1.0000
  O   O15       1.0  0.4606998801566676  0.5753753290906972  0.8770098402558091  1.0000
  O   O16       1.0  0.4281992913369308  0.08414479965825448  0.6144753671866852  1.0000
  O   O17       1.0  0.4736446596015612  0.0707444815831622  0.3736858101860818  1.0000
  O   O18       1.0  0.6943161332607488  0.5571542676783138  0.0092637897665497  1.0000
  O   O19       1.0  0.7011758431042878  0.056828609632930197  0.5067687764810387  1.0000
  O   O20       1.0  0.9740305698272423  0.7031418144419775  0.9344523930732508  1.0000
  O   O21       1.0  0.10512542618233313  0.6268729578455138  0.9186529105553661  1.0000
  O   O22       1.0  0.9817987819008777  0.622841078650623  0.8522035674931417  1.0000
  O   O23       1.0  0.471157846161269  0.4300922939582462  0.122245274299587  1.0000
  O   O24       1.0  0.9743161360959507  0.20487959112117685  0.4325319677324374  1.0000
  O   O25       1.0  0.1073796615873022  0.13084976822950267  0.41609324178667617  1.0000
  O   O26       1.0  0.9842913659243279  0.12578090863177488  0.3495245259204438  1.0000
  O   O27       1.0  0.17175805044160342  0.27512756535014665  0.9976449984047875  1.0000
  O   O28       1.0  0.2842024573099238  0.35738748566325984  0.9650262792969003  1.0000
  O   O29       1.0  0.22949373399350753  0.35188771664703467  0.0675439192763179  1.0000
  O   O30       1.0  0.18052304983746134  0.7785501813926529  0.49160285450068386  1.0000
  O   O31       1.0  0.29344364174119164  0.861818677881878  0.46217703441499214  1.0000
  O   O32       1.0  0.2353266858206524  0.8541248093274804  0.5637039886712074  1.0000
  O   O33       1.0  0.22479770798124582  0.6177757138113192  0.029285974197634304  1.0000
  O   O34       1.0  0.4388072304362823  0.4242447905346935  0.8809624082337068  1.0000
  O   O35       1.0  0.06275472693143769  0.6460052193379012  0.0423388267779927  1.0000
  O   O36       1.0  0.1394474352081261  0.562652283815474  0.1043247676616161  1.0000
  O   O37       1.0  0.22684500544779237  0.12283003465469729  0.5270035355651359  1.0000
  O   O38       1.0  0.06391665891288062  0.147565011386547  0.5397909023377991  1.0000
  O   O39       1.0  0.14318188598132056  0.06529273819543849  0.6014842100475306  1.0000
  O   O40       1.0  0.3950390224226439  0.8259607381141763  0.0619226694828754  1.0000
  O   O41       1.0  0.4307064327143451  0.7082426110768977  0.0356786903626372  1.0000
  O   O42       1.0  0.2833945057680225  0.7396710203522829  0.0735773616822826  1.0000
  O   O43       1.0  0.3378625161578057  0.6590564558750813  0.9278300876724759  1.0000
  O   O44       1.0  0.3208741503736548  0.7833828201006198  0.9298353464664048  1.0000
  O   O45       1.0  0.4673673277225348  0.9271423511377603  0.6206468474469773  1.0000
  O   O46       1.0  0.24093501592911787  0.7128680290512504  0.858040490218542  1.0000
  O   O47       1.0  0.4109544626562213  0.32095800834444077  0.5557171730415504  1.0000
  O   O48       1.0  0.4283826443593384  0.1997144004929794  0.5349382439476855  1.0000
  O   O49       1.0  0.2879098500434907  0.24455089763358728  0.5729209025965858  1.0000
  O   O50       1.0  0.3467752851141909  0.1511587797230618  0.4228909532167933  1.0000
  O   O51       1.0  0.32436195460022793  0.2748703267335628  0.42733552602323505  1.0000
  O   O52       1.0  0.24952807263120044  0.20445239136738985  0.35304625301799325  1.0000
  O   O53       1.0  0.9746865438300248  0.27359188136914264  0.004357791809674402  1.0000
  O   O54       1.0  0.914246012509928  0.34099091582348956  0.9194678619077052  1.0000
  O   O55       1.0  0.059767886792926106  0.2937342427621629  0.9133901411629851  1.0000
  O   O56       1.0  0.43634878394095017  0.9204830225799512  0.38552047219839386  1.0000
  O   O57       1.0  0.9850329342788627  0.7741624626883521  0.49645626693556016  1.0000
  O   O58       1.0  0.923459974438444  0.8434655855089658  0.4131498819924602  1.0000
  O   O59       1.0  0.06991402187605902  0.797976632726339  0.4060774090270343  1.0000
  O   O60       1.0  0.5409897285961948  0.6416666151887468  0.9384327823646786  1.0000
  O   O61       1.0  0.5512708083886865  0.6204947463544598  0.0865176114626323  1.0000
  O   O62       1.0  0.5494454934261414  0.13998453135882732  0.4349062011687153  1.0000
