data_image0
_chemical_formula_structural       Cd4H48C44N48O4
_chemical_formula_sum              "Cd4 H48 C44 N48 O4"
_cell_length_a       10.238537982001981
_cell_length_b       11.832143613944762
_cell_length_c       14.190931563670885
_cell_angle_alpha    110.6229356341807
_cell_angle_beta     89.99994429767541
_cell_angle_gamma    90.00006139467943

_space_group_name_H-M_alt    "P 1"
_space_group_IT_number       1

loop_
  _space_group_symop_operation_xyz
  'x, y, z'

loop_
  _atom_site_type_symbol
  _atom_site_label
  _atom_site_symmetry_multiplicity
  _atom_site_fract_x
  _atom_site_fract_y
  _atom_site_fract_z
  _atom_site_occupancy
  Cd  Cd1       1.0  0.8744413376278574  0.8160777658458472  0.6280446551495443  1.0000
  Cd  Cd2       1.0  0.37444099264058656  0.683921675935899  0.8719545166453953  1.0000
  Cd  Cd3       1.0  0.1255578289523598  0.18392252966053493  0.3719556319060757  1.0000
  Cd  Cd4       1.0  0.6255591506416637  0.3160777110503332  0.1280448032447197  1.0000
  H   H1        1.0  0.03346270184934501  0.5302184471496433  0.611919846597665  1.0000
  H   H2        1.0  0.5334599568041369  0.9697807717355574  0.8880823173889281  1.0000
  H   H3        1.0  0.9665403715363897  0.469780967412767  0.3880830047009169  1.0000
  H   H4        1.0  0.46654018647679174  0.030217723275257007  0.1119181541814243  1.0000
  H   H5        1.0  0.6436445653966845  0.639668775017917  0.6857097241023807  1.0000
  H   H6        1.0  0.1436425636511913  0.8603295979555767  0.814289299889232  1.0000
  H   H7        1.0  0.356356554587606  0.3603297034481727  0.3142886286222151  1.0000
  H   H8        1.0  0.8563566029281662  0.13966980006036073  0.18571143256479417  1.0000
  H   H9        1.0  0.8278178498226513  0.13458395584319763  0.9209460374591456  1.0000
  H   H10       1.0  0.32781519488666794  0.36541807109284014  0.5790542859388309  1.0000
  H   H11       1.0  0.17218229345827044  0.8654145391676168  0.07905443411119963  1.0000
  H   H12       1.0  0.6721810415898021  0.6345849223988509  0.420945371204155  1.0000
  H   H13       1.0  0.48623600510513404  0.32706191549463876  0.9084474027788826  1.0000
  H   H14       1.0  0.9862342682878592  0.1729375162314  0.5915520603510059  1.0000
  H   H15       1.0  0.5137660915814025  0.6729383744977683  0.09155217799418124  1.0000
  H   H16       1.0  0.013765874992678603  0.827060075773943  0.4084481503359071  1.0000
  H   H17       1.0  0.5712346718758782  0.4715839527160242  0.7403831329940542  1.0000
  H   H18       1.0  0.07123428541810742  0.028416072852941503  0.7596153817866593  1.0000
  H   H19       1.0  0.42876644810909437  0.5284172402815059  0.25961670866269054  1.0000
  H   H20       1.0  0.9287658578636742  0.9715833196483172  0.240384644385287  1.0000
  H   H21       1.0  0.7011408445327023  0.4236861930141062  0.8001991950128511  1.0000
  H   H22       1.0  0.20114255156673982  0.0763139479390631  0.6998020812467087  1.0000
  H   H23       1.0  0.29885832204703894  0.5763141080073029  0.19980179832461434  1.0000
  H   H24       1.0  0.7988575917144801  0.9236863585977207  0.3001996183723535  1.0000
  H   H25       1.0  0.7399217748405749  0.24739462732640768  0.6339325812957525  1.0000
  H   H26       1.0  0.23992152301457986  0.2526046274503813  0.8660670025163167  1.0000
  H   H27       1.0  0.2600783684420662  0.7526056626653035  0.3660669994777948  1.0000
  H   H28       1.0  0.7600776435643085  0.7473947760805756  0.13393443621954754  1.0000
  H   H29       1.0  0.5976759391559272  0.29022527600680803  0.5851854915183735  1.0000
  H   H30       1.0  0.09767556845272202  0.20977388209691838  0.9148148682694239  1.0000
  H   H31       1.0  0.40232322742390647  0.7097741164941028  0.41481453465381424  1.0000
  H   H32       1.0  0.9023226214255404  0.7902264134091154  0.08518541878644473  1.0000
  H   H33       1.0  0.46209689956235445  0.25692526234486474  0.7206222868752191  1.0000
  H   H34       1.0  0.9620969499038169  0.24307416307055968  0.7793786006449536  1.0000
  H   H35       1.0  0.5379032437193345  0.7430750386768923  0.2793787064620048  1.0000
  H   H36       1.0  0.03790319337796431  0.7569252294306992  0.2206214255269998  1.0000
  H   H37       1.0  0.5497812598621509  0.1251227110488102  0.6495565723386889  1.0000
  H   H38       1.0  0.049781180818726505  0.3748764126479431  0.8504438109152088  1.0000
  H   H39       1.0  0.4502188834204901  0.8748775789429006  0.3504430084348584  1.0000
  H   H40       1.0  0.9502189624630547  0.625122979853316  0.14955621525674448  1.0000
  H   H41       1.0  0.8121047834017789  0.0608947064541638  0.6832652766406823  1.0000
  H   H42       1.0  0.31210482950764634  0.4391055031837824  0.8167345326884217  1.0000
  H   H43       1.0  0.18789340647640532  0.939106497572361  0.31673597758045696  1.0000
  H   H44       1.0  0.6878953137749947  0.5608947868079214  0.1832650480851257  1.0000
  H   H45       1.0  0.7988109379618893  0.0042522397729172  0.5647182956091469  1.0000
  H   H46       1.0  0.29881187119845265  0.4957479658302051  0.9352822265149496  1.0000
  H   H47       1.0  0.2011882286182427  0.9957489642539625  0.43528295861175775  1.0000
  H   H48       1.0  0.7011892487852762  0.5042514266714093  0.06471779965675489  1.0000
  C   C1        1.0  0.9324064642290967  0.5331039462226528  0.6356083328840112  1.0000
  C   C2        1.0  0.4324045271497355  0.9668955592602161  0.8643936356384428  1.0000
  C   C3        1.0  0.06759465575321141  0.4668954628240344  0.3643938121332083  1.0000
  C   C4        1.0  0.5675956161315696  0.0331038387560696  0.13560709681534178  1.0000
  C   C5        1.0  0.7359018569979768  0.5914666014055071  0.672620273937305  1.0000
  C   C6        1.0  0.23589989741069667  0.9085318488748017  0.8273801174161832  1.0000
  C   C7        1.0  0.26409926298575215  0.4085327910961071  0.32737975223440685  1.0000
  C   C8        1.0  0.7640992691681846  0.09146755465615543  0.17262132131967428  1.0000
  C   C9        1.0  0.7463775534667434  0.17281824487580622  0.8934753054411857  1.0000
  C   C10       1.0  0.2463757907494326  0.32718371803959906  0.606524351576695  1.0000
  C   C11       1.0  0.2536225898146541  0.8271802446199884  0.10652445984732137  1.0000
  C   C12       1.0  0.7536223991301655  0.6728174694418527  0.3934747837989292  1.0000
  C   C13       1.0  0.5723810942285681  0.26985166371585484  0.8895639352266753  1.0000
  C   C14       1.0  0.0723801825387156  0.23014927671201948  0.6104362524395909  1.0000
  C   C15       1.0  0.4276190490535969  0.7301486317908755  0.11043635182871722  1.0000
  C   C16       1.0  0.9276199607426823  0.7698492127837682  0.389563512848916  1.0000
  C   C17       1.0  0.6630680734507521  0.4208088188719045  0.7269738578686212  1.0000
  C   C18       1.0  0.16306870861355802  0.0791903862092624  0.7730264698798093  1.0000
  C   C19       1.0  0.33693109312861225  0.5791905791440257  0.2730268745853976  1.0000
  C   C20       1.0  0.8369314346681309  0.9208099148124944  0.2269745234574145  1.0000
  C   C21       1.0  0.644434521726332  0.2913089144414159  0.6551915340619414  1.0000
  C   C22       1.0  0.14443522078005344  0.20869026622356301  0.8448073902523772  1.0000
  C   C23       1.0  0.3555646448543542  0.7086913755499397  0.3448080467118472  1.0000
  C   C24       1.0  0.8555649225017279  0.7913091262776959  0.155192635919569  1.0000
  C   C25       1.0  0.5602466439123647  0.21838498704003229  0.7017523811537458  1.0000
  C   C26       1.0  0.06024554282998911  0.2816150471800611  0.7982482578562795  1.0000
  C   C27       1.0  0.4397534993698003  0.7816153084667049  0.29824790590163985  1.0000
  C   C28       1.0  0.9397546004513162  0.7183843508362244  0.20175247459750523  1.0000
  C   C29       1.0  0.5446550201303495  0.8572754687321478  0.627947585777072  1.0000
  C   C30       1.0  0.044651693790818604  0.6427227945225625  0.8720465427422894  1.0000
  C   C31       1.0  0.4553470765595834  0.142723874134596  0.3720460838578531  1.0000
  C   C32       1.0  0.9553484494909629  0.3572765979786965  0.12795348342966406  1.0000
  C   C33       1.0  0.37470213865468344  0.9400327997919363  0.5638904432322106  1.0000
  C   C34       1.0  0.874701750457092  0.5599684261280019  0.9361064250744845  1.0000
  C   C35       1.0  0.6252980046305228  0.05997018267111541  0.43610780134613947  1.0000
  C   C36       1.0  0.12529839282611022  0.4400309498281843  0.06389148225194671  1.0000
  C   C37       1.0  0.17296907750827734  0.7120659255022304  0.5871740882121514  1.0000
  C   C38       1.0  0.6729709569703247  0.7879351830705447  0.9128264103430153  1.0000
  C   C39       1.0  0.8270281356706097  0.2879370624747892  0.41282486264875456  1.0000
  C   C40       1.0  0.32703113971307834  0.21206332848604606  0.0871761800723689  1.0000
  C   C41       1.0  0.33674724899741904  0.6172312047602376  0.6405126065695299  1.0000
  C   C42       1.0  0.8367512714585956  0.8827700159549536  0.8594871054595714  1.0000
  C   C43       1.0  0.663249964180615  0.38277088572633733  0.35948678968977527  1.0000
  C   C44       1.0  0.16325180192722402  0.11722849008696562  0.14051477867373308  1.0000
  N   N1        1.0  0.7545343253756017  0.4863959469355165  0.6867313052938326  1.0000
  N   N2        1.0  0.25453384819142855  0.013603323853729397  0.8132689776406605  1.0000
  N   N3        1.0  0.24546581790570346  0.5136034510807689  0.3132694271599589  1.0000
  N   N4        1.0  0.7454662950902674  0.9863969771680275  0.1867320156965633  1.0000
  N   N5        1.0  0.8795648633225995  0.4474001845798412  0.6636426039959458  1.0000
  N   N6        1.0  0.379563426688435  0.05260009006532581  0.8363592911267259  1.0000
  N   N7        1.0  0.12043723336166326  0.5525992244671941  0.3363595410210323  1.0000
  N   N8        1.0  0.620436716592785  0.9474002164714579  0.16364240849232917  1.0000
  N   N9        1.0  0.8475555357221156  0.6240423778354725  0.6402393057476842  1.0000
  N   N10       1.0  0.34755251534870274  0.8759570666909154  0.8597627043480571  1.0000
  N   N11       1.0  0.1524455842606685  0.37595702569618783  0.35976213298769716  1.0000
  N   N12       1.0  0.6524456745282379  0.12404233683969318  0.14023873438804907  1.0000
  N   N13       1.0  0.6162008569661453  0.21549207722643626  0.7953377976954737  1.0000
  N   N14       1.0  0.11619988566717154  0.2845079971906728  0.704662813899553  1.0000
  N   N15       1.0  0.383799286315636  0.7845073152748296  0.20466222847647225  1.0000
  N   N16       1.0  0.8838002576146095  0.7154913953105861  0.29533721227239335  1.0000
  N   N17       1.0  0.7276962285779477  0.1530359113661532  0.7962379571508078  1.0000
  N   N18       1.0  0.22769533598946626  0.3469651406386377  0.7037621544182429  1.0000
  N   N19       1.0  0.27230293800102606  0.846962583644313  0.20376251441977897  1.0000
  N   N20       1.0  0.7723028538896558  0.6530360523578409  0.2962376872392198  1.0000
  N   N21       1.0  0.6528632292750843  0.24417851047130051  0.9533590845142327  1.0000
  N   N22       1.0  0.1528614587631054  0.25582338526430703  0.5466406183213336  1.0000
  N   N23       1.0  0.34713691400708063  0.7558217850354296  0.04664120254115296  1.0000
  N   N24       1.0  0.847137707817204  0.7441760017215774  0.4533587015690159  1.0000
  N   N25       1.0  0.4257200931960128  0.865747939980857  0.6019618956676566  1.0000
  N   N26       1.0  0.9257178951044198  0.6342515055482495  0.8980330133125063  1.0000
  N   N27       1.0  0.5742820034932735  0.13425322544190274  0.3980344145796622  1.0000
  N   N28       1.0  0.07428322488064511  0.36574877892878277  0.10196586117896796  1.0000
  N   N29       1.0  0.648548729589642  0.8392479858584923  0.6562106019001916  1.0000
  N   N30       1.0  0.14854741713212866  0.6607494600577581  0.8437846273958197  1.0000
  N   N31       1.0  0.3514533670985785  0.1607495620273554  0.3437839585315388  1.0000
  N   N32       1.0  0.8514546795535481  0.3392499324442043  0.15621539877565027  1.0000
  N   N33       1.0  0.3161346245771242  0.0020597709886302994  0.5290345451046292  1.0000
  N   N34       1.0  0.8161357095175603  0.4979422365255886  0.9709643714529861  1.0000
  N   N35       1.0  0.6838645420055729  0.9979441255095907  0.4709653729210712  1.0000
  N   N36       1.0  0.18386541046797333  0.5020580424364242  0.029033796756642992  1.0000
  N   N37       1.0  0.2518103648038021  0.6225843926097667  0.5751631219363844  1.0000
  N   N38       1.0  0.7518142925022107  0.8774167781175991  0.9248380442715458  1.0000
  N   N39       1.0  0.7481839182704777  0.3774203958621243  0.42483564441027255  1.0000
  N   N40       1.0  0.24818585077549227  0.1225808469778897  0.07516640410639039  1.0000
  N   N41       1.0  0.09604407640238581  0.7880249672864754  0.5912418730879665  1.0000
  N   N42       1.0  0.5960448903982823  0.7119769835141839  0.9087582177587449  1.0000
  N   N43       1.0  0.9039521600760951  0.21198163271208162  0.4087581213069311  1.0000
  N   N44       1.0  0.4039542761789789  0.28801971651538594  0.09124314460864008  1.0000
  N   N45       1.0  0.41644998813927  0.6014365437180232  0.6952278089321807  1.0000
  N   N46       1.0  0.9164521505745429  0.8985647342541798  0.8047718640467281  1.0000
  N   N47       1.0  0.5835423415287269  0.3985637352408276  0.30477035927960827  1.0000
  N   N48       1.0  0.08354408589802632  0.1014346747907524  0.19523028097168543  1.0000
  O   O1        1.0  0.8617222318085711  0.014006297149919099  0.6212751180758713  1.0000
  O   O2        1.0  0.3617232292059002  0.4859948566535622  0.8787256341080363  1.0000
  O   O3        1.0  0.13827595806990442  0.9859967184025751  0.3787273641939848  1.0000
  O   O4        1.0  0.638277890778305  0.5140045303330255  0.12127368578183712  1.0000
