data_image0
_chemical_formula_structural       AlH27C48O12
_chemical_formula_sum              "Al1 H27 C48 O12"
_cell_length_a       4.0535196768576185
_cell_length_b       23.53341844028702
_cell_length_c       23.491159469175454
_cell_angle_alpha    60.07447785024455
_cell_angle_beta     88.4105054313561
_cell_angle_gamma    88.21628705148164

_space_group_name_H-M_alt    "P 1"
_space_group_IT_number       1

loop_
  _space_group_symop_operation_xyz
  'x, y, z'

loop_
  _atom_site_type_symbol
  _atom_site_label
  _atom_site_symmetry_multiplicity
  _atom_site_fract_x
  _atom_site_fract_y
  _atom_site_fract_z
  _atom_site_occupancy
  Al  Al1       1.0  0.03418198210297163  0.49935042597108037  0.49936019155192923  1.0000
  H   H1        1.0  0.2517058941197945  0.3285754949538884  0.6774027838727719  1.0000
  H   H2        1.0  0.2689115229028758  0.2610782147133222  0.7977827257887358  1.0000
  H   H3        1.0  0.7586268257039209  0.1515463968448998  0.0215153345963728  1.0000
  H   H4        1.0  0.8080724503160114  0.6842680423532741  0.3340157100824542  1.0000
  H   H5        1.0  0.8082528378244972  0.8056251426694417  0.27928281567969987  1.0000
  H   H6        1.0  0.3115439991163527  0.8866345616753719  0.23731180627811452  1.0000
  H   H7        1.0  0.27706722820276747  0.006477682461522197  0.17044917797579023  1.0000
  H   H8        1.0  0.4875910106117729  0.10022718378522909  0.11029602323627334  1.0000
  H   H9        1.0  0.22988748424380387  0.6773881144605127  0.4940733196513846  1.0000
  H   H10       1.0  0.2451977066691527  0.7975602921931252  0.44157037779773134  1.0000
  H   H11       1.0  0.7338387060488714  0.0208069511063229  0.3255486113654201  1.0000
  H   H12       1.0  0.8488651948620146  0.33525994816525173  0.47604743903578145  1.0000
  H   H13       1.0  0.8514162740582094  0.2796869477723121  0.4099151721265388  1.0000
  H   H14       1.0  0.3387879299788921  0.2389219989176894  0.37566348233649893  1.0000
  H   H15       1.0  0.28944295060586717  0.1719559109270179  0.3231047725425569  1.0000
  H   H16       1.0  0.5059885162297773  0.11005083170024929  0.28805016188011484  1.0000
  H   H17       1.0  0.2673543720072474  0.49435630108099093  0.3279527554076013  1.0000
  H   H18       1.0  0.2874261283435189  0.44108163330542266  0.2603459903897163  1.0000
  H   H19       1.0  0.7789131183901716  0.3214259767214571  0.15096780855539293  1.0000
  H   H20       1.0  0.7977596704849078  0.4789246613035516  0.6849293915986863  1.0000
  H   H21       1.0  0.7974387033829872  0.41269422135604117  0.8065250741798736  1.0000
  H   H22       1.0  0.2919968108351297  0.374781244959884  0.8876006878557376  1.0000
  H   H23       1.0  0.2538526705757889  0.3209818062047917  0.007912695239028267  1.0000
  H   H24       1.0  0.5059210663868825  0.2871397504255455  0.10069303982660222  1.0000
  H   H25       1.0  0.18474959004571187  0.3684584845635754  0.15958499512269242  1.0000
  H   H26       1.0  0.16345497972786663  0.1623138983278878  0.9620981077522687  1.0000
  H   H27       1.0  0.1278008486621189  0.9613829395318518  0.3748608780866007  1.0000
  C   C1        1.0  0.527914481436163  0.44668356672394793  0.6000315742908172  1.0000
  C   C2        1.0  0.5506379903486903  0.45219805860927664  0.44575176441038183  1.0000
  C   C3        1.0  0.5236348020766286  0.5998586307071319  0.4517758044274985  1.0000
  C   C4        1.0  0.3771513381806315  0.3465096853074384  0.7056304048858026  1.0000
  C   C5        1.0  0.3849416170526396  0.3085657645096589  0.7737665556994814  1.0000
  C   C6        1.0  0.6695707055130526  0.23014098984837264  0.9233081554203012  1.0000
  C   C7        1.0  0.6517751370483181  0.20061896792841338  0.9920750601106009  1.0000
  C   C8        1.0  0.6798547386446357  0.7094112075152594  0.35679654249799614  1.0000
  C   C9        1.0  0.680452628888702  0.7775514928849888  0.3264034228112748  1.0000
  C   C10       1.0  0.4063936270208189  0.916231181682093  0.2568283226489641  1.0000
  C   C11       1.0  0.3892614034718704  0.984192293455493  0.21874773370916503  1.0000
  C   C12       1.0  0.5263341308054805  0.4077362470930481  0.6734751444352728  1.0000
  C   C13       1.0  0.5369553377349519  0.3316968234956548  0.8110463705884715  1.0000
  C   C14       1.0  0.5357571527360747  0.2943290740381812  0.883929171754659  1.0000
  C   C15       1.0  0.5043117294312438  0.2313583644710135  0.024567986142066907  1.0000
  C   C16       1.0  0.4937575111664215  0.19765840611177038  0.09719125939754049  1.0000
  C   C17       1.0  0.4898730780963803  0.1290062571272514  0.1349608468314969  1.0000
  C   C18       1.0  0.36159937294794287  0.7054227556274881  0.44745908962048736  1.0000
  C   C19       1.0  0.36867903728208523  0.7734524631502993  0.4175209992282873  1.0000
  C   C20       1.0  0.6503122153115798  0.9228630018472829  0.3456418169636135  1.0000
  C   C21       1.0  0.6364216268051024  0.991456849679544  0.30600877165261403  1.0000
  C   C22       1.0  0.7210473387891697  0.3577554084586581  0.4293251558496111  1.0000
  C   C23       1.0  0.723373765512882  0.326898378239612  0.39184205959490004  1.0000
  C   C24       1.0  0.43678023485531986  0.25717726012825176  0.3260127300285661  1.0000
  C   C25       1.0  0.4120142966091009  0.2189798692455938  0.2964810116866517  1.0000
  C   C26       1.0  0.5203273138923592  0.6731641218771572  0.4176599128712298  1.0000
  C   C27       1.0  0.5302001108017579  0.8105068762224333  0.3566983904748826  1.0000
  C   C28       1.0  0.5295690977906633  0.883263694116138  0.32120375269641954  1.0000
  C   C29       1.0  0.5039116922829551  0.023844862309836398  0.2427996114501099  1.0000
  C   C30       1.0  0.4943442736675294  0.09639315514612433  0.20378811367844923  1.0000
  C   C31       1.0  0.5008398336924742  0.1342968028789926  0.23465096064248314  1.0000
  C   C32       1.0  0.4015607031974255  0.4479049651472166  0.3452882532209928  1.0000
  C   C33       1.0  0.4113177587883854  0.41760682830102525  0.3073036666563028  1.0000
  C   C34       1.0  0.6973988009429704  0.3431524638723076  0.22895718993752473  1.0000
  C   C35       1.0  0.6770431612548933  0.3033302453859861  0.20032632212024026  1.0000
  C   C36       1.0  0.6763670911801684  0.4317265234705445  0.7099593771423188  1.0000
  C   C37       1.0  0.6768529855675995  0.39418359739116937  0.7782514863421854  1.0000
  C   C38       1.0  0.3967490037225332  0.325538215470246  0.9170963752726922  1.0000
  C   C39       1.0  0.3774170151251043  0.2952681204579476  0.9851982662626213  1.0000
  C   C40       1.0  0.5588485948574017  0.4184906640382381  0.4059723456278236  1.0000
  C   C41       1.0  0.5736794113430435  0.35669366833961647  0.33004129692418627  1.0000
  C   C42       1.0  0.5707290990020367  0.32038718449539527  0.2934508361577742  1.0000
  C   C43       1.0  0.5301234892748639  0.2416863181020615  0.23207688150331768  1.0000
  C   C44       1.0  0.5068634943549101  0.20291752140693117  0.19851687280591085  1.0000
  C   C45       1.0  0.5003685439181281  0.23382838251610136  0.12976112414158794  1.0000
  C   C46       1.0  0.8476338822284076  0.4095065991872673  0.18775579849496896  1.0000
  C   C47       1.0  0.8290513181967611  0.19036506307725892  0.8955389292848892  1.0000
  C   C48       1.0  0.7905095163434057  0.8956019100804085  0.413251350386034  1.0000
  O   O1        1.0  0.29381720876121875  0.572538691413733  0.4388002046112831  1.0000
  O   O2        1.0  0.2880089651013975  0.48680720011328305  0.5725950762074917  1.0000
  O   O3        1.0  0.31164792846833933  0.43920422127528974  0.4865350612940207  1.0000
  O   O4        1.0  0.7570250867009491  0.5700308779787592  0.49186208758216315  1.0000
  O   O5        1.0  0.781841773779469  0.4917150175065074  0.435740564981394  1.0000
  O   O6        1.0  0.7692647692466181  0.43632192830239097  0.5702406000608351  1.0000
  O   O7        1.0  0.09245300131928498  0.41247393401974364  0.14492424131827158  1.0000
  O   O8        1.0  0.7598455569796201  0.4591359050807571  0.1879324928621742  1.0000
  O   O9        1.0  0.07742141699901592  0.1482614847446655  0.9326520211014966  1.0000
  O   O10       1.0  0.747073961375371  0.19109143487924027  0.8459371299581948  1.0000
  O   O11       1.0  0.030908530944088856  0.9325304229508549  0.4182566090280486  1.0000
  O   O12       1.0  0.6990172240748436  0.8465794169325918  0.4621904724028454  1.0000
