data_image0
_chemical_formula_structural       Rb4H16C12S12N12O4
_chemical_formula_sum              "Rb4 H16 C12 S12 N12 O4"
_cell_length_a       7.368480500886585
_cell_length_b       10.456063194227061
_cell_length_c       11.58001187161993
_cell_angle_alpha    76.71707465281072
_cell_angle_beta     80.8247395001889
_cell_angle_gamma    89.13895668251546

_space_group_name_H-M_alt    "P 1"
_space_group_IT_number       1

loop_
  _space_group_symop_operation_xyz
  'x, y, z'

loop_
  _atom_site_type_symbol
  _atom_site_label
  _atom_site_symmetry_multiplicity
  _atom_site_fract_x
  _atom_site_fract_y
  _atom_site_fract_z
  _atom_site_occupancy
  Rb  Rb1       1.0  0.2355137033925558  0.568617929315252  0.05141579356465801  1.0000
  Rb  Rb2       1.0  0.764492180853267  0.43137997985893856  0.9485881942373806  1.0000
  Rb  Rb3       1.0  0.2008052474222524  0.3780535456497062  0.417493254977721  1.0000
  Rb  Rb4       1.0  0.7991911421690503  0.6219492602382317  0.58250810119889  1.0000
  H   H1        1.0  0.572726594748616  0.44886654460723446  0.21492636085516642  1.0000
  H   H2        1.0  0.42727921237533906  0.5511284089847948  0.7850808325806966  1.0000
  H   H3        1.0  0.5040142055850295  0.30909314851935926  0.20367250493509204  1.0000
  H   H4        1.0  0.4959903295448171  0.6909057423215186  0.7963305547650988  1.0000
  H   H5        1.0  0.06116041354714239  0.6988136846029462  0.2898141949706102  1.0000
  H   H6        1.0  0.9388400485274813  0.30118716604393103  0.7101871489686644  1.0000
  H   H7        1.0  0.8977762736027016  0.614020095372993  0.27893098995416915  1.0000
  H   H8        1.0  0.10222423960055949  0.3859827279444729  0.7210673528967746  1.0000
  H   H9        1.0  0.18141399743002035  0.8324660645002523  0.6351432972169916  1.0000
  H   H10       1.0  0.8185877869094964  0.16753282841576575  0.36485658737224475  1.0000
  H   H11       1.0  0.34488999710195856  0.04880352737523448  0.8994846437452536  1.0000
  H   H12       1.0  0.6551091161426398  0.9511983026558607  0.10051663609130662  1.0000
  H   H13       1.0  0.4928688784631205  0.8359846595792958  0.30948304835172286  1.0000
  H   H14       1.0  0.5071301305225687  0.164013241087936  0.6905181856676563  1.0000
  H   H15       1.0  0.018029552807845996  0.04636743428930149  0.2218353063778125  1.0000
  H   H16       1.0  0.9819735026679266  0.9536275282252833  0.7781661199497236  1.0000
  C   C1        1.0  0.33756612716586426  0.8129850525540689  0.47669179408958934  1.0000
  C   C2        1.0  0.6624343591863066  0.1870167946992183  0.5233041613094684  1.0000
  C   C3        1.0  0.41265586038916513  0.0224934600305389  0.3360143039363308  1.0000
  C   C4        1.0  0.5873432242886449  0.977507407631215  0.663979404453613  1.0000
  C   C5        1.0  0.22829840473802673  0.019048700686866496  0.5192530873337374  1.0000
  C   C6        1.0  0.771700759349251  0.9809551042972797  0.48074432741536544  1.0000
  C   C7        1.0  0.07403124594289776  0.2328030858845764  0.1062481206682335  1.0000
  C   C8        1.0  0.9259677627568407  0.7671948170651248  0.8937522493520262  1.0000
  C   C9        1.0  0.18731660403167885  0.027259580864438197  0.06666228854466277  1.0000
  C   C10       1.0  0.8126852582875584  0.9727422607863402  0.9333369824081145  1.0000
  C   C11       1.0  0.25774049890488726  0.23473571922651357  0.9229142980224123  1.0000
  C   C12       1.0  0.7422571872440145  0.7652641437365089  0.07708666734875892  1.0000
  S   S1        1.0  0.3505848391819199  0.6490639993460974  0.5169230143049361  1.0000
  S   S2        1.0  0.6494101481631274  0.350937831515246  0.48307436686431526  1.0000
  S   S3        1.0  0.9498153171843737  0.3111856345499433  0.20393677820356262  1.0000
  S   S4        1.0  0.05018644230569439  0.6888122663246107  0.7960667669276517  1.0000
  S   S5        1.0  0.2096791587709319  0.865529742158877  0.10951100385026542  1.0000
  S   S6        1.0  0.7903240009637497  0.13446914971957108  0.8904904682944519  1.0000
  S   S7        1.0  0.10234322232478377  0.0929934962640928  0.6189903965127711  1.0000
  S   S8        1.0  0.8976572388919875  0.9070073612301993  0.38100835542914513  1.0000
  S   S9        1.0  0.5336765889224891  0.0993862240224104  0.2023590658399712  1.0000
  S   S10       1.0  0.4663114974551305  0.9006146131379039  0.797636630091233  1.0000
  S   S11       1.0  0.3688646420449827  0.3125816932626719  0.7857261705889014  1.0000
  S   S12       1.0  0.6311331486487787  0.687422096781745  0.21427570459857043  1.0000
  N   N1        1.0  0.15909601559623346  0.30062884071730167  0.9979272457137112  1.0000
  N   N2        1.0  0.8409002960153485  0.6993710164358827  0.002074724099351566  1.0000
  N   N3        1.0  0.3150935491632154  0.08770801805756889  0.4118865415015377  1.0000
  N   N4        1.0  0.684901361059957  0.9122908572216062  0.5881140453015375  1.0000
  N   N5        1.0  0.24581056021671085  0.8840657121053113  0.5510167753616527  1.0000
  N   N6        1.0  0.754189849013585  0.11593317956580759  0.4489823856712292  1.0000
  N   N7        1.0  0.2704411684628808  0.09994711674681872  0.9580209136721008  1.0000
  N   N8        1.0  0.7295607201355451  0.9000557055330699  0.04197901673431666  1.0000
  N   N9        1.0  0.4178930766894382  0.886227625788095  0.3682457834636139  1.0000
  N   N10       1.0  0.5821060356973076  0.11377421109041562  0.6317529043755812  1.0000
  N   N11       1.0  0.08607087492699607  0.0982314168538139  0.1378661219971562  1.0000
  N   N12       1.0  0.9139281597659872  0.901767469007467  0.8621340434776171  1.0000
  O   O1        1.0  0.48059844414061803  0.40509401980197873  0.18386072352429747  1.0000
  O   O2        1.0  0.5194102160309341  0.5949048770560665  0.816143642845837  1.0000
  O   O3        1.0  0.019203862324673096  0.6069172886162164  0.3058469416269247  1.0000
  O   O4        1.0  0.9807979731434741  0.3930835769703903  0.6941499418739807  1.0000
