data_image0
_chemical_formula_structural       Hg4H24C20S8N16
_chemical_formula_sum              "Hg4 H24 C20 S8 N16"
_cell_length_a       5.98600575928531
_cell_length_b       7.803009886451476
_cell_length_c       19.40344767497846
_cell_angle_alpha    89.99983468871542
_cell_angle_beta     89.99753635733224
_cell_angle_gamma    105.65073973349924

_space_group_name_H-M_alt    "P 1"
_space_group_IT_number       1

loop_
  _space_group_symop_operation_xyz
  'x, y, z'

loop_
  _atom_site_type_symbol
  _atom_site_label
  _atom_site_symmetry_multiplicity
  _atom_site_fract_x
  _atom_site_fract_y
  _atom_site_fract_z
  _atom_site_occupancy
  Hg  Hg1       1.0  0.8083686335504224  0.6676450705628267  0.9137402296771668  1.0000
  Hg  Hg2       1.0  0.19163678042159663  0.33236761462887904  0.41373702840397913  1.0000
  Hg  Hg3       1.0  0.19160450202182494  0.3323607831220486  0.0862658436357648  1.0000
  Hg  Hg4       1.0  0.8083773197121006  0.6676502228201571  0.5862597679769195  1.0000
  H   H1        1.0  0.2000302320772462  0.977388251865442  0.8113242200872082  1.0000
  H   H2        1.0  0.7999690891201824  0.022609690398347503  0.3113265521237878  1.0000
  H   H3        1.0  0.7999564033027512  0.02259897215797221  0.18868082238135744  1.0000
  H   H4        1.0  0.20005002241301648  0.9774081475832762  0.6886764286953453  1.0000
  H   H5        1.0  0.0418946487341643  0.10530079585355173  0.85771702157421  1.0000
  H   H6        1.0  0.9580962745879946  0.8946888542625759  0.35771571555350334  1.0000
  H   H7        1.0  0.9580765501706099  0.8946757791901095  0.1422900824639086  1.0000
  H   H8        1.0  0.041914951147852306  0.10533031330381702  0.6422903575477436  1.0000
  H   H9        1.0  0.6249442526436297  0.01757208639943291  0.8577918095956251  1.0000
  H   H10       1.0  0.3750552783445755  0.9824135677413396  0.35778883933504363  1.0000
  H   H11       1.0  0.3750265467620721  0.9823938422681737  0.14220447161471136  1.0000
  H   H12       1.0  0.6249729222798309  0.017601610129773303  0.6422069262148115  1.0000
  H   H13       1.0  0.4706330626569298  0.8234902263865538  0.8116971291539914  1.0000
  H   H14       1.0  0.5293665279072145  0.1764943839155322  0.3116937177046211  1.0000
  H   H15       1.0  0.5293553120470734  0.17648768257036815  0.18829193675223627  1.0000
  H   H16       1.0  0.4706507811063005  0.8235088150360069  0.6882968941738383  1.0000
  H   H17       1.0  0.9901030975668093  0.7117100664447947  0.7499976798424869  1.0000
  H   H18       1.0  0.009894965636370042  0.2882811520234157  0.24999860123298848  1.0000
  H   H19       1.0  0.6808067153956829  0.6471941137419609  0.7499963526404232  1.0000
  H   H20       1.0  0.3191934867216375  0.3527984360687953  0.24999374395584087  1.0000
  H   H21       1.0  0.8335628378260369  0.27887493883391573  0.795833303430129  1.0000
  H   H22       1.0  0.16642639096602346  0.7211160080593261  0.2958307075995351  1.0000
  H   H23       1.0  0.16641972090958038  0.7211149462118842  0.20417328518239947  1.0000
  H   H24       1.0  0.8335778189837201  0.27888319598954336  0.7041753655221898  1.0000
  C   C1        1.0  0.2893263867371942  0.49851294059164547  0.8544526331666162  1.0000
  C   C2        1.0  0.7107283976474362  0.5015048756384033  0.35443590578872636  1.0000
  C   C3        1.0  0.7107380337363906  0.5014769563687624  0.14555447033304605  1.0000
  C   C4        1.0  0.2892520226594755  0.49851694963167864  0.6455536755834148  1.0000
  C   C5        1.0  0.3199014665537733  0.791421668154918  0.9822264461041502  1.0000
  C   C6        1.0  0.6800665182291399  0.20859062310429985  0.4822223466120264  1.0000
  C   C7        1.0  0.6800634493766397  0.20859882372573682  0.017772412060381305  1.0000
  C   C8        1.0  0.3199400309079294  0.7914152356647935  0.5177770266625998  1.0000
  C   C9        1.0  0.04415213171520091  0.025488562816356402  0.8112756925695452  1.0000
  C   C10       1.0  0.955844124419116  0.9745053896666325  0.3112761281683802  1.0000
  C   C11       1.0  0.9558318975780153  0.9744959991612205  0.18872934991165383  1.0000
  C   C12       1.0  0.044171445498072615  0.025507124433850902  0.6887278834107705  1.0000
  C   C13       1.0  0.6247472057593131  0.9378991308193324  0.8112067329486694  1.0000
  C   C14       1.0  0.3752438507691239  0.06208950212341342  0.3112028450518665  1.0000
  C   C15       1.0  0.3752328152916605  0.0620787767717133  0.18878697135802722  1.0000
  C   C16       1.0  0.6247748610828765  0.937917689416196  0.6887913744287959  1.0000
  C   C17       1.0  0.8355904196990454  0.7614167833826431  0.7499986482153816  1.0000
  C   C18       1.0  0.16441024959092942  0.23857709713138325  0.24999763284746024  1.0000
  C   C19       1.0  0.8333026508257506  0.19654305242016792  0.7500037336376482  1.0000
  C   C20       1.0  0.1666934734177303  0.8034521579677263  0.2500018241554472  1.0000
  S   S1        1.0  0.498144947306173  0.40235028222911506  0.869578502375461  1.0000
  S   S2        1.0  0.5018833088376269  0.5976319608348389  0.3695634231102148  1.0000
  S   S3        1.0  0.5019002280856385  0.5976276345118096  0.13042602436396322  1.0000
  S   S4        1.0  0.49810071939282347  0.40238587214889077  0.6304359503105559  1.0000
  S   S5        1.0  0.060417578368486574  0.7669367453122861  0.0159032966997827  1.0000
  S   S6        1.0  0.9395430639476035  0.23307343530603933  0.5158952624682769  1.0000
  S   S7        1.0  0.9395566256968665  0.23308640939027475  0.9841017458804515  1.0000
  S   S8        1.0  0.06046575863113895  0.7669151231632156  0.4840979263066388  1.0000
  N   N1        1.0  0.13742874921047826  0.5643953575834144  0.8427402208665385  1.0000
  N   N2        1.0  0.8626261012253095  0.43560324547286206  0.3427210381445606  1.0000
  N   N3        1.0  0.8626162907886298  0.4356011904865724  0.15727409796762265  1.0000
  N   N4        1.0  0.1373569917491295  0.5644119257745005  0.6572762737896272  1.0000
  N   N5        1.0  0.5094468522364578  0.8133594868651812  0.9606714443257047  1.0000
  N   N6        1.0  0.49052861779641443  0.18664087610459035  0.4606643915892408  1.0000
  N   N7        1.0  0.49051472359604287  0.18662773357181817  0.039331536802080805  1.0000
  N   N8        1.0  0.5094820062392458  0.8133955924009015  0.5393354970659276  1.0000
  N   N9        1.0  0.8347057982630446  0.8685839585031944  0.8130200411758183  1.0000
  N   N10       1.0  0.1652896819703003  0.131408551470237  0.31301981948252694  1.0000
  N   N11       1.0  0.16528157305602062  0.13140060422522032  0.1869767553283239  1.0000
  N   N12       1.0  0.8347273589598388  0.8685986397269333  0.686977492242008  1.0000
  N   N13       1.0  0.04425857004347481  0.13389886339030713  0.7500031904582587  1.0000
  N   N14       1.0  0.9557384894560174  0.8660990087339615  0.2500044288214199  1.0000
  N   N15       1.0  0.6229268187214885  0.045867418765510606  0.7500001829069518  1.0000
  N   N16       1.0  0.37707217987430386  0.954126461488542  0.249996613538123  1.0000
