data_image0
_chemical_formula_structural       Cd2H36C36N8O12
_chemical_formula_sum              "Cd2 H36 C36 N8 O12"
_cell_length_a       8.373666579369376
_cell_length_b       9.595293730824082
_cell_length_c       11.707579504004245
_cell_angle_alpha    90.00006279004057
_cell_angle_beta     89.99991913702213
_cell_angle_gamma    95.63204064385312

_space_group_name_H-M_alt    "P 1"
_space_group_IT_number       1

loop_
  _space_group_symop_operation_xyz
  'x, y, z'

loop_
  _atom_site_type_symbol
  _atom_site_label
  _atom_site_symmetry_multiplicity
  _atom_site_fract_x
  _atom_site_fract_y
  _atom_site_fract_z
  _atom_site_occupancy
  Cd  Cd1       1.0  0.0  0.0  0.0  1.0000
  Cd  Cd2       1.0  0.5000003768633688  7.733404993238617e-10  0.49999976809876057  1.0000
  H   H1        1.0  0.1395005557814315  0.8744114401055968  0.736628248266129  1.0000
  H   H2        1.0  0.3604993680035022  0.12558819382858388  0.23662948644371806  1.0000
  H   H3        1.0  0.8604989844038329  0.12558791151859341  0.2633708839199258  1.0000
  H   H4        1.0  0.6395015919305607  0.874413256850758  0.7633704998900868  1.0000
  H   H5        1.0  0.15118639694122754  0.7330885996345986  0.47730728333188926  1.0000
  H   H6        1.0  0.34881177791091733  0.2669102657070539  0.9773069946396051  1.0000
  H   H7        1.0  0.8488132557546707  0.26691179921286334  0.5226927030021075  1.0000
  H   H8        1.0  0.6511863425239923  0.7330869868629932  0.022692991693745102  1.0000
  H   H9        1.0  0.30844609519093774  0.5296176762564572  0.6973295342939424  1.0000
  H   H10       1.0  0.1915513987507396  0.4703808549883136  0.19733039976232192  1.0000
  H   H11       1.0  0.6915522502675843  0.47038167075863396  0.3026695978927236  1.0000
  H   H12       1.0  0.8084469467070009  0.5296184920272822  0.8026695865718594  1.0000
  H   H13       1.0  0.3048750200603436  0.6984037782245736  0.6368183851624707  1.0000
  H   H14       1.0  0.19512497438471146  0.30159469102698466  0.1368199492086433  1.0000
  H   H15       1.0  0.695124520124928  0.3015955733996166  0.3631807470235913  1.0000
  H   H16       1.0  0.8048732585608251  0.6984036087663414  0.8631808912726486  1.0000
  H   H17       1.0  0.06011151967635442  0.6604520433820583  0.049618550458099306  1.0000
  H   H18       1.0  0.439890054549025  0.33954842230345145  0.5496190891066136  1.0000
  H   H19       1.0  0.9398894402584901  0.3395494072967723  0.9503805817281901  1.0000
  H   H20       1.0  0.5601107928736154  0.6604519811531163  0.4503808972267791  1.0000
  H   H21       1.0  0.17122622292797018  0.4779517368142195  0.8875063799967364  1.0000
  H   H22       1.0  0.3287746186922007  0.5220480792874085  0.38750629891729466  1.0000
  H   H23       1.0  0.8287746244946702  0.5220486666423483  0.1124936063366562  1.0000
  H   H24       1.0  0.6712250340036974  0.47795231956005313  0.6124936874167021  1.0000
  H   H25       1.0  0.9599656109217989  0.6445539494609492  0.3274936298090623  1.0000
  H   H26       1.0  0.5400334279840137  0.3554451953161292  0.8274937334098951  1.0000
  H   H27       1.0  0.040033929263472594  0.3554454021632409  0.6725055023769997  1.0000
  H   H28       1.0  0.45996480496231135  0.6445531044766923  0.17250625292387411  1.0000
  H   H29       1.0  0.026790976704155898  0.11728343916060169  0.7779584547094984  1.0000
  H   H30       1.0  0.47320898374372433  0.8827172906346379  0.2779585521133399  1.0000
  H   H31       1.0  0.9732098707177029  0.8827169642964636  0.22204238577141672  1.0000
  H   H32       1.0  0.526790668951392  0.1172831082133285  0.7220422883681721  1.0000
  H   H33       1.0  0.20601902986081908  0.12108701109120554  0.8295932915887008  1.0000
  H   H34       1.0  0.29398072331482433  0.8789127322472015  0.32959356700690995  1.0000
  H   H35       1.0  0.7939818175610398  0.87891339236586  0.17040754889221432  1.0000
  H   H36       1.0  0.7060188168688696  0.12108661937799073  0.6704072734741902  1.0000
  C   C1        1.0  0.4544026796956473  0.033199105664209604  0.9226900811118314  1.0000
  C   C2        1.0  0.04559906706233362  0.9667986620043865  0.42268641636113813  1.0000
  C   C3        1.0  0.5455980552163665  0.9668002505690797  0.0773090510736267  1.0000
  C   C4        1.0  0.954401780359525  0.033201741452678804  0.577314424119777  1.0000
  C   C5        1.0  0.38881749874565935  0.007655148034380901  0.0389523501467011  1.0000
  C   C6        1.0  0.1111912634109089  0.992345332755896  0.5389572258368744  1.0000
  C   C7        1.0  0.6111845434045122  0.9923452600307814  0.9610467820385722  1.0000
  C   C8        1.0  0.8888119734636604  0.007655079919871401  0.46104446879035527  1.0000
  C   C9        1.0  0.124847786644132  0.7920166425303279  0.8004663501006206  1.0000
  C   C10       1.0  0.3751532147120998  0.20798307113959422  0.30046679347434246  1.0000
  C   C11       1.0  0.8751530607785155  0.20798376092623982  0.199533636232772  1.0000
  C   C12       1.0  0.6248476327105477  0.7920173323169735  0.6995331928590501  1.0000
  C   C13       1.0  0.08349490199274362  0.6311696214329318  0.4878218276905031  1.0000
  C   C14       1.0  0.4165032535622189  0.3688292562831563  0.9878224163739945  1.0000
  C   C15       1.0  0.9165034434657711  0.3688297255821596  0.5121773044961628  1.0000
  C   C16       1.0  0.5834949793841061  0.6311690435096653  0.012177569959774799  1.0000
  C   C17       1.0  0.2296624412184372  0.6099143627883875  0.6736799737788957  1.0000
  C   C18       1.0  0.2703362908519722  0.39008414523368623  0.17368068720232802  1.0000
  C   C19       1.0  0.7703370989660457  0.390084988836307  0.3263200125546817  1.0000
  C   C20       1.0  0.729662054605761  0.6099152017819024  0.8263192991318606  1.0000
  C   C21       1.0  0.09020062163043722  0.6764819444087923  0.9603456484484738  1.0000
  C   C22       1.0  0.4098001988246339  0.3235190046364806  0.4603470149084004  1.0000
  C   C23       1.0  0.9098003383044074  0.3235195062700384  0.0396534837378084  1.0000
  C   C24       1.0  0.5902006485972251  0.6764813988205918  0.5396538255725147  1.0000
  C   C25       1.0  0.14283868185628282  0.5853662611687868  0.8813907464726259  1.0000
  C   C26       1.0  0.3571610887713418  0.41463459034983435  0.3813913941017546  1.0000
  C   C27       1.0  0.8571609708403969  0.4146341376781777  0.11860838571384852  1.0000
  C   C28       1.0  0.6428386764359644  0.5853668557204018  0.6186085922326541  1.0000
  C   C29       1.0  0.9774881833253489  0.5797028977100069  0.40232289354344897  1.0000
  C   C30       1.0  0.5225107182531515  0.420296335129038  0.9023230732666719  1.0000
  C   C31       1.0  0.022511356859922716  0.42029645391418324  0.597676238642606  1.0000
  C   C32       1.0  0.47748751469317335  0.5797019646637835  0.09767691306709743  1.0000
  C   C33       1.0  0.10707792414149958  0.5528886355306994  0.58631951009464  1.0000
  C   C34       1.0  0.39292108076499227  0.44711081690498844  0.08632015076031511  1.0000
  C   C35       1.0  0.8929217285543984  0.4471117633167694  0.41368047623935683  1.0000
  C   C36       1.0  0.6070759574545833  0.5528874782787342  0.9136798355740512  1.0000
  N   N1        1.0  0.07879529470035611  0.8045732267872979  0.9086475790769057  1.0000
  N   N2        1.0  0.4212056206315253  0.1954276614176464  0.40864881867380387  1.0000
  N   N3        1.0  0.9212056652336996  0.19542822389203712  0.091352407256899  1.0000
  N   N4        1.0  0.5787953393017489  0.804573789262193  0.5913520218075236  1.0000
  N   N5        1.0  0.16416033779752578  0.6600604171446989  0.7807627958094302  1.0000
  N   N6        1.0  0.33583939248051553  0.33993822150555536  0.2807633977772355  1.0000
  N   N7        1.0  0.8358403971137065  0.3399389390890947  0.2192371905235433  1.0000
  N   N8        1.0  0.6641602602146008  0.6600621773424109  0.7192374427042765  1.0000
  O   O1        1.0  0.09527736154056751  0.14653641090746564  0.8459528465511996  1.0000
  O   O2        1.0  0.4047223616120236  0.8534633516834166  0.3459529869503228  1.0000
  O   O3        1.0  0.9047233733706649  0.853462945326328  0.1540471397817811  1.0000
  O   O4        1.0  0.5952760963563434  0.1465370425554511  0.6540478535318002  1.0000
  O   O5        1.0  0.2570601709869038  0.018780884656479205  0.08870395245079271  1.0000
  O   O6        1.0  0.2429353578765472  0.9812196039796746  0.5887027057162015  1.0000
  O   O7        1.0  0.7429417586518524  0.9812184761859157  0.9112951797340615  1.0000
  O   O8        1.0  0.757065377034685  0.0187797522541189  0.4112972806167718  1.0000
  O   O9        1.0  0.4001064342287534  0.0753437008718763  0.8294180725155799  1.0000
  O   O10       1.0  0.09989115483365654  0.9246581274903254  0.3294228563364144  1.0000
  O   O11       1.0  0.5998945257053092  0.9246577498074589  0.170581913818225  1.0000
  O   O12       1.0  0.9001099176110331  0.07534437041228162  0.670577984145325  1.0000
