data_image0
_chemical_formula_structural       Nd2H22C32N4Cl12O12
_chemical_formula_sum              "Nd2 H22 C32 N4 Cl12 O12"
_cell_length_a       8.834130433875654
_cell_length_b       12.182082527957702
_cell_length_c       12.291991025056058
_cell_angle_alpha    109.26614341800008
_cell_angle_beta     104.97001410618401
_cell_angle_gamma    102.44747739079224

_space_group_name_H-M_alt    "P 1"
_space_group_IT_number       1

loop_
  _space_group_symop_operation_xyz
  'x, y, z'

loop_
  _atom_site_type_symbol
  _atom_site_label
  _atom_site_symmetry_multiplicity
  _atom_site_fract_x
  _atom_site_fract_y
  _atom_site_fract_z
  _atom_site_occupancy
  Nd  Nd1       1.0  0.34831376170322415  0.11720132388033024  0.008619215630034238  1.0000
  Nd  Nd2       1.0  0.6516849608122329  0.8827965226443696  0.9913779651068423  1.0000
  H   H1        1.0  0.9158147006751847  0.1546022089953993  0.9588559059060415  1.0000
  H   H2        1.0  0.08418636678320722  0.8453956408930025  0.04114170306041139  1.0000
  H   H3        1.0  0.054178567483525265  0.8702788332739074  0.6928282452166314  1.0000
  H   H4        1.0  0.945819396073908  0.1297199335663279  0.3071699124282006  1.0000
  H   H5        1.0  0.5027272777141221  0.11222777533170358  0.395175774937556  1.0000
  H   H6        1.0  0.4972765293099002  0.887770997273293  0.6048210083279814  1.0000
  H   H7        1.0  0.49472932417773297  0.33034370031347043  0.30214116407717734  1.0000
  H   H8        1.0  0.50526439449186  0.6696559862042478  0.6978614030533022  1.0000
  H   H9        1.0  0.5480484379916389  0.5498317855540407  0.4396664027918574  1.0000
  H   H10       1.0  0.4519460825171819  0.45016974143244687  0.5603352864464668  1.0000
  H   H11       1.0  0.47087452118668693  0.6910758253051128  0.3403122924125981  1.0000
  H   H12       1.0  0.529125022058743  0.3089238643328614  0.6596864553853551  1.0000
  H   H13       1.0  0.35694044966346883  0.6104384792901172  0.11277684688112544  1.0000
  H   H14       1.0  0.6430563843037048  0.3895630466525759  0.8872211956647149  1.0000
  H   H15       1.0  0.29427431367540896  0.5428711728715642  0.9301627396194974  1.0000
  H   H16       1.0  0.7057209103163872  0.4571266712520837  0.06983624372624327  1.0000
  H   H17       1.0  0.14244804509102954  0.4395982336765913  0.7040616151538757  1.0000
  H   H18       1.0  0.8575464073489129  0.5604005289995868  0.2959367151309992  1.0000
  H   H19       1.0  0.05705677196434073  0.20806262782920737  0.5991590487576772  1.0000
  H   H20       1.0  0.9429423703614789  0.7919361415743823  0.4008401379863501  1.0000
  H   H21       1.0  0.13876511748961207  0.09363625701164582  0.7267847898430234  1.0000
  H   H22       1.0  0.8612363634822274  0.9063625148741468  0.27321401014617674  1.0000
  C   C1        1.0  0.6843778917125007  0.17989831845634544  0.9778072408340889  1.0000
  C   C2        1.0  0.3156217196018146  0.8201041354919382  0.022194865917320776  1.0000
  C   C3        1.0  0.8338697094772131  0.20658586198048573  0.9378104335865202  1.0000
  C   C4        1.0  0.16612708790567152  0.7934129040593946  0.06218832492793082  1.0000
  C   C5        1.0  0.9279588256445804  0.9141627024811855  0.8249128709846758  1.0000
  C   C6        1.0  0.0720415383308293  0.08583883027006321  0.1750874438743608  1.0000
  C   C7        1.0  0.9397835448998748  0.8292894282181393  0.7042364163946787  1.0000
  C   C8        1.0  0.060218726514577305  0.17070842775961384  0.2957654816086261  1.0000
  C   C9        1.0  0.6128336569585001  0.08927043904820661  0.25424179567593097  1.0000
  C   C10       1.0  0.38717382131122957  0.9107366244812739  0.7457591869190311  1.0000
  C   C11       1.0  0.6271201044267797  0.12233380894711843  0.390788869484517  1.0000
  C   C12       1.0  0.3728857083925305  0.8776668102159988  0.6092113249257168  1.0000
  C   C13       1.0  0.4653173326537611  0.39551471403916566  0.26403880943389874  1.0000
  C   C14       1.0  0.5346791255814693  0.6044858951951397  0.7359629319956724  1.0000
  C   C15       1.0  0.49392223055406237  0.5173427788627762  0.3398522691276256  1.0000
  C   C16       1.0  0.5060796765250614  0.48265691678340533  0.6601493518531498  1.0000
  C   C17       1.0  0.45257912756192553  0.5953978284421383  0.28481971589098987  1.0000
  C   C18       1.0  0.5474204282773485  0.4046018629588418  0.7151806618757917  1.0000
  C   C19       1.0  0.38745755205238197  0.5500032989789504  0.15688085522332781  1.0000
  C   C20       1.0  0.6125400597635604  0.44999730929270515  0.8431186553677962  1.0000
  C   C21       1.0  0.3627283150533174  0.4263921135560693  0.08625820399080207  1.0000
  C   C22       1.0  0.6372665571969947  0.5736075719989985  0.9137421323012376  1.0000
  C   C23       1.0  0.2882428622561903  0.3716652597314649  0.949792770994172  1.0000
  C   C24       1.0  0.7117527689521452  0.6283335055080671  0.0502065883899051  1.0000
  C   C25       1.0  0.25556781096920383  0.44317164492325384  0.883455771160726  1.0000
  C   C26       1.0  0.7444305598047617  0.5568280430328656  0.11654276252244236  1.0000
  C   C27       1.0  0.1711318505412294  0.38521916929613553  0.7565021207653615  1.0000
  C   C28       1.0  0.8288657057996787  0.6147786764282089  0.2434956608411341  1.0000
  C   C29       1.0  0.12477259608573378  0.25760038795225887  0.6979133392108139  1.0000
  C   C30       1.0  0.8752249539582523  0.7423974568905863  0.3020836274112711  1.0000
  C   C31       1.0  0.1678150766813644  0.19308711051891686  0.7689951051849633  1.0000
  C   C32       1.0  0.8321856327386215  0.8069125799194055  0.23100304174337083  1.0000
  N   N1        1.0  0.40051027368007647  0.3503256225225684  0.14024430615977224  1.0000
  N   N2        1.0  0.5994857710417066  0.6496740647143469  0.8597562442470521  1.0000
  N   N3        1.0  0.24685127790161945  0.24782528476005442  0.8918746948369645  1.0000
  N   N4        1.0  0.7531490368956639  0.7521734863253827  0.10812470602186153  1.0000
  Cl  Cl1       1.0  0.9511108345746421  0.3651603006643925  0.011357586633117577  1.0000
  Cl  Cl2       1.0  0.04888868978004266  0.6348393863290768  0.9886387162115966  1.0000
  Cl  Cl3       1.0  0.7557043454100594  0.15385729933783676  0.7734663019320394  1.0000
  Cl  Cl4       1.0  0.24429322352467867  0.8461405481495136  0.2265331096432775  1.0000
  Cl  Cl5       1.0  0.7717339480844244  0.8115211155865083  0.5747929483408072  1.0000
  Cl  Cl6       1.0  0.22826209663735142  0.1884785716504069  0.4252076020660169  1.0000
  Cl  Cl7       1.0  0.941681670440154  0.6847340096013356  0.7072967544454442  1.0000
  Cl  Cl8       1.0  0.05831866954480348  0.3152647650101059  0.2927059063510242  1.0000
  Cl  Cl9       1.0  0.7065287665181116  0.026325982433057504  0.4546548014545237  1.0000
  Cl  Cl10      1.0  0.29348133407025045  0.9736764778368894  0.5453410824858622  1.0000
  Cl  Cl11      1.0  0.7490165344931156  0.28098724376319956  0.48285579171514575  1.0000
  Cl  Cl12      1.0  0.2509869585709268  0.7190133755622199  0.5171472344031613  1.0000
  O   O1        1.0  0.6520880899084246  0.0825944908492673  0.9970186147004226  1.0000
  O   O2        1.0  0.3479107006759038  0.9174061199857424  0.002981924989896531  1.0000
  O   O3        1.0  0.597667562010372  0.24968604966942112  0.9861967409953394  1.0000
  O   O4        1.0  0.40233598023179706  0.7503173313218029  0.013807199123178357  1.0000
  O   O5        1.0  0.051573481500497585  0.011574035372987602  0.8894414575624269  1.0000
  O   O6        1.0  0.9484330839799213  0.9884256625930947  0.11055694495543386  1.0000
  O   O7        1.0  0.7984091367879742  0.8807498583989927  0.8466282714275267  1.0000
  O   O8        1.0  0.2015978862843042  0.11925076773498232  0.1533770270039696  1.0000
  O   O9        1.0  0.545636930102482  0.1526454223622551  0.2076384771876505  1.0000
  O   O10       1.0  0.45436618603240225  0.8473570348685869  0.7923626419392988  1.0000
  O   O11       1.0  0.6639872370074896  0.0039992967364952  0.20368769979287288  1.0000
  O   O12       1.0  0.33601585393972744  0.9960031569683423  0.7963101593964269  1.0000
