data_image0
_chemical_formula_structural       CdH32C46S2N10O8
_chemical_formula_sum              "Cd1 H32 C46 S2 N10 O8"
_cell_length_a       6.819053591452812
_cell_length_b       10.83070893543162
_cell_length_c       15.660565100177426
_cell_angle_alpha    98.73240273471899
_cell_angle_beta     102.46857033096173
_cell_angle_gamma    95.73933992781286

_space_group_name_H-M_alt    "P 1"
_space_group_IT_number       1

loop_
  _space_group_symop_operation_xyz
  'x, y, z'

loop_
  _atom_site_type_symbol
  _atom_site_label
  _atom_site_symmetry_multiplicity
  _atom_site_fract_x
  _atom_site_fract_y
  _atom_site_fract_z
  _atom_site_occupancy
  Cd  Cd1       1.0  0.4999990260844385  0.9999994427733296  0.4999992701993748  1.0000
  H   H1        1.0  0.703309063968497  0.2835954134581016  0.5988660154484508  1.0000
  H   H2        1.0  0.2966823405381902  0.7164020439762169  0.4011319140943358  1.0000
  H   H3        1.0  0.8037709596752335  0.4980931221230307  0.5706889168935875  1.0000
  H   H4        1.0  0.19622090777239265  0.5019062362698179  0.4293124444312682  1.0000
  H   H5        1.0  0.7821167875163582  0.5280856569666811  0.41125043887759466  1.0000
  H   H6        1.0  0.21787766980872186  0.4719184109874489  0.588751648301738  1.0000
  H   H7        1.0  0.5738204244910958  0.1292517050003781  0.3304386140076759  1.0000
  H   H8        1.0  0.426186639394345  0.8707485235222523  0.6695610523500549  1.0000
  H   H9        1.0  0.7707588511440875  0.5131455079015338  0.14183924421181623  1.0000
  H   H10       1.0  0.2292433025042797  0.48685286672066747  0.8581629686842975  1.0000
  H   H11       1.0  0.43198396185293575  0.4023626751967271  0.09412024967818414  1.0000
  H   H12       1.0  0.5680183987661209  0.597636636577036  0.9058808019756058  1.0000
  H   H13       1.0  0.05446714809811936  0.3979975274128832  0.11082637595747262  1.0000
  H   H14       1.0  0.9455339298003907  0.6020027332495416  0.8891746547435206  1.0000
  H   H15       1.0  0.0206960920730239  0.17246324758321657  0.12473485757853812  1.0000
  H   H16       1.0  0.9793082048450259  0.8275379445268601  0.8752665674788889  1.0000
  H   H17       1.0  0.6561727098329087  0.05159726266564489  0.07906191626531721  1.0000
  H   H18       1.0  0.343831145921783  0.948402040332745  0.9209386344619122  1.0000
  H   H19       1.0  0.38021202971281554  0.17506111239803354  0.022689006387054202  1.0000
  H   H20       1.0  0.6197888303262077  0.8249382051894045  0.9773119068303304  1.0000
  H   H21       1.0  0.8029847378912863  0.45987057829709954  0.9874515581645016  1.0000
  H   H22       1.0  0.1970206129990402  0.5401287159259168  0.012548491636174202  1.0000
  H   H23       1.0  0.4688019205608995  0.3395376771603155  0.9370272153595354  1.0000
  H   H24       1.0  0.5312010990810022  0.6604644668001285  0.06297482810806092  1.0000
  H   H25       1.0  0.1189136136530777  0.0793602657809345  0.8710148153850668  1.0000
  H   H26       1.0  0.8810844439665573  0.920646590153723  0.1289815074882341  1.0000
  H   H27       1.0  0.17814048254275866  0.9416097999757014  0.7388109552505782  1.0000
  H   H28       1.0  0.8218597401241537  0.0583998852936745  0.2611871372359076  1.0000
  H   H29       1.0  0.9249408236675977  0.9171042854540589  0.5914332421275789  1.0000
  H   H30       1.0  0.07505766701223848  0.08289786113883219  0.4085651892159419  1.0000
  H   H31       1.0  0.569983895591136  0.15351839960861463  0.7027233389914969  1.0000
  H   H32       1.0  0.43000751435994283  0.8464790607874161  0.29727522991425553  1.0000
  C   C1        1.0  0.6972629568351465  0.29962071184924355  0.5313740996980912  1.0000
  C   C2        1.0  0.3027423886107811  0.7003785794120673  0.46862531073961133  1.0000
  C   C3        1.0  0.7527956204872198  0.41963165455164403  0.5151695483557432  1.0000
  C   C4        1.0  0.24720051450783126  0.5803667344400906  0.48483019270582167  1.0000
  C   C5        1.0  0.7438765406837434  0.4358228045048236  0.4280120686640815  1.0000
  C   C6        1.0  0.25611596945355336  0.564179377189568  0.571988366385675  1.0000
  C   C7        1.0  0.6810825141167028  0.3300543776253165  0.360526927829561  1.0000
  C   C8        1.0  0.3189134274552218  0.669949675630015  0.6394733796972789  1.0000
  C   C9        1.0  0.6265117624782023  0.2129220793406006  0.3818907806514603  1.0000
  C   C10       1.0  0.3734897402504842  0.7870800615483732  0.6181092062908178  1.0000
  C   C11       1.0  0.8358509502825981  0.40245138080155124  0.24342352836650602  1.0000
  C   C12       1.0  0.1641524697531267  0.5975460360468645  0.7565767873934989  1.0000
  C   C13       1.0  0.7631743209606653  0.41250938254389513  0.14644686272157512  1.0000
  C   C14       1.0  0.2368290990750594  0.5874880343045207  0.8535534530384299  1.0000
  C   C15       1.0  0.5455801356752233  0.34207140013566567  0.11739916131799082  1.0000
  C   C16       1.0  0.4544237309682516  0.6579279087861423  0.8826026681351778  1.0000
  C   C17       1.0  0.501483072316489  0.2996300782043662  0.20049802724734184  1.0000
  C   C18       1.0  0.4985225073221144  0.7003701650170556  0.799503418762882  1.0000
  C   C19       1.0  0.8985355004608238  0.3493466585770193  0.08966412926183415  1.0000
  C   C20       1.0  0.10146363024989569  0.650651715825674  0.9103352493095828  1.0000
  C   C21       1.0  0.88484356409311  0.21206395684411208  0.09782135365477272  1.0000
  C   C22       1.0  0.11516008469089199  0.7879344090027088  0.9021803583147802  1.0000
  C   C23       1.0  0.6955519141550113  0.149683859808043  0.07400445482272738  1.0000
  C   C24       1.0  0.3044521812367407  0.8503163981121704  0.9259987708399964  1.0000
  C   C25       1.0  0.5331979442433551  0.2280391239262016  0.042231362349532724  1.0000
  C   C26       1.0  0.466804427264492  0.7719601937709799  0.9577709680302038  1.0000
  C   C27       1.0  0.8012535684809025  0.3594901566552551  0.9922077330174306  1.0000
  C   C28       1.0  0.19875028727378927  0.6405091463431349  0.007792817709798813  1.0000
  C   C29       1.0  0.9183632304130357  0.299963942923533  0.9285830501381158  1.0000
  C   C30       1.0  0.08163568243820411  0.7000334884041735  0.0714162109496925  1.0000
  C   C31       1.0  0.5978472357547986  0.18080916308098693  0.8884805486970394  1.0000
  C   C32       1.0  0.4021489182322142  0.8191958302876259  0.11151923695043561  1.0000
  C   C33       1.0  0.5869989519272637  0.2840859069314732  0.9634379156466651  1.0000
  C   C34       1.0  0.4130055682946648  0.7159162312153031  0.03656426625734351  1.0000
  C   C35       1.0  0.8382949815410543  0.12498339947909899  0.7961582865840954  1.0000
  C   C36       1.0  0.16170050797872185  0.8750187587411203  0.20383986788660743  1.0000
  C   C37       1.0  0.010964235967733799  0.0652744197017583  0.8070608880010968  1.0000
  C   C38       1.0  0.9890353167875432  0.9347324274575258  0.19293493394563654  1.0000
  C   C39       1.0  0.04381522917822171  0.988835937060216  0.7329844932623149  1.0000
  C   C40       1.0  0.9561847592960221  0.0111727962490491  0.2670115636516499  1.0000
  C   C41       1.0  0.9050116780308314  0.97476387073349  0.6516125780507808  1.0000
  C   C42       1.0  0.0949833757699707  0.025236401336755396  0.34838534145269057  1.0000
  C   C43       1.0  0.7059411115271886  0.10735705344280434  0.712600039067681  1.0000
  C   C44       1.0  0.2940500860088023  0.8926394668399454  0.28739905171742924  1.0000
  C   C45       1.0  0.26367891243818775  0.19174654209819408  0.6187096962267165  1.0000
  C   C46       1.0  0.7363268388459546  0.8082480250127942  0.3812886258663611  1.0000
  S   S1        1.0  0.2415249111034967  0.30119598038600504  0.6973035229247699  1.0000
  S   S2        1.0  0.7584746417786263  0.6987976787514966  0.30269668539092726  1.0000
  N   N1        1.0  0.6339288943504897  0.1985263079040465  0.4660394907680897  1.0000
  N   N2        1.0  0.3660766743993165  0.8014739293939572  0.5339606765161948  1.0000
  N   N3        1.0  0.6721162530434627  0.3431989395409119  0.2708707376890019  1.0000
  N   N4        1.0  0.32788632543508106  0.6568013153078454  0.7291304314484037  1.0000
  N   N5        1.0  0.7881525009801964  0.202627284607928  0.8678487265958383  1.0000
  N   N6        1.0  0.21184427670451816  0.7973739276853566  0.13215008819062754  1.0000
  N   N7        1.0  0.7387953243011012  0.033526297106178  0.6418671303318036  1.0000
  N   N8        1.0  0.26119630350946466  0.966472106364847  0.35813155605756464  1.0000
  N   N9        1.0  0.2790769671482281  0.10930966993358741  0.5618235513811386  1.0000
  N   N10       1.0  0.7209206847600383  0.8906887221296103  0.43817824620575163  1.0000
  O   O1        1.0  0.3470118882296731  0.23754144532714613  0.20655046014359613  1.0000
  O   O2        1.0  0.652992591222713  0.7624540765959152  0.7934491197226239  1.0000
  O   O3        1.0  0.006375908218210175  0.4355808887095448  0.2900740814264111  1.0000
  O   O4        1.0  0.9936309024826075  0.5644117834760892  0.7099235047728812  1.0000
  O   O5        1.0  0.4706680890422562  0.09028138377449578  0.8519390785453993  1.0000
  O   O6        1.0  0.5293276401145802  0.9097217293675611  0.1480617508607907  1.0000
  O   O7        1.0  0.09777128237869451  0.32958930382050516  0.93005137489655  1.0000
  O   O8        1.0  0.9022274235018485  0.6704071903556325  0.0699490474335818  1.0000
