data_image0
_chemical_formula_structural       Cd2H48C24S8N4O8
_chemical_formula_sum              "Cd2 H48 C24 S8 N4 O8"
_cell_length_a       8.23373579651134
_cell_length_b       10.619992291118486
_cell_length_c       12.48168748736279
_cell_angle_alpha    111.59907868296982
_cell_angle_beta     108.81468168444114
_cell_angle_gamma    91.34035589493766

_space_group_name_H-M_alt    "P 1"
_space_group_IT_number       1

loop_
  _space_group_symop_operation_xyz
  'x, y, z'

loop_
  _atom_site_type_symbol
  _atom_site_label
  _atom_site_symmetry_multiplicity
  _atom_site_fract_x
  _atom_site_fract_y
  _atom_site_fract_z
  _atom_site_occupancy
  Cd  Cd1       1.0  0.24506226045188123  0.0039177918549171  0.9970798850824351  1.0000
  Cd  Cd2       1.0  0.7549412270995646  0.9960861637066999  0.0029230350830289106  1.0000
  H   H1        1.0  0.5224662583121286  0.4071343019794043  0.8973083857521542  1.0000
  H   H2        1.0  0.4775355909502466  0.5928614696479643  0.10269645620163453  1.0000
  H   H3        1.0  0.9018578267983131  0.3742386748938884  0.36210797949775747  1.0000
  H   H4        1.0  0.09815129335396484  0.6257611808689348  0.637899635245155  1.0000
  H   H5        1.0  0.8776075363283127  0.3322376431567805  0.2044569785923328  1.0000
  H   H6        1.0  0.12239409224716978  0.6677632592407576  0.7955486134736914  1.0000
  H   H7        1.0  0.6832519684798443  0.19158207986157552  0.7368877752375127  1.0000
  H   H8        1.0  0.3167376735755596  0.8084177611262718  0.26310139018707446  1.0000
  H   H9        1.0  0.7067273047574645  0.21949636434319336  0.8908476415850756  1.0000
  H   H10       1.0  0.2932734466740641  0.7805013872237795  0.10914316791068755  1.0000
  H   H11       1.0  0.42128844095937984  0.9696643002678658  0.587096774839324  1.0000
  H   H12       1.0  0.5787066732771107  0.030330431749121107  0.41289994281653003  1.0000
  H   H13       1.0  0.40364728493882024  0.13786424162412203  0.5864709293556841  1.0000
  H   H14       1.0  0.5963439691714072  0.8621304984936347  0.41352419238072696  1.0000
  H   H15       1.0  0.23246826228557177  0.044334696098886205  0.5996866410258759  1.0000
  H   H16       1.0  0.7675254093728154  0.9556590308637002  0.4003126707650394  1.0000
  H   H17       1.0  0.14779772237385197  0.15807588143690054  0.4161228282617912  1.0000
  H   H18       1.0  0.8522098926067014  0.8419167910592976  0.5838822398893055  1.0000
  H   H19       1.0  0.11821928650382318  0.331298211672582  0.4920589667202718  1.0000
  H   H20       1.0  0.8817851680288484  0.6686975644761121  0.507948818360525  1.0000
  H   H21       1.0  0.31458392118656053  0.2974554372667271  0.4630864281484576  1.0000
  H   H22       1.0  0.6854237290852225  0.7025434049372522  0.536922170003187  1.0000
  H   H23       1.0  0.7121242502855764  0.6108437832477521  0.03042340404665105  1.0000
  H   H24       1.0  0.28787655008839147  0.3891601422792236  0.9695717408128244  1.0000
  H   H25       1.0  0.9343870512666895  0.5976856181985682  0.047005685737602144  1.0000
  H   H26       1.0  0.06561264668221872  0.40231316791923194  0.9529860294013941  1.0000
  H   H27       1.0  0.8095212585605437  0.47519893398045093  0.06852306086315703  1.0000
  H   H28       1.0  0.19048128132323677  0.5248070482951945  0.9314746858390704  1.0000
  H   H29       1.0  0.4029154357136733  0.5567814251054629  0.8093077870911216  1.0000
  H   H30       1.0  0.5970753565096202  0.44322165175733375  0.19071226816697617  1.0000
  H   H31       1.0  0.3691038251723882  0.5115377547158675  0.6500734035331419  1.0000
  H   H32       1.0  0.6308675083263324  0.48847667163319397  0.34994456296684706  1.0000
  H   H33       1.0  0.5812111909057619  0.5909859672582415  0.7660151233983042  1.0000
  H   H34       1.0  0.41876814839373816  0.40902429152563263  0.2339967896323784  1.0000
  H   H35       1.0  0.1408346622355907  0.5140502345671935  0.27810690707072877  1.0000
  H   H36       1.0  0.859170597790424  0.4859496292964068  0.7218991117527408  1.0000
  H   H37       1.0  0.03361751828853703  0.8003657943882062  0.4111192434168628  1.0000
  H   H38       1.0  0.9663863230671479  0.19963403107086464  0.588878458256218  1.0000
  H   H39       1.0  0.8588744744334207  0.7526938272612187  0.2669053432406586  1.0000
  H   H40       1.0  0.14112521892126753  0.2472978395078016  0.7330969746358846  1.0000
  H   H41       1.0  0.07025690989594581  0.7162124004183498  0.26865198376347615  1.0000
  H   H42       1.0  0.9297380712231912  0.28378133093100644  0.7313492022725184  1.0000
  H   H43       1.0  0.3882603958973689  0.6299749687991181  0.4311671784102983  1.0000
  H   H44       1.0  0.6117404863837805  0.3700289822411663  0.5688327986281507  1.0000
  H   H45       1.0  0.4080699156909091  0.6711497909128356  0.5885100083538716  1.0000
  H   H46       1.0  0.5919444935145323  0.32885105755140404  0.4114958028102578  1.0000
  H   H47       1.0  0.28539789053289166  0.763475583081487  0.5069034944309861  1.0000
  H   H48       1.0  0.7146014706575982  0.2365263792456461  0.49310676657531616  1.0000
  C   C1        1.0  0.5939023868049064  0.3732822302942936  0.8326183414195824  1.0000
  C   C2        1.0  0.4060935875297176  0.6267166064464789  0.16737983143159593  1.0000
  C   C3        1.0  0.3967369969861068  0.09520110859853761  0.8338844542646058  1.0000
  C   C4        1.0  0.6032649524288588  0.9048018121431415  0.16611542249377456  1.0000
  C   C5        1.0  0.13707113349396846  0.19676183581474052  0.21089102832559795  1.0000
  C   C6        1.0  0.8629371208978256  0.8032400721754274  0.7891162451330515  1.0000
  C   C7        1.0  0.9708078728193356  0.3694339158084362  0.2991308521057404  1.0000
  C   C8        1.0  0.0291960697570914  0.6305597824650491  0.7008713731984172  1.0000
  C   C9        1.0  0.6199278215207115  0.2244453869461084  0.8055269500329273  1.0000
  C   C10       1.0  0.38006911073814825  0.7755523854782923  0.1944646796328797  1.0000
  C   C11       1.0  0.37342941137209346  0.0663982588432717  0.624567527400984  1.0000
  C   C12       1.0  0.6265643934036405  0.9335964687869448  0.37542731600978374  1.0000
  C   C13       1.0  0.17338655427707292  0.2650208489838449  0.42700559118230785  1.0000
  C   C14       1.0  0.8266202222453881  0.734973884244134  0.5730007464108551  1.0000
  C   C15       1.0  0.805096748706063  0.5390369445228772  0.015592049101130013  1.0000
  C   C16       1.0  0.1949025544850116  0.4609659589408182  0.9844024684407555  1.0000
  C   C17       1.0  0.462293119330276  0.5193495746828986  0.7383675414649387  1.0000
  C   C18       1.0  0.5376883951904645  0.480658636260408  0.26164658709508604  1.0000
  C   C19       1.0  0.062069148593479895  0.513927329701268  0.33514595912031087  1.0000
  C   C20       1.0  0.9379352786368003  0.48606843794298293  0.6648602152341567  1.0000
  C   C21       1.0  0.9767944021796706  0.722226469219777  0.31600200801477735  1.0000
  C   C22       1.0  0.0232042376923971  0.2777662321000776  0.6840012155049918  1.0000
  C   C23       1.0  0.32103599801758526  0.6619323236412386  0.4976764880595893  1.0000
  C   C24       1.0  0.6789737535570878  0.3380706064122095  0.5023314127166572  1.0000
  S   S1        1.0  0.0319821961474247  0.19501022649805583  0.06503307750867998  1.0000
  S   S2        1.0  0.9680245610614759  0.8049906594288246  0.9349735686323796  1.0000
  S   S3        1.0  0.5055349707986493  0.17168357576160537  0.9922534539641674  1.0000
  S   S4        1.0  0.49446993202850115  0.8283213763499762  0.007745261339906094  1.0000
  S   S5        1.0  0.21241857830994354  0.9765143400829219  0.7729482522295398  1.0000
  S   S6        1.0  0.7875808750443054  0.023488610155176608  0.22705512430712807  1.0000
  S   S7        1.0  0.2952836150167926  0.09768836204840882  0.2330148659351252  1.0000
  S   S8        1.0  0.7047243560944805  0.9023124984997181  0.7669880169088826  1.0000
  N   N1        1.0  0.09407121091980739  0.2738245407074231  0.30750767358201603  1.0000
  N   N2        1.0  0.9059358295696142  0.726177392661505  0.6925033631736922  1.0000
  N   N3        1.0  0.45804555474778397  0.12962085538501364  0.7585881061711817  1.0000
  N   N4        1.0  0.5419527415766153  0.8703769384350438  0.24140861919235584  1.0000
  O   O1        1.0  0.4996905416610247  0.3833108644132609  0.7210156775943658  1.0000
  O   O2        1.0  0.5002948705449413  0.6166983093313761  0.2789899409628233  1.0000
  O   O3        1.0  0.1718994618783611  0.5624574594338442  0.46115746967922877  1.0000
  O   O4        1.0  0.8281115775170277  0.4375393095508144  0.5388495807047133  1.0000
  O   O5        1.0  0.9264312724724348  0.5912522445805736  0.3137945706345134  1.0000
  O   O6        1.0  0.0735731957114325  0.4087435358203352  0.6862140198094479  1.0000
  O   O7        1.0  0.7601016722639781  0.4564923073087855  0.8867882236715585  1.0000
  O   O8        1.0  0.2398966104092253  0.5435054822590573  0.11320769632882129  1.0000
