data_image0
_chemical_formula_structural       Cu2H16C16O12
_chemical_formula_sum              "Cu2 H16 C16 O12"
_cell_length_a       5.657679521551397
_cell_length_b       7.085739408487753
_cell_length_c       10.86074214371463
_cell_angle_alpha    89.99889836233594
_cell_angle_beta     89.99939695774309
_cell_angle_gamma    89.99137982807515

_space_group_name_H-M_alt    "P 1"
_space_group_IT_number       1

loop_
  _space_group_symop_operation_xyz
  'x, y, z'

loop_
  _atom_site_type_symbol
  _atom_site_label
  _atom_site_symmetry_multiplicity
  _atom_site_fract_x
  _atom_site_fract_y
  _atom_site_fract_z
  _atom_site_occupancy
  Cu  Cu1       1.0  0.44779172327846334  0.6699687631558144  0.9999993793948079  1.0000
  Cu  Cu2       1.0  0.9476759490301773  0.330008183968303  0.9999996536350227  1.0000
  H   H1        1.0  0.6114124122344009  0.6257339188103398  0.3850770738844318  1.0000
  H   H2        1.0  0.1115547019950256  0.3743062052734131  0.6149074553584627  1.0000
  H   H3        1.0  0.6114271404268337  0.625729222462148  0.6149195622836318  1.0000
  H   H4        1.0  0.11153644061122489  0.3743010223626442  0.38508061973580965  1.0000
  H   H5        1.0  0.9177064898592349  0.8722929883191596  0.3847507648174756  1.0000
  H   H6        1.0  0.4179022476862571  0.1277748701992891  0.6152592391416577  1.0000
  H   H7        1.0  0.9177159060304872  0.8722939277640335  0.6152433008494429  1.0000
  H   H8        1.0  0.4178857624656515  0.12776969695425316  0.38475749567727763  1.0000
  H   H9        1.0  0.44326000869816073  0.3286214881971146  0.07367151295977692  1.0000
  H   H10       1.0  0.9432706926671984  0.6713170781311388  0.9263144504340843  1.0000
  H   H11       1.0  0.4432702820246561  0.328626236410841  0.9263277934895628  1.0000
  H   H12       1.0  0.9432639531239458  0.671316563403316  0.0736867130390237  1.0000
  H   H13       1.0  0.5410060286834123  0.012059037029359796  0.9270340144009739  1.0000
  H   H14       1.0  0.04101992660535811  0.9879019558354115  0.0729572428112206  1.0000
  H   H15       1.0  0.5409957734207325  0.012054308951498198  0.072968990361737  1.0000
  H   H16       1.0  0.041030181572878605  0.9879066835842563  0.9270452855352572  1.0000
  C   C1        1.0  0.25653856181354934  0.7407111083263654  0.23361869960672269  1.0000
  C   C2        1.0  0.7566323462889526  0.2592756742975908  0.7663716940963782  1.0000
  C   C3        1.0  0.2565494035082097  0.740713372536149  0.7663769516139  1.0000
  C   C4        1.0  0.7566179704985599  0.25926776464537227  0.23363185708057446  1.0000
  C   C5        1.0  0.2635117452605726  0.7475807643220447  0.37123815016791895  1.0000
  C   C6        1.0  0.7637267545913674  0.2524696768353961  0.6287568186914073  1.0000
  C   C7        1.0  0.2635367241623925  0.7475728498799512  0.6287601466564043  1.0000
  C   C8        1.0  0.7636947107015145  0.25245218788144536  0.3712477128446424  1.0000
  C   C9        1.0  0.46032287287479784  0.6795579946551482  0.4359925180213369  1.0000
  C   C10       1.0  0.9604108796904426  0.3204627923344673  0.56402376101574  1.0000
  C   C11       1.0  0.46030355457656924  0.6795646324196482  0.5640058693787823  1.0000
  C   C12       1.0  0.9604178242302693  0.3204646227547769  0.4359680552483525  1.0000
  C   C13       1.0  0.06893416240001221  0.8189859701315924  0.4359168998327193  1.0000
  C   C14       1.0  0.5690670244441519  0.1810433644212424  0.564065958124381  1.0000
  C   C15       1.0  0.06892367998881349  0.8189911945339431  0.5640821745012305  1.0000
  C   C16       1.0  0.5690792724203391  0.1810451959117572  0.4359393547972061  1.0000
  O   O1        1.0  0.07423273321501259  0.8026921865419752  0.17826517260277802  1.0000
  O   O2        1.0  0.5743664517834404  0.1972723428300611  0.8216918836240911  1.0000
  O   O3        1.0  0.0742669018936368  0.8026858121611653  0.8217331702486277  1.0000
  O   O4        1.0  0.5743322886450457  0.19724625639790358  0.17831135719011834  1.0000
  O   O5        1.0  0.43822734099406807  0.6692308071431652  0.18007273294901446  1.0000
  O   O6        1.0  0.938260359609849  0.3307753930159406  0.8199298235715421  1.0000
  O   O7        1.0  0.438258018364273  0.6692371859219008  0.8199286385018638  1.0000
  O   O8        1.0  0.9382173091675624  0.3307718367542449  0.18006839354087842  1.0000
  O   O9        1.0  0.3709139573655166  0.3941759698457047  0.999999473327712  1.0000
  O   O10       1.0  0.8708210797592955  0.6057852168953559  7.883919153000018e-07  1.0000
  O   O11       1.0  0.4753188606416074  0.9457963096939677  1.225553937400001e-06  1.0000
  O   O12       1.0  0.9753976075382695  0.05419675359142669  2.300476268100001e-06  1.0000
