data_image0
_chemical_formula_structural       Cd4H20C28N12
_chemical_formula_sum              "Cd4 H20 C28 N12"
_cell_length_a       8.575182633343537
_cell_length_b       8.575169200679525
_cell_length_c       14.638124729150372
_cell_angle_alpha    90.00064906199994
_cell_angle_beta     90.00091330782338
_cell_angle_gamma    113.81417186027124

_space_group_name_H-M_alt    "P 1"
_space_group_IT_number       1

loop_
  _space_group_symop_operation_xyz
  'x, y, z'

loop_
  _atom_site_type_symbol
  _atom_site_label
  _atom_site_symmetry_multiplicity
  _atom_site_fract_x
  _atom_site_fract_y
  _atom_site_fract_z
  _atom_site_occupancy
  Cd  Cd1       1.0  0.5000000681550887  0.9999993042606691  0.9999978310384776  1.0000
  Cd  Cd2       1.0  3.837076192824215e-06  0.5000008245073531  0.4999987727118196  1.0000
  Cd  Cd3       1.0  0.5000075705005641  0.49999790857678766  0.7500003439248957  1.0000
  Cd  Cd4       1.0  0.49999305980392705  0.49999906342365097  0.24999913906184187  1.0000
  H   H1        1.0  0.19230119897653716  0.8256766046393054  0.8586662342605605  1.0000
  H   H2        1.0  0.17432088592759953  0.807699806258185  0.3586648855630798  1.0000
  H   H3        1.0  0.8256807894947186  0.19230353636039146  0.3586645097926322  1.0000
  H   H4        1.0  0.807704852611657  0.17432693837720592  0.8586607886812132  1.0000
  H   H5        1.0  0.8076981236380759  0.17432291312825748  0.14133119928570892  1.0000
  H   H6        1.0  0.8256775013887747  0.19230607964402674  0.6413359637381291  1.0000
  H   H7        1.0  0.17432175225297195  0.807701081971331  0.6413356563761353  1.0000
  H   H8        1.0  0.1922960091829822  0.8256764034651594  0.141338011180224  1.0000
  H   H9        1.0  0.8745790535820249  0.6718053967756815  0.8521913020097713  1.0000
  H   H10       1.0  0.3281796201123584  0.12542471285861717  0.3521939217959869  1.0000
  H   H11       1.0  0.671819591878254  0.8745758448348439  0.35219119252474235  1.0000
  H   H12       1.0  0.1254287389903439  0.3281826286707243  0.852188024136133  1.0000
  H   H13       1.0  0.1254210636434294  0.32819030051670944  0.1478068146750857  1.0000
  H   H14       1.0  0.6718170873794164  0.8745798966652811  0.6478117095264295  1.0000
  H   H15       1.0  0.32818621908700857  0.1254224090728897  0.6478137556713789  1.0000
  H   H16       1.0  0.8745731988755664  0.6718117974515535  0.1478073599625276  1.0000
  H   H17       1.0  0.7105709916769031  0.594326221241758  0.9999974621135338  1.0000
  H   H18       1.0  0.40565992270625617  0.2894227220215554  0.5000061135624634  1.0000
  H   H19       1.0  0.5943459790189249  0.7105844493505697  0.5000002009590432  1.0000
  H   H20       1.0  0.2894247298429419  0.40565947188101587  0.9999996483776386  1.0000
  C   C1        1.0  0.4627342770945049  0.2782775772290691  0.8369750525201525  1.0000
  C   C2        1.0  0.7217300482234917  0.5372771360844198  0.3369779701158251  1.0000
  C   C3        1.0  0.2782732860901902  0.4627317965116475  0.3369722348440547  1.0000
  C   C4        1.0  0.5372703551962842  0.7217239077633764  0.836978245166847  1.0000
  C   C5        1.0  0.5372691998943326  0.7217206729186502  0.16301896530321608  1.0000
  C   C6        1.0  0.2782751995068793  0.462731308041718  0.663020146635489  1.0000
  C   C7        1.0  0.7217360251831124  0.5372664624685796  0.6630176841209022  1.0000
  C   C8        1.0  0.46272281098370627  0.27826031395174067  0.16302738607106448  1.0000
  C   C9        1.0  0.11614571587639233  0.7880680422996845  0.9209879438749552  1.0000
  C   C10       1.0  0.21193111106651938  0.883849675232227  0.4209827236730419  1.0000
  C   C11       1.0  0.7880737316999031  0.1161457281049607  0.4209883203727571  1.0000
  C   C12       1.0  0.883860746917378  0.2119352005674813  0.9209773120314253  1.0000
  C   C13       1.0  0.8838489392278602  0.21193146833032728  0.079008806501875  1.0000
  C   C14       1.0  0.7880734829545091  0.11616004189468039  0.5790208582603853  1.0000
  C   C15       1.0  0.21193049014358686  0.8838601668394901  0.5790200435794973  1.0000
  C   C16       1.0  0.11613157452447352  0.7880643065739434  0.0790235372201806  1.0000
  C   C17       1.0  0.9393837496226992  0.7026052306957311  0.9179385169752265  1.0000
  C   C18       1.0  0.2973803483718881  0.0606150704892201  0.4179485693234851  1.0000
  C   C19       1.0  0.7026280494440655  0.9393980632646901  0.4179424610220934  1.0000
  C   C20       1.0  0.06060700363504171  0.29737367432610284  0.9179385272293458  1.0000
  C   C21       1.0  0.06060819942750579  0.2973904540781689  0.08205686708097909  1.0000
  C   C22       1.0  0.7026239640887937  0.939399741796244  0.5820543294779909  1.0000
  C   C23       1.0  0.2973764540025954  0.0606027365582307  0.5820686355049531  1.0000
  C   C24       1.0  0.9393926005827423  0.7026207483199299  0.0820616388917159  1.0000
  C   C25       1.0  0.8491244328443344  0.6596312888915464  6.993191946000008e-07  1.0000
  C   C26       1.0  0.3403639391295527  0.1508793945639866  0.4999978321514007  1.0000
  C   C27       1.0  0.6596383711422716  0.8491188539381439  0.5000037002902857  1.0000
  C   C28       1.0  0.1508800703168589  0.34036951068461  0.9999967342555394  1.0000
  N   N1        1.0  0.45657879959208003  0.16769197065124794  0.8853900097715837  1.0000
  N   N2        1.0  0.8323144249339973  0.5434150450370864  0.3853890796369654  1.0000
  N   N3        1.0  0.1676856612885658  0.4565854371106468  0.38539251771119604  1.0000
  N   N4        1.0  0.5434102118308957  0.8323137838589858  0.8853864825169283  1.0000
  N   N5        1.0  0.543418189288765  0.8323075435660455  0.1146081069113905  1.0000
  N   N6        1.0  0.167687231457208  0.45658447631776516  0.614609720215448  1.0000
  N   N7        1.0  0.8323060063297518  0.5434153429328461  0.6146083315416035  1.0000
  N   N8        1.0  0.4565852379127405  0.1676819063205173  0.1146123172937195  1.0000
  N   N9        1.0  0.20300640030308875  0.8307592478774168  0.9999938304040938  1.0000
  N   N10       1.0  0.1692399235249979  0.796995110339452  0.499999186830216  1.0000
  N   N11       1.0  0.8307555262043634  0.20300057982771597  0.4999989298328202  1.0000
  N   N12       1.0  0.7969966544237295  0.1692466450759937  2.9200332462999993e-06  1.0000
