data_image0
_chemical_formula_structural       Ag4H40C56N28O20
_chemical_formula_sum              "Ag4 H40 C56 N28 O20"
_cell_length_a       10.212493545
_cell_length_b       11.510441601
_cell_length_c       15.5149
_cell_angle_alpha    90.0
_cell_angle_beta     90.0
_cell_angle_gamma    90.0

_space_group_name_H-M_alt    "P 1"
_space_group_IT_number       1

loop_
  _space_group_symop_operation_xyz
  'x, y, z'

loop_
  _atom_site_type_symbol
  _atom_site_label
  _atom_site_symmetry_multiplicity
  _atom_site_fract_x
  _atom_site_fract_y
  _atom_site_fract_z
  _atom_site_occupancy
  Ag  Ag1       1.0  0.27351106639059  0.419401806406853  0.0704387395342536  1.0000
  Ag  Ag2       1.0  0.7265042535701269  0.9194060807432932  0.9295599713823464  1.0000
  Ag  Ag3       1.0  0.2735002952699546  0.9194052119668967  0.42956319409083943  1.0000
  Ag  Ag4       1.0  0.7264905448711333  0.4194009376304564  0.5704393840759536  1.0000
  H   H1        1.0  0.9742057565236877  0.7118658244430945  0.3388168792580046  1.0000
  H   H2        1.0  0.025802709087535902  0.2118650252122478  0.6611798980335024  1.0000
  H   H3        1.0  0.9742028189453293  0.2118667627650481  0.1611831207419954  1.0000
  H   H4        1.0  0.025797813123610104  0.7118597430083113  0.8388194574247976  1.0000
  H   H5        1.0  0.9515423395060765  0.7578206208215477  0.18147264887301875  1.0000
  H   H6        1.0  0.048467105297938  0.2578172152615039  0.8185247729601883  1.0000
  H   H7        1.0  0.9515364643493669  0.2578206903670974  0.3185273511269814  1.0000
  H   H8        1.0  0.0484592717556538  0.7578162769395576  0.6814758715815117  1.0000
  H   H9        1.0  0.08459050634337471  0.6432272762981341  0.0756492146259404  1.0000
  H   H10       1.0  0.9154140424967068  0.143227345843691  0.9243469181238668  1.0000
  H   H11       1.0  0.0845856103794489  0.1432282146200876  0.4243507853740596  1.0000
  H   H12       1.0  0.9154071881472136  0.6432281450745378  0.5756524373344334  1.0000
  H   H13       1.0  0.4379792242013139  0.2989146827955835  0.4475542865245643  1.0000
  H   H14       1.0  0.5620184702892743  0.7989215634612207  0.5524444243920359  1.0000
  H   H15       1.0  0.4379811825868813  0.7989172195792307  0.05244700255882861  1.0000
  H   H16       1.0  0.5620214078676327  0.2989120764663866  0.9475536419828714  1.0000
  H   H17       1.0  0.5291195510860902  0.1813457791070903  0.3276804877891593  1.0000
  H   H18       1.0  0.4708752058261396  0.6813543973255278  0.672316934044048  1.0000
  H   H19       1.0  0.5291215094716648  0.6813500534435306  0.17232209037763377  1.0000
  H   H20       1.0  0.47088206017564  0.18134404155429  0.8276804877891593  1.0000
  H   H21       1.0  0.4534680956804493  0.2226369837780453  0.17606236585476154  1.0000
  H   H22       1.0  0.5465305780029227  0.722642995667286  0.8239363450618455  1.0000
  H   H23       1.0  0.4534661372948747  0.7226403893380889  0.3239395677703386  1.0000
  H   H24       1.0  0.5465344947740647  0.2226361150016487  0.6760617213130617  1.0000
  H   H25       1.0  0.9310723143277144  0.504281260546577  0.4454440570032646  1.0000
  H   H26       1.0  0.0689263593556575  0.0042752486573363  0.5545514312048425  1.0000
  H   H27       1.0  0.9310732935204982  0.0042813300921267  0.0545578766218284  1.0000
  H   H28       1.0  0.068928317741225  0.5042682289005924  0.9454524360453507  1.0000
  H   H29       1.0  0.2562802109462652  0.3410937769458755  0.5394105021624398  1.0000
  H   H30       1.0  0.7437106291948226  0.8410919698475254  0.4605914314626603  1.0000
  H   H31       1.0  0.256281190139056  0.8410919698475254  0.9605927205460532  1.0000
  H   H32       1.0  0.7437125875803902  0.3410894330638783  0.03941179124583272  1.0000
  H   H33       1.0  0.09001817195273532  0.7209384563733039  0.456265912123186  1.0000
  H   H34       1.0  0.9099805017306367  0.22094286980085087  0.5437321542517211  1.0000
  H   H35       1.0  0.0900220887238774  0.2209411322480506  0.043734732418514013  1.0000
  H   H36       1.0  0.9099863768873533  0.7209341124913138  0.9562659121231862  1.0000
  H   H37       1.0  0.44377310791239927  0.555920460900829  0.4653404146981259  1.0000
  H   H38       1.0  0.5562265449637565  0.0559266118811692  0.5346557180516811  1.0000
  H   H39       1.0  0.4437740871051902  0.0559205304463788  0.034658296218474  1.0000
  H   H40       1.0  0.5562304617348987  0.5559213296772256  0.965341703781526  1.0000
  C   C1        1.0  0.0688068978358416  0.4000028982033115  0.5065427427827416  1.0000
  C   C2        1.0  0.9311878590763883  0.8999950096701781  0.4934585463006513  1.0000
  C   C3        1.0  0.068804939450267  0.8999976159993749  0.9934598353840516  1.0000
  C   C4        1.0  0.931188838269172  0.3999907353337377  0.0065446764078416  1.0000
  C   C5        1.0  0.2776941779697353  0.662989333036279  0.4834513918877975  1.0000
  C   C6        1.0  0.722307433291995  0.1629937464638189  0.5165402290701169  1.0000
  C   C7        1.0  0.277695157162519  0.1629902713582254  0.016546029945409706  1.0000
  C   C8        1.0  0.7223103708703463  0.6629902018126757  0.9834520364294976  1.0000
  C   C9        1.0  0.1287511217712094  0.5441302963959131  0.4105511476064976  1.0000
  C   C10       1.0  0.8712475519121625  0.0441338410470564  0.5894449851433166  1.0000
  C   C11       1.0  0.1287521009639931  0.04413297227065979  0.0894488523935024  1.0000
  C   C12       1.0  0.871250489490521  0.544125952513923  0.9105543703149908  1.0000
  C   C13       1.0  0.2547565869722206  0.4727429397258973  0.4353995191718951  1.0000
  C   C14       1.0  0.745240128325584  0.9727480828387342  0.5645972581196121  1.0000
  C   C15       1.0  0.2547575661650043  0.9727437389567442  0.06460048082810493  1.0000
  C   C16       1.0  0.7452420867111585  0.472741202173097  0.9354020973386883  1.0000
  C   C17       1.0  0.11444315679124631  0.5739996977549495  0.3160207284610266  1.0000
  C   C18       1.0  0.8855584544704841  0.0740041111824965  0.6839754042887805  1.0000
  C   C19       1.0  0.11444315679124631  0.0740032424060928  0.1839792715389734  1.0000
  C   C20       1.0  0.8855594336632678  0.5739970914257526  0.8160233066278195  1.0000
  C   C21       1.0  0.0290252325442211  0.662735650327896  0.290788854584946  1.0000
  C   C22       1.0  0.9709783371030767  0.1627348510970492  0.7092066336231613  1.0000
  C   C23       1.0  0.0290242533514373  0.1627374574262461  0.20921050087335405  1.0000
  C   C24       1.0  0.9709753995247183  0.6627304376695022  0.790793366376839  1.0000
  C   C25       1.0  0.0164230213963847  0.6888641005147136  0.20367002043197155  1.0000
  C   C26       1.0  0.9835844650220551  0.18886503883665987  0.7963267568595356  1.0000
  C   C27       1.0  0.0164191046252427  0.18886503883665987  0.2963306241097286  1.0000
  C   C28       1.0  0.9835756522869872  0.6888614941855167  0.7036732431404646  1.0000
  C   C29       1.0  0.0901748427983975  0.6254842559102585  0.1445126942487533  1.0000
  C   C30       1.0  0.9098287268489074  0.1254860630086085  0.8554840830427537  1.0000
  C   C31       1.0  0.0901719052200392  0.1254869317850051  0.3554873057512467  1.0000
  C   C32       1.0  0.909821872499407  0.6254851246866622  0.6445165614989463  1.0000
  C   C33       1.0  0.1852936299701753  0.5140758456639887  0.2525462619804202  1.0000
  C   C34       1.0  0.8147060229059875  0.0140802590915285  0.7474498707693871  1.0000
  C   C35       1.0  0.18529265077738444  0.0140785215387353  0.24745373801957984  1.0000
  C   C36       1.0  0.8147050437132037  0.5140732393347918  0.7525488401472133  1.0000
  C   C37       1.0  0.2783022566894573  0.420371360867648  0.2765870227974432  1.0000
  C   C38       1.0  0.7216944586083472  0.9203799790860856  0.7234097544940639  1.0000
  C   C39       1.0  0.278303235882241  0.9203756352040955  0.22341426628595684  1.0000
  C   C40       1.0  0.7216973961866985  0.4203704920912514  0.7765883118808361  1.0000
  C   C41       1.0  0.3130831844261408  0.4010628054095662  0.3631386602556219  1.0000
  C   C42       1.0  0.6869105932933053  0.9010722924043931  0.6368600506609781  1.0000
  C   C43       1.0  0.3130851428117083  0.9010662109696099  0.136861984286071  1.0000
  C   C44       1.0  0.6869164684500149  0.4010628054095662  0.8631399493390222  1.0000
  C   C45       1.0  0.4051557028425989  0.3148271913116858  0.3816847030918639  1.0000
  C   C46       1.0  0.5948390540696309  0.81483667830652  0.6183146523664362  1.0000
  C   C47       1.0  0.4051576612281735  0.8148305968717295  0.11831723053322923  1.0000
  C   C48       1.0  0.5948439500335567  0.3148254537588855  0.8816847030918638  1.0000
  C   C49       1.0  0.45687862415192637  0.2487437145548981  0.314751625856438  1.0000
  C   C50       1.0  0.5431161327603107  0.748754070326136  0.685248374143562  1.0000
  C   C51       1.0  0.45687960334471006  0.7487488576677421  0.18525030776866205  1.0000
  C   C52       1.0  0.5431220079170203  0.2487419770021049  0.8147509813147382  1.0000
  C   C53       1.0  0.4151885121216027  0.2714604798245546  0.2308522774880899  1.0000
  C   C54       1.0  0.5848082031762019  0.7714682292665954  0.7691451443451103  1.0000
  C   C55       1.0  0.4151875329288118  0.7714647541610019  0.2691496561370031  1.0000
  C   C56       1.0  0.5848130991401277  0.2714587422717614  0.730850988404697  1.0000
  N   N1        1.0  0.0235838582358667  0.46978562486518166  0.44075308252067213  1.0000
  N   N2        1.0  0.9764118778691468  0.9697838177668388  0.559243694770835  1.0000
  N   N3        1.0  0.0235838582358667  0.9697864240960357  0.0592488511044209  1.0000
  N   N4        1.0  0.9764138362547214  0.46977693710120144  0.9407563052291652  1.0000
  N   N5        1.0  0.2019800542258281  0.40018273491782  0.5050151789570023  1.0000
  N   N6        1.0  0.7980117651080505  0.9001817965958665  0.4949861101263977  1.0000
  N   N7        1.0  0.2019800542258281  0.9001817965958665  0.9949867546680906  1.0000
  N   N8        1.0  0.7980127443008342  0.4001783910358228  0.0050164680404023  1.0000
  N   N9        1.0  0.1479854056544241  0.6479751393162871  0.4632675685953488  1.0000
  N   N10       1.0  0.8520162056073063  0.1479786839674375  0.5367272750710583  1.0000
  N   N11       1.0  0.1479863848472078  0.1479760776382406  0.0367304977795513  1.0000
  N   N12       1.0  0.8520211015712321  0.6479716642106936  0.9632707913038419  1.0000
  N   N13       1.0  0.3429426892235057  0.5620592349330806  0.465734874217688  1.0000
  N   N14       1.0  0.6570589220382247  0.0620645171370242  0.5342599694487262  1.0000
  N   N15       1.0  0.3429417100307219  0.06205930447863749  0.0342631921572192  1.0000
  N   N16       1.0  0.6570608804237921  0.562058366156684  0.9657368078427808  1.0000
  N   N17       1.0  0.17246522528891012  0.5406378152736835  0.16822022700758774  1.0000
  N   N18       1.0  0.8275363859728132  0.0406413599248339  0.8317759057422194  1.0000
  N   N19       1.0  0.1724632669033426  0.0406413599248339  0.3317804175341125  1.0000
  N   N20       1.0  0.8275305108161035  0.5406395528264838  0.6682234497160806  1.0000
  N   N21       1.0  0.3291517380342199  0.3557509035660473  0.2123552198209495  1.0000
  N   N22       1.0  0.6708469356491521  0.8557560466788914  0.7876434910956576  1.0000
  N   N23       1.0  0.3291507588414362  0.8557543091260911  0.2876460692624505  1.0000
  N   N24       1.0  0.6708508524202941  0.3557500347896507  0.7123558643626424  1.0000
  N   N25       1.0  0.31559579311342395  0.6275475998568538  0.9402123120355272  1.0000
  N   N26       1.0  0.6844087557266576  0.1275502757316005  0.059787687964473  1.0000
  N   N27       1.0  0.3155908971494981  0.1275511445079971  0.559788332506173  1.0000
  N   N28       1.0  0.6844107141122322  0.6275502061860436  0.44021489020232  1.0000
  O   O1        1.0  0.3275017981908519  0.7536531004376386  0.5132524218654311  1.0000
  O   O2        1.0  0.6725017714564459  0.2536566450887818  0.4867379100090902  1.0000
  O   O3        1.0  0.3275027773836428  0.2536531699831883  0.9867449999677762  1.0000
  O   O4        1.0  0.6725027506492296  0.7536557067668354  0.013248554615238103  1.0000
  O   O5        1.0  0.9977181336862202  0.3463559555919744  0.558315554724814  1.0000
  O   O6        1.0  0.0022697688765092  0.8463393792948537  0.4416908906921719  1.0000
  O   O7        1.0  0.9977191128790112  0.8463498046116342  0.941691535233872  1.0000
  O   O8        1.0  0.0022697688765092  0.3463420551696004  0.058314910183114015  1.0000
  O   O9        1.0  0.3820751496984158  0.5367231088217537  0.9594596162398759  1.0000
  O   O10       1.0  0.6179303783344494  0.0367257846965003  0.0405365165099383  1.0000
  O   O11       1.0  0.38207025373449  0.0367275222493006  0.5405384501350312  1.0000
  O   O12       1.0  0.6179303783344494  0.536724846374554  0.4594641280317618  1.0000
  O   O13       1.0  0.1921215412626225  0.6250576866985682  0.9447234593842069  1.0000
  O   O14       1.0  0.8078839867702428  0.1250586250205146  0.0552797633242861  1.0000
  O   O15       1.0  0.1921156661059129  0.1250594937969112  0.5552804078659863  1.0000
  O   O16       1.0  0.8078849659630336  0.6250585554749648  0.4447234593842069  1.0000
  O   O17       1.0  0.37394491200141294  0.7194702242597301  0.9179317945974506  1.0000
  O   O18       1.0  0.6260596368386757  0.2194702938052799  0.0820675608608497  1.0000
  O   O19       1.0  0.3739400160374871  0.21947290013447676  0.5820682054025497  1.0000
  O   O20       1.0  0.6260615952242432  0.7194710930361268  0.4179350173059434  1.0000
