data_image0
_chemical_formula_structural       NiH44C28N4O4
_chemical_formula_sum              "Ni1 H44 C28 N4 O4"
_cell_length_a       8.591375489921267
_cell_length_b       10.15631035468371
_cell_length_c       10.225985291827726
_cell_angle_alpha    71.48912796351279
_cell_angle_beta     58.928963019473905
_cell_angle_gamma    84.68746806198205

_space_group_name_H-M_alt    "P 1"
_space_group_IT_number       1

loop_
  _space_group_symop_operation_xyz
  'x, y, z'

loop_
  _atom_site_type_symbol
  _atom_site_label
  _atom_site_symmetry_multiplicity
  _atom_site_fract_x
  _atom_site_fract_y
  _atom_site_fract_z
  _atom_site_occupancy
  Ni  Ni1       1.0  0.5000042832037221  2.881154216501574e-06  0.49998878765838844  1.0000
  H   H1        1.0  0.47004448313808217  0.8221204749071304  0.7272919548378668  1.0000
  H   H2        1.0  0.5299643152333076  0.17787055591301745  0.27269566048939  1.0000
  H   H3        1.0  0.22933327041206306  0.9902089512553117  0.5161606007631719  1.0000
  H   H4        1.0  0.7706575215929234  0.009791142600313704  0.48385343246494017  1.0000
  H   H5        1.0  0.12379485345145719  0.9587904724232034  0.7930167279814668  1.0000
  H   H6        1.0  0.8762183885479332  0.04120868155749241  0.20698000544447845  1.0000
  H   H7        1.0  0.0911159320643193  0.8119229725933793  0.05399443192967368  1.0000
  H   H8        1.0  0.9088790832491398  0.1880742098159232  0.9460170085264465  1.0000
  H   H9        1.0  0.1800562132583821  0.6716862330200968  0.9761095510726321  1.0000
  H   H10       1.0  0.8199409936395696  0.328316877837132  0.023888162073006893  1.0000
  H   H11       1.0  0.8403783100593641  0.6395967023189045  0.14352577553906817  1.0000
  H   H12       1.0  0.1596317388675885  0.360394179921073  0.8564810026238449  1.0000
  H   H13       1.0  0.8247406626928894  0.8052883586912003  0.028177017024568034  1.0000
  H   H14       1.0  0.17525212219658207  0.19470216769404666  0.9718307808933773  1.0000
  H   H15       1.0  0.7645717061518483  0.6278637358757919  0.9377852249124744  1.0000
  H   H16       1.0  0.23542197570957066  0.3721198291768247  0.06223055148582551  1.0000
  H   H17       1.0  0.9717727506077267  0.5559438816663729  0.9051403083550014  1.0000
  H   H18       1.0  0.028224925917939504  0.4440566312013559  0.0948698956529057  1.0000
  H   H19       1.0  0.9328865709944978  0.8491124613844862  0.7209380435604589  1.0000
  H   H20       1.0  0.067099536158409  0.15087338876206502  0.2790720605956736  1.0000
  H   H21       1.0  0.010993192597751996  0.7053166182983617  0.6490613761860687  1.0000
  H   H22       1.0  0.9890016550116627  0.2946744081902325  0.3509542568301287  1.0000
  H   H23       1.0  0.2766540982155235  0.705766631011059  0.6848454393878783  1.0000
  H   H24       1.0  0.7233260339685118  0.29423781860070625  0.31516830382369676  1.0000
  H   H25       1.0  0.19669320979612342  0.8082346619929198  0.4216385466732788  1.0000
  H   H26       1.0  0.8033019272533154  0.19177701392935387  0.5783667648536266  1.0000
  H   H27       1.0  0.37685690044624925  0.6286510115330942  0.48604437821818164  1.0000
  H   H28       1.0  0.6231414205397598  0.37134399409745095  0.5139586906123981  1.0000
  H   H29       1.0  0.5746608655183749  0.7474674354541121  0.37856882189884544  1.0000
  H   H30       1.0  0.4253358542912977  0.2525442252284691  0.6214329336774541  1.0000
  H   H31       1.0  0.48924134026356103  0.6942733829958457  0.2747708686576615  1.0000
  H   H32       1.0  0.5107595465545245  0.30574059050015734  0.7252274575909254  1.0000
  H   H33       1.0  0.40824368531712457  0.9230883896221939  0.1442872062123543  1.0000
  H   H34       1.0  0.5917481506998783  0.0769046721564308  0.8557328125628557  1.0000
  H   H35       1.0  0.3145230705080096  0.04716658152810281  0.24731183731798714  1.0000
  H   H36       1.0  0.6854941282716709  0.9528381047150847  0.752683356366724  1.0000
  H   H37       1.0  0.3527853289870606  0.9017626449130417  0.953958433421441  1.0000
  H   H38       1.0  0.6472147252432523  0.09823331251096332  0.04603871992079435  1.0000
  H   H39       1.0  0.3076703776106342  0.060775989946627404  0.8480420806986544  1.0000
  H   H40       1.0  0.6923491919856987  0.9392220652978129  0.1519407955293274  1.0000
  H   H41       1.0  0.9363228623546862  0.27376720361620244  0.7130913833665173  1.0000
  H   H42       1.0  0.0636668158028328  0.7262298547426911  0.2869025939060705  1.0000
  H   H43       1.0  0.27425378457775207  0.5339542922554658  0.22758021124678138  1.0000
  H   H44       1.0  0.7257528254125631  0.46604298861767296  0.7724354650570574  1.0000
  C   C1        1.0  0.19664347092915344  0.8633592190368444  0.7977440931250471  1.0000
  C   C2        1.0  0.8033423030635378  0.13663718574571965  0.2022673273195465  1.0000
  C   C3        1.0  0.09963342952398341  0.7621893372123412  0.9698077646425601  1.0000
  C   C4        1.0  0.9003643837097711  0.23780799157849228  0.03020154624549329  1.0000
  C   C5        1.0  0.9064989969171294  0.7146928716589045  0.0212649895962898  1.0000
  C   C6        1.0  0.09349759082457614  0.28530118217817346  0.9787439947226276  1.0000
  C   C7        1.0  0.905042690054266  0.6539397027920798  0.9031013465752907  1.0000
  C   C8        1.0  0.09495692305583249  0.34605646686501507  0.09690178556673602  1.0000
  C   C9        1.0  0.0060233964669081114  0.7548690868361589  0.7316493536979181  1.0000
  C   C10       1.0  0.9939869315680738  0.24513933150496572  0.2683482027891203  1.0000
  C   C11       1.0  0.1986031944412049  0.7981732102503543  0.6828527093479053  1.0000
  C   C12       1.0  0.8013961590287125  0.20183347867057222  0.3171507426159437  1.0000
  C   C13       1.0  0.3316108196113064  0.8447445743888055  0.3914812286461282  1.0000
  C   C14       1.0  0.6683879493829039  0.15525229456367381  0.6085151281757176  1.0000
  C   C15       1.0  0.45021520786871605  0.7221911066642975  0.38250329156120005  1.0000
  C   C16       1.0  0.5497789667728484  0.2778078128178977  0.6175010069702724  1.0000
  C   C17       1.0  0.40699496265028057  0.963250891387986  0.23284978538144696  1.0000
  C   C18       1.0  0.5930057254677976  0.03674758618970491  0.7671560328674474  1.0000
  C   C19       1.0  0.4016123168539423  0.9780106313042722  0.8335116938360018  1.0000
  C   C20       1.0  0.5983848418280717  0.021977950667796602  0.1664911517722132  1.0000
  C   C21       1.0  0.2331175850239049  0.27385715511390174  0.43023251896523357  1.0000
  C   C22       1.0  0.766914946185743  0.726175681702678  0.5697251886257745  1.0000
  C   C23       1.0  0.11702962274173959  0.3932358944937136  0.4674995274969973  1.0000
  C   C24       1.0  0.8829776868128434  0.606772483582418  0.5325031479579894  1.0000
  C   C25       1.0  0.9625463164345833  0.3739248282496065  0.6210923595933623  1.0000
  C   C26       1.0  0.03743508400615529  0.6260623802227203  0.37890931289037166  1.0000
  C   C27       1.0  0.15382602668841366  0.5208051227383521  0.3464489673108416  1.0000
  C   C28       1.0  0.8461576811403404  0.4791897441633494  0.6535549846399605  1.0000
  N   N1        1.0  0.3897398533152271  0.9093565869029663  0.7313248719179131  1.0000
  N   N2        1.0  0.6102589650910488  0.0906329822347516  0.26867305466859653  1.0000
  N   N3        1.0  0.3020426161797474  0.9009304602614209  0.5195611647564035  1.0000
  N   N4        1.0  0.6979572450424243  0.09907390549921759  0.48043604514997174  1.0000
  O   O1        1.0  0.1639015706479725  0.15347070093183393  0.5329330408899082  1.0000
  O   O2        1.0  0.8361446469471403  0.8465380672487016  0.46702580676796396  1.0000
  O   O3        1.0  0.38587742257533353  0.3024286120722337  0.2982529479509068  1.0000
  O   O4        1.0  0.6141126807747455  0.697596599619942  0.7017084122147212  1.0000
