data_image0
_chemical_formula_structural       Al6H55C103Cl3O35
_chemical_formula_sum              "Al6 H55 C103 Cl3 O35"
_cell_length_a       13.545746751377402
_cell_length_b       13.4409234030152
_cell_length_c       27.359045591084783
_cell_angle_alpha    90.74320192939243
_cell_angle_beta     89.93998244499073
_cell_angle_gamma    119.62190676531951

_space_group_name_H-M_alt    "P 1"
_space_group_IT_number       1

loop_
  _space_group_symop_operation_xyz
  'x, y, z'

loop_
  _atom_site_type_symbol
  _atom_site_label
  _atom_site_symmetry_multiplicity
  _atom_site_fract_x
  _atom_site_fract_y
  _atom_site_fract_z
  _atom_site_occupancy
  Al  Al1       1.0  0.4200261467832648  0.8242422798495073  0.4949959848506467  1.0000
  Al  Al2       1.0  0.6378429404630594  0.07521001588878558  0.496427051053395  1.0000
  Al  Al3       1.0  0.4097133892304398  0.05759589194259009  0.5000145580394033  1.0000
  Al  Al4       1.0  0.917249725164858  0.8286651397294236  0.9825226676585713  1.0000
  Al  Al5       1.0  0.91392203910992  0.5887997202612852  0.9832006993866359  1.0000
  Al  Al6       1.0  0.689968258517162  0.5828000178731757  0.9806757036073604  1.0000
  H   H1        1.0  0.7986645689454832  0.2792362875841263  0.2157113038912968  1.0000
  H   H2        1.0  0.8514154125213338  0.4404439570911479  0.2938650801285263  1.0000
  H   H3        1.0  0.7768554171982203  0.5643960716225608  0.2353311183633835  1.0000
  H   H4        1.0  0.0033888072263936046  0.8841153908416077  0.22857227411557798  1.0000
  H   H5        1.0  0.9290031620895149  0.7014913316416127  0.2962303542502767  1.0000
  H   H6        1.0  0.2168826592292205  0.6929766806678612  0.2773647455909725  1.0000
  H   H7        1.0  0.002353113299648293  0.5862440533243857  0.2296867781471903  1.0000
  H   H8        1.0  0.4828901429677828  0.6699362629868943  0.2164952673406191  1.0000
  H   H9        1.0  0.6372635397787363  0.673962496746647  0.2877439511043605  1.0000
  H   H10       1.0  0.5229754205654018  0.8858795728147156  0.2523136819249316  1.0000
  H   H11       1.0  0.8578058528621  0.9994264059887074  0.2551690485346256  1.0000
  H   H12       1.0  0.8160516140061916  0.7818493823070372  0.21918990372965652  1.0000
  H   H13       1.0  0.8886999841405512  0.4859177253361438  0.8472580287724298  1.0000
  H   H14       1.0  0.9666189121389621  0.5042522732100637  0.7631259770120097  1.0000
  H   H15       1.0  0.937246759608115  0.4617658046905575  0.6752835705612198  1.0000
  H   H16       1.0  0.5290410461711091  0.34226346187226403  0.8676734668361235  1.0000
  H   H17       1.0  0.3953274561611195  0.2600999240035264  0.795860379488822  1.0000
  H   H18       1.0  0.3666589766802346  0.2178732454613481  0.7075328345684824  1.0000
  H   H19       1.0  0.4429804928665817  0.20537464813334344  0.6261564725771507  1.0000
  H   H20       1.0  0.11739966081663789  0.9426717195371028  0.8705233402111646  1.0000
  H   H21       1.0  0.2494776447103604  0.0227124386963879  0.6294953843382274  1.0000
  H   H22       1.0  0.19765752963365196  0.08611335935288619  0.7073412662982648  1.0000
  H   H23       1.0  0.10810558212142506  0.6190726949128518  0.8627525771915289  1.0000
  H   H24       1.0  0.15807380044898167  0.5539526561125641  0.7846196627894529  1.0000
  H   H25       1.0  0.24715464680662802  0.7026281758218647  0.6220756058197595  1.0000
  H   H26       1.0  0.6120896232895205  0.58780991994486  0.8352055416345721  1.0000
  H   H27       1.0  0.5552039859190855  0.708257752256216  0.6001553998809684  1.0000
  H   H28       1.0  0.547996525473252  0.5211024193716653  0.7494832833016147  1.0000
  H   H29       1.0  0.530770198466989  0.5651462694816303  0.6635323291233846  1.0000
  H   H30       1.0  0.8050511243007037  0.9477825547228776  0.8688268026770132  1.0000
  H   H31       1.0  0.8107570970267942  0.13530148112100454  0.7192168466500989  1.0000
  H   H32       1.0  0.7396112200839154  0.06778375238194911  0.6350511278574515  1.0000
  H   H33       1.0  0.28002499097022593  0.7879802563068238  0.1460672725323064  1.0000
  H   H34       1.0  0.34252322559577675  0.7554069808100793  0.1970547052874281  1.0000
  H   H35       1.0  0.4269731226184846  0.8807177304671472  0.161408427204897  1.0000
  H   H36       1.0  0.9710324690830631  0.3708490168699399  0.5841019000382488  1.0000
  H   H37       1.0  0.8466697409944858  0.23094924364615108  0.5808047222918091  1.0000
  H   H38       1.0  0.9037541070503179  0.298085409487264  0.6391890567360647  1.0000
  H   H39       1.0  0.06676428926989081  0.13917382408410361  0.833594940393148  1.0000
  H   H40       1.0  0.0017638322576660095  0.9869760878201959  0.8281621634047981  1.0000
  H   H41       1.0  0.016307512695981106  0.06974460760092432  0.7749115597932886  1.0000
  H   H42       1.0  0.36091569570819365  0.6502867320163547  0.6675942034925413  1.0000
  H   H43       1.0  0.2895099924499577  0.4974244401217264  0.6606075464637584  1.0000
  H   H44       1.0  0.3362867541033623  0.5625935027325397  0.7201039726819403  1.0000
  H   H45       1.0  0.3643311300485906  0.23614571840337115  0.23500827663139753  1.0000
  H   H46       1.0  0.3707409963992703  0.11360244838046195  0.212091873280805  1.0000
  H   H47       1.0  0.32185113031106033  0.18724112778637192  0.173231675425221  1.0000
  H   H48       1.0  0.833145260348196  0.24346295424331285  0.7892830435165621  1.0000
  H   H49       1.0  0.9591224397224564  0.23940713342691566  0.7719100232089035  1.0000
  H   H50       1.0  0.9395903748838494  0.2692429573373971  0.8343759111990751  1.0000
  H   H51       1.0  0.16344417379783485  0.020911947456731597  0.3430709483834207  1.0000
  H   H52       1.0  0.1043607385650844  0.050595509994863605  0.2898579590094812  1.0000
  H   H53       1.0  0.24346126734887005  0.1534581880329711  0.3117586249582303  1.0000
  H   H54       1.0  0.39291176760632845  0.6411505520924407  0.5098935955544164  1.0000
  H   H55       1.0  0.9938501719730085  0.017399881877487595  0.0118460308968977  1.0000
  C   C1        1.0  0.6167931242774998  0.9195794365017065  0.4246699816442643  1.0000
  C   C2        1.0  0.5761879726760597  0.19715351721976757  0.4289416468399594  1.0000
  C   C3        1.0  0.2673795591712037  0.8829155358697279  0.4370381105851848  1.0000
  C   C4        1.0  0.622663008500993  0.9162824452699213  0.5634555445995915  1.0000
  C   C5        1.0  0.5911632718187221  0.21460763388960663  0.5619990551708511  1.0000
  C   C6        1.0  0.3023170748484462  0.8917890154830631  0.5716922354066156  1.0000
  C   C7        1.0  0.7745001547170532  0.40315382172414627  0.2713368251103105  1.0000
  C   C8        1.0  0.7455056246833323  0.313874260673238  0.2288560374920579  1.0000
  C   C9        1.0  0.7319070552869675  0.424254143215535  0.1019334336230102  1.0000
  C   C10       1.0  0.6007403588113648  0.2556737085523508  0.38307485385750084  1.0000
  C   C11       1.0  0.7327524623752808  0.4716975802832053  0.23985140987043252  1.0000
  C   C12       1.0  0.7039139271784335  0.3823729819205325  0.19612319796396346  1.0000
  C   C13       1.0  0.6097649089979028  0.3981882830033001  0.2603737071455754  1.0000
  C   C14       1.0  0.6514354301185891  0.3297295365898449  0.2930980397821514  1.0000
  C   C15       1.0  0.5795149467014936  0.3088004948292137  0.216495238333458  1.0000
  C   C16       1.0  0.6224350087212897  0.24023588302783586  0.2490675222754462  1.0000
  C   C17       1.0  0.7237647828317363  0.40695043181605667  0.145767821481698  1.0000
  C   C18       1.0  0.6235031612977764  0.29431866093377584  0.3419601742907332  1.0000
  C   C19       1.0  0.00943200660248793  0.7402466418948139  0.2764620806751594  1.0000
  C   C20       1.0  0.05062788826629836  0.841933633191907  0.2401201677687581  1.0000
  C   C21       1.0  0.0584891575124402  0.7637437886801023  0.10803917196717801  1.0000
  C   C22       1.0  0.19717981616454258  0.8458585111769426  0.39398423797938154  1.0000
  C   C23       1.0  0.05052675477544007  0.676496856077236  0.24058633293320503  1.0000
  C   C24       1.0  0.09030821560035933  0.7774277129803197  0.203147620152734  1.0000
  C   C25       1.0  0.16981901747190156  0.735313079438832  0.2657553783856414  1.0000
  C   C26       1.0  0.12938765558021012  0.7993223654991014  0.3027330321805266  1.0000
  C   C27       1.0  0.21345180409428383  0.8391389208316655  0.22985351297863588  1.0000
  C   C28       1.0  0.17126639857914225  0.9027248104611727  0.2648944567346803  1.0000
  C   C29       1.0  0.0723289545637088  0.7684629872493505  0.1522182191078087  1.0000
  C   C30       1.0  0.15815741562108346  0.8180655051391739  0.3527764289621018  1.0000
  C   C31       1.0  0.6515891413992065  0.7446309600335257  0.2641854253875948  1.0000
  C   C32       1.0  0.5658982178204042  0.7430704155959305  0.2256019684420849  1.0000
  C   C33       1.0  0.6741323216147921  0.7631275037690698  0.0938877977178976  1.0000
  C   C34       1.0  0.6535874710556087  0.905323481079151  0.37707289635223873  1.0000
  C   C35       1.0  0.7515515677784349  0.8057902645196932  0.22746212071898952  1.0000
  C   C36       1.0  0.6653613758135463  0.8030117794167779  0.1875506890571046  1.0000
  C   C37       1.0  0.7747708551454408  0.9255739708867876  0.246732653448241  1.0000
  C   C38       1.0  0.6742568085889573  0.86506989727647  0.2844113966253445  1.0000
  C   C39       1.0  0.6888184140942075  0.9239224603026772  0.2082849293992837  1.0000
  C   C40       1.0  0.5877854003694267  0.8623069694650669  0.2446214229365395  1.0000
  C   C41       1.0  0.6664746430630757  0.7776859517545632  0.1374756632548255  1.0000
  C   C42       1.0  0.6692556500121114  0.891038500913382  0.3343021731617739  1.0000
  C   C43       1.0  0.7322684604361314  0.3341884724553026  0.6292518949000511  1.0000
  C   C44       1.0  0.751997246297165  0.368286120009806  0.6791650514867555  1.0000
  C   C45       1.0  0.7872987740954045  0.4214863173218718  0.7811835111116778  1.0000
  C   C46       1.0  0.8807214294907978  0.4561172044742179  0.7483525604022817  1.0000
  C   C47       1.0  0.8643751960438024  0.4319528355380983  0.6994230468253875  1.0000
  C   C48       1.0  0.8032880433092943  0.44283019249266437  0.8316615221615891  1.0000
  C   C49       1.0  0.7104541499459672  0.4135074709753894  0.862427653820788  1.0000
  C   C50       1.0  0.5285595177715122  0.25193015238236427  0.6414544636865642  1.0000
  C   C51       1.0  0.5446732767127855  0.28339329831568694  0.6909959260211026  1.0000
  C   C52       1.0  0.6573462905744522  0.3388954028052069  0.7105941614875492  1.0000
  C   C53       1.0  0.45187984059073466  0.2586280808774362  0.7231156094886941  1.0000
  C   C54       1.0  0.46792248546684323  0.2824918166146091  0.772070170307586  1.0000
  C   C55       1.0  0.5799028344761084  0.33576819718242495  0.7931090307515518  1.0000
  C   C56       1.0  0.6746753999697574  0.36531925467521376  0.7615201638575897  1.0000
  C   C57       1.0  0.5998134521255948  0.3617625995436454  0.8432477392465643  1.0000
  C   C58       1.0  0.6197493549888121  0.27249877856572613  0.610834643112085  1.0000
  C   C59       1.0  0.23693874260283834  0.9459571950799275  0.647948552461692  1.0000
  C   C60       1.0  0.20694589538633323  0.9296317950435905  0.697438798788383  1.0000
  C   C61       1.0  0.15790842560199544  0.8994218436831716  0.7993803067155056  1.0000
  C   C62       1.0  0.1716105645149284  0.9994599289197836  0.7745297370633537  1.0000
  C   C63       1.0  0.19177674153178967  0.011604064552138001  0.7254513141739523  1.0000
  C   C64       1.0  0.128500653327933  0.8805964791610635  0.8487591975781187  1.0000
  C   C65       1.0  0.10758493329328911  0.7783782018271596  0.8705038580665487  1.0000
  C   C66       1.0  0.23618818898231111  0.7647129300806625  0.6438869604772748  1.0000
  C   C67       1.0  0.20678748296683105  0.7455777063563358  0.6932999695306918  1.0000
  C   C68       1.0  0.19482337291118051  0.8298721506255757  0.721064181191629  1.0000
  C   C69       1.0  0.19031608542264422  0.6442638417098577  0.7179626091926963  1.0000
  C   C70       1.0  0.16876588263677664  0.6310287138071189  0.7669736766214327  1.0000
  C   C71       1.0  0.1559803375702629  0.7143335858946286  0.7952960137354239  1.0000
  C   C72       1.0  0.1698180490814637  0.8149145022498773  0.7717433352735625  1.0000
  C   C73       1.0  0.12394091507604083  0.6973030451607228  0.8445648427761443  1.0000
  C   C74       1.0  0.25450023174268926  0.8659172696616508  0.6219232181317621  1.0000
  C   C75       1.0  0.6018814537611378  0.7761866142317827  0.6270732990249214  1.0000
  C   C76       1.0  0.6158377905847274  0.7497044095270128  0.6750717436878872  1.0000
  C   C77       1.0  0.6372806438380964  0.6991130229020044  0.7741968943317233  1.0000
  C   C78       1.0  0.5819956000914814  0.6096251070644172  0.7381521637792332  1.0000
  C   C79       1.0  0.5724286740166704  0.6339614489895453  0.6906674912031505  1.0000
  C   C80       1.0  0.6481325496121926  0.6760392050373981  0.8232039117366483  1.0000
  C   C81       1.0  0.7091912774133605  0.7658066899653305  0.8564370768255286  1.0000
  C   C82       1.0  0.7062273854621213  0.9798481885535044  0.6468914458793619  1.0000
  C   C83       1.0  0.7195473113605145  0.9571813215518076  0.6956123833168918  1.0000
  C   C84       1.0  0.6733219030346689  0.840638580080359  0.710009086123506  1.0000
  C   C85       1.0  0.7772160107910296  0.0473611734251023  0.7310229865319258  1.0000
  C   C86       1.0  0.7890245504352507  0.023055344662111597  0.7785111143262142  1.0000
  C   C87       1.0  0.7430526358705337  0.9060899412268383  0.7942641171069269  1.0000
  C   C88       1.0  0.6843908867964148  0.8155919905710507  0.7593516354423785  1.0000
  C   C89       1.0  0.7569169634373907  0.8799739899425277  0.8421542571445001  1.0000
  C   C90       1.0  0.6466647200415352  0.8902859382988313  0.6132290535338853  1.0000
  C   C91       1.0  0.02349197437507668  0.7515779328467929  0.0577988893218588  1.0000
  C   C92       1.0  0.746689265432444  0.46211333574595415  0.0522789811989597  1.0000
  C   C93       1.0  0.7045604399227514  0.7445254329664124  0.045699670426159904  1.0000
  C   C94       1.0  0.05296220441741182  0.7512990377805623  0.9193174929950273  1.0000
  C   C95       1.0  0.7335783987138953  0.4509533439196646  0.9145192357859173  1.0000
  C   C96       1.0  0.7330652965362746  0.7423502982458673  0.9067977302616441  1.0000
  C   C97       1.0  0.3421558387945042  0.8248032173480483  0.1761452006329449  1.0000
  C   C98       1.0  0.8893787957141727  0.3128726427664574  0.6010318155767678  1.0000
  C   C99       1.0  0.05615511764598578  0.06842843696995259  0.8097966430033239  1.0000
  C   C100      1.0  0.3014064470122123  0.5684856354908946  0.6846265041306482  1.0000
  C   C101      1.0  0.38061426233770845  0.19692220239674899  0.20276526751536753  1.0000
  C   C102      1.0  0.8965993650044694  0.2203679481513632  0.8012390764690737  1.0000
  C   C103      1.0  0.1828254093427475  0.06197328517382772  0.3071802377709147  1.0000
  Cl  Cl1       1.0  0.7147527590309649  0.0373337758625922  0.170426249369477  1.0000
  Cl  Cl2       1.0  0.5518998431193153  0.0945820181502057  0.258444955984217  1.0000
  Cl  Cl3       1.0  0.5219228196125271  0.4490870995100452  0.2818708652740369  1.0000
  O   O1        1.0  0.3047054468046255  0.818849237954332  0.4513339155316274  1.0000
  O   O2        1.0  0.5170407294353864  0.846556953565397  0.4365793243297702  1.0000
  O   O3        1.0  0.6875274888668343  0.0074640217870793986  0.450621361026613  1.0000
  O   O4        1.0  0.6531288723137579  0.17755802231022247  0.445570820517176  1.0000
  O   O5        1.0  0.47963209185849115  0.16579737880010728  0.44848955705055  1.0000
  O   O6        1.0  0.2904409240447592  0.9808154652371214  0.45593055039564223  1.0000
  O   O7        1.0  0.33318854113703367  0.8254681761894956  0.5527595520220743  1.0000
  O   O8        1.0  0.540526972122578  0.8375180849852132  0.5396506484803254  1.0000
  O   O9        1.0  0.6847638570529141  0.019738058706124696  0.5482876019750904  1.0000
  O   O10       1.0  0.663836893974583  0.19412495558083984  0.5411601338954313  1.0000
  O   O11       1.0  0.49067669674874986  0.17961849712705905  0.5450890921794027  1.0000
  O   O12       1.0  0.3132965072095503  0.9837315200362298  0.5519655216460535  1.0000
  O   O13       1.0  0.4896460486381075  0.9871757845552624  0.4972222015104678  1.0000
  O   O14       1.0  0.7995539108116462  0.8194169677382704  0.0297625265921226  1.0000
  O   O15       1.0  0.997349091512433  0.8233794599487324  0.041835758230114095  1.0000
  O   O16       1.0  0.017904726847383864  0.665582918356165  0.0338538120219951  1.0000
  O   O17       1.0  0.8351992289893314  0.47461778734484017  0.0296817220873606  1.0000
  O   O18       1.0  0.6731627741421989  0.4855430176634315  0.0351109813983612  1.0000
  O   O19       1.0  0.6342481679971428  0.6498783709201135  0.023514187693905304  1.0000
  O   O20       1.0  0.8253300343811388  0.8169701377001175  0.926191605316461  1.0000
  O   O21       1.0  0.027801889996830267  0.8215847254558355  0.9385612635364781  1.0000
  O   O22       1.0  0.02785951085564162  0.6529132546344769  0.9374125864647453  1.0000
  O   O23       1.0  0.8318714625230185  0.48026933178290676  0.9318680132169989  1.0000
  O   O24       1.0  0.6559661305067055  0.45905208014352167  0.9383736871937316  1.0000
  O   O25       1.0  0.6602339454382004  0.6471661602797026  0.92626591731986  1.0000
  O   O26       1.0  0.8392651212750976  0.6650155022891865  0.9825941643893544  1.0000
  O   O27       1.0  0.31675833816209586  0.8960590906053909  0.2075201557952582  1.0000
  O   O28       1.0  0.8223981096540881  0.3690952944856819  0.5983136256568287  1.0000
  O   O29       1.0  0.16849705414169588  0.08542374232533227  0.8013475078321265  1.0000
  O   O30       1.0  0.1907861192673083  0.557404344098103  0.6906029128430689  1.0000
  O   O31       1.0  0.4931293854456698  0.27132174548864907  0.1837856920788639  1.0000
  O   O32       1.0  0.8438807363999459  0.1026644474162737  0.8144705740745692  1.0000
  O   O33       1.0  0.2373938634610369  0.0164657455445933  0.2761395852022305  1.0000
  O   O34       1.0  0.355210491680829  0.6743141372300485  0.4918787114246683  1.0000
  O   O35       1.0  0.9886499824463612  0.9787797690252303  0.9811156906003972  1.0000
