data_image0
_chemical_formula_structural       Na4H28C16N8O16
_chemical_formula_sum              "Na4 H28 C16 N8 O16"
_cell_length_a       6.417227388145104
_cell_length_b       10.274646969113878
_cell_length_c       10.274491251010405
_cell_angle_alpha    91.43945842989724
_cell_angle_beta     99.62963319845926
_cell_angle_gamma    99.63557008504628

_space_group_name_H-M_alt    "P 1"
_space_group_IT_number       1

loop_
  _space_group_symop_operation_xyz
  'x, y, z'

loop_
  _atom_site_type_symbol
  _atom_site_label
  _atom_site_symmetry_multiplicity
  _atom_site_fract_x
  _atom_site_fract_y
  _atom_site_fract_z
  _atom_site_occupancy
  Na  Na1       1.0  0.3489953123104075  0.734645655060781  0.7547749964880596  1.0000
  Na  Na2       1.0  0.15099347616551742  0.24521308091625124  0.2653677876190841  1.0000
  Na  Na3       1.0  0.6509954189015732  0.26535982482054277  0.2452260391519374  1.0000
  Na  Na4       1.0  0.8490040221915295  0.7547886892475619  0.734627825144095  1.0000
  H   H1        1.0  0.5741787143873083  0.5008747813664981  0.9108581430643241  1.0000
  H   H2        1.0  0.9258651958000429  0.08917224105815082  0.49915468484932296  1.0000
  H   H3        1.0  0.42589073885530854  0.4991770821307925  0.08919123525751621  1.0000
  H   H4        1.0  0.07419656262946014  0.9108328475344435  0.500855493869274  1.0000
  H   H5        1.0  0.5432425636113863  0.25980536259815784  0.9590196920271481  1.0000
  H   H6        1.0  0.9568009848277302  0.040988733468410005  0.7402157989797332  1.0000
  H   H7        1.0  0.45674489342773245  0.7402157694885647  0.04098602605441223  1.0000
  H   H8        1.0  0.04323089638058525  0.9590008428985544  0.25978633631638814  1.0000
  H   H9        1.0  0.7969646193964621  0.8321861639488473  0.9789344552175265  1.0000
  H   H10       1.0  0.7030013946613565  0.021050194277265205  0.1678110628512428  1.0000
  H   H11       1.0  0.20304780070867426  0.16781262243502224  0.021061487389090396  1.0000
  H   H12       1.0  0.29700467644046585  0.9789483447731588  0.8321900624984481  1.0000
  H   H13       1.0  0.6782268384079162  0.936103577888261  0.8921695418446378  1.0000
  H   H14       1.0  0.8217631939205461  0.10781573991338433  0.0638985802758043  1.0000
  H   H15       1.0  0.3217708815325508  0.06388802898472079  0.10783121349071931  1.0000
  H   H16       1.0  0.1782440893554239  0.8921871605167057  0.93609421085948  1.0000
  H   H17       1.0  0.04653049277440863  0.5272924160221777  0.859974308248873  1.0000
  H   H18       1.0  0.4534702120475629  0.14001745131888296  0.4727210021967778  1.0000
  H   H19       1.0  0.9534644228130347  0.47271129699962705  0.1400221549994356  1.0000
  H   H20       1.0  0.5465381743043667  0.8599889428360258  0.527281894002144  1.0000
  H   H21       1.0  0.05076766381611721  0.6574389162887754  0.9577813342670113  1.0000
  H   H22       1.0  0.44919344848366194  0.04219957380937701  0.3425757606229283  1.0000
  H   H23       1.0  0.9492314304047726  0.34256298420746134  0.042211527077924395  1.0000
  H   H24       1.0  0.5508083274509944  0.9578058137459848  0.6574273658323619  1.0000
  H   H25       1.0  0.4878835680835608  0.3831112611354755  0.5070809764480373  1.0000
  H   H26       1.0  0.012084189389156645  0.49289647739238523  0.6168959312014195  1.0000
  H   H27       1.0  0.5120686117977371  0.6169036628059885  0.4928875836888551  1.0000
  H   H28       1.0  0.9878855332124419  0.5070912924122908  0.3831017031594044  1.0000
  C   C1        1.0  0.5289863649662865  0.46140577365205354  0.6988674508464854  1.0000
  C   C2        1.0  0.9709781119552119  0.30113716835984417  0.5385807373242528  1.0000
  C   C3        1.0  0.47097527326640437  0.5385864718019349  0.3011403988311585  1.0000
  C   C4        1.0  0.02899879593320519  0.6988429346763495  0.46141123402600925  1.0000
  C   C5        1.0  0.5056572055883352  0.19338959575812004  0.7527077867100971  1.0000
  C   C6        1.0  0.9944104813386689  0.24729121662215187  0.806614145856095  1.0000
  C   C7        1.0  0.494388278087179  0.8066143149555742  0.24728506363807407  1.0000
  C   C8        1.0  0.005611990841366275  0.7527095049601369  0.19338295712101683  1.0000
  C   C9        1.0  0.5471022918318907  0.42287526362743927  0.8329678785083418  1.0000
  C   C10       1.0  0.9528222956426546  0.16705288257939793  0.5771451422462235  1.0000
  C   C11       1.0  0.4527835247591767  0.5771487451358153  0.1670598628320192  1.0000
  C   C12       1.0  0.04715129250033107  0.8329319044392207  0.4228526721193902  1.0000
  C   C13       1.0  0.5328855859135332  0.29295441658259586  0.858854565270974  1.0000
  C   C14       1.0  0.9672018694348596  0.14114200930593768  0.7070785662543457  1.0000
  C   C15       1.0  0.46720343082197524  0.7070738023976021  0.14114931972099506  1.0000
  C   C16       1.0  0.03285204379869819  0.858846925748651  0.2929374555555385  1.0000
  N   N1        1.0  0.49033869852036105  0.23017668765671576  0.6277749995289882  1.0000
  N   N2        1.0  0.009668166172964714  0.37220457716674815  0.7698174143358828  1.0000
  N   N3        1.0  0.509626570856291  0.7698179933755894  0.3722022146610016  1.0000
  N   N4        1.0  0.9903079624885224  0.6277944995264378  0.23017193573144823  1.0000
  N   N5        1.0  0.500517167520691  0.3606050171426389  0.6064908352175494  1.0000
  N   N6        1.0  0.9995154636807374  0.3934965875556601  0.6393963185332368  1.0000
  N   N7        1.0  0.4995263714168702  0.6393926653875042  0.39348675749003803  1.0000
  N   N8        1.0  0.0004917686441885238  0.6064846960907957  0.3605920003314083  1.0000
  O   O1        1.0  0.5370966002142127  0.5812159776083732  0.6643632492700249  1.0000
  O   O2        1.0  0.9628699592628752  0.3356544377587412  0.4187671889025993  1.0000
  O   O3        1.0  0.4628848541013042  0.41876259845125213  0.335661228334871  1.0000
  O   O4        1.0  0.03711300714130776  0.6643355279092019  0.5812261029922325  1.0000
  O   O5        1.0  0.6789283510409021  0.8420371351361805  0.9043702000384856  1.0000
  O   O6        1.0  0.8210687593794503  0.0956089836205933  0.1579653067269859  1.0000
  O   O7        1.0  0.321078567828451  0.15795358114439748  0.09562850406706501  1.0000
  O   O8        1.0  0.17893963882002598  0.9043868989717794  0.8420290451625476  1.0000
  O   O9        1.0  0.500656819846732  0.06937866681817444  0.7758401364199798  1.0000
  O   O10       1.0  0.9994213649286507  0.2241589258965888  0.9306274749287341  1.0000
  O   O11       1.0  0.4993273009479751  0.9306258064636023  0.22416112947637862  1.0000
  O   O12       1.0  0.0005871555465475554  0.7758319663824621  0.06936750727025752  1.0000
  O   O13       1.0  0.08120324489925683  0.625563153641167  0.8717266673695435  1.0000
  O   O14       1.0  0.4187586391978472  0.12825465196339536  0.37445360637031655  1.0000
  O   O15       1.0  0.9187807941773231  0.37443602672163223  0.1282605714663845  1.0000
  O   O16       1.0  0.5812365148355171  0.8717496376603293  0.6255516913179734  1.0000
