data_image0
_chemical_formula_structural       Mo4H14C18N14O12
_chemical_formula_sum              "Mo4 H14 C18 N14 O12"
_cell_length_a       7.34059073866287
_cell_length_b       7.257371179678505
_cell_length_c       13.29703198418531
_cell_angle_alpha    87.94813761271385
_cell_angle_beta     80.44789151039429
_cell_angle_gamma    86.83550675227683

_space_group_name_H-M_alt    "P 1"
_space_group_IT_number       1

loop_
  _space_group_symop_operation_xyz
  'x, y, z'

loop_
  _atom_site_type_symbol
  _atom_site_label
  _atom_site_symmetry_multiplicity
  _atom_site_fract_x
  _atom_site_fract_y
  _atom_site_fract_z
  _atom_site_occupancy
  Mo  Mo1       1.0  0.7951884621350233  0.8834190028162184  0.5400212388881513  1.0000
  Mo  Mo2       1.0  0.20481523802116902  0.11657472847475249  0.4599798477218754  1.0000
  Mo  Mo3       1.0  0.18654422655761493  0.6182204247264877  0.43061138539191285  1.0000
  Mo  Mo4       1.0  0.8134421965562807  0.38178559564106956  0.5693978243574305  1.0000
  H   H1        1.0  0.6216964559705076  0.8865412988697443  0.3239055927834186  1.0000
  H   H2        1.0  0.3782971068356177  0.11346211349056291  0.6760962584778909  1.0000
  H   H3        1.0  0.9405651394431518  0.908394174171832  0.8036539374734984  1.0000
  H   H4        1.0  0.0594298715558423  0.09160785517856603  0.19634780455191958  1.0000
  H   H5        1.0  0.3820487885704935  0.5437821845021489  0.6715560947886985  1.0000
  H   H6        1.0  0.6179461219976404  0.4562226609227196  0.3284433656514024  1.0000
  H   H7        1.0  0.01347277172282451  0.7648803486085001  0.9694872279972626  1.0000
  H   H8        1.0  0.9865226722332779  0.23511345366667774  0.030512318969279265  1.0000
  H   H9        1.0  0.17330351136844513  0.7892756035869867  0.11640495639660739  1.0000
  H   H10       1.0  0.8266931697879942  0.21072093843040557  0.8835952022045247  1.0000
  H   H11       1.0  0.7000596457542515  0.6947486162927418  0.9231024926038954  1.0000
  H   H12       1.0  0.2999380835540819  0.30525482507701435  0.07689749186650369  1.0000
  H   H13       1.0  0.5438278933567844  0.6752779958540033  0.774003332287151  1.0000
  H   H14       1.0  0.4561699473544465  0.3247226478703027  0.22599818045065934  1.0000
  C   C1        1.0  0.02927934061877119  0.8188407262962586  0.7508364143454145  1.0000
  C   C2        1.0  0.9707187212158035  0.18115730407274105  0.24915909348079865  1.0000
  C   C3        1.0  0.2585587576766459  0.6348688442162569  0.683072733578747  1.0000
  C   C4        1.0  0.7414474835537137  0.36512898616543044  0.3169295871162561  1.0000
  C   C5        1.0  0.5505487131408628  0.7813119911580771  0.11156581367144718  1.0000
  C   C6        1.0  0.4494476346480952  0.2186914528278763  0.8884342908506538  1.0000
  C   C7        1.0  0.269395558867629  0.7238272759996535  0.8611216884371372  1.0000
  C   C8        1.0  0.730606547935423  0.27617207162743546  0.13887570837186297  1.0000
  C   C9        1.0  0.16433997257038163  0.7542713416014593  0.9573008767938446  1.0000
  C   C10       1.0  0.8356580234319253  0.24572657819344806  0.04269915093977521  1.0000
  C   C11       1.0  0.2547291539048189  0.7688188954975103  0.04087508482570709  1.0000
  C   C12       1.0  0.7452729756835555  0.2311789980198  0.9591253360706986  1.0000
  C   C13       1.0  0.4486931409911819  0.7533377578777589  0.028530395131760096  1.0000
  C   C14       1.0  0.5513047993096764  0.2466615607398737  0.9714688684681504  1.0000
  C   C15       1.0  0.5501211165446878  0.7129895108878442  0.9322152700189077  1.0000
  C   C16       1.0  0.4498780829005966  0.2870125843300428  0.0677830985797883  1.0000
  C   C17       1.0  0.4619317096610517  0.6983813948568027  0.8487615306865662  1.0000
  C   C18       1.0  0.5380675902150924  0.301617884286614  0.15123911949744684  1.0000
  N   N1        1.0  0.010572410103357298  0.7924087248893201  0.6555796433883073  1.0000
  N   N2        1.0  0.9894296418394787  0.2075905305926895  0.34442152001020077  1.0000
  N   N3        1.0  0.15514612200139777  0.6776897940240545  0.6132316083727003  1.0000
  N   N4        1.0  0.8448473952340907  0.3223165265558021  0.38676419471379114  1.0000
  N   N5        1.0  0.1848119613536738  0.7212614872213264  0.7716625649053765  1.0000
  N   N6        1.0  0.8151859899192289  0.2787378498253261  0.2283359453766352  1.0000
  N   N7        1.0  0.47559108629554464  0.834282291390757  0.20584308855907094  1.0000
  N   N8        1.0  0.5244037356550066  0.1657238975697979  0.7941578677010313  1.0000
  N   N9        1.0  0.624243044535902  0.846571354557682  0.24919317046420275  1.0000
  N   N10       1.0  0.3757519107616433  0.15343207361544836  0.7508078074275061  1.0000
  N   N11       1.0  0.7835514277630224  0.805711443262446  0.1886459303891144  1.0000
  N   N12       1.0  0.21644363893742746  0.1942891872652268  0.811356575770013  1.0000
  N   N13       1.0  0.7393039704360049  0.7637428537158187  0.10036840548224998  1.0000
  N   N14       1.0  0.2606924111103197  0.23625915458936925  0.8996339698093648  1.0000
  O   O1        1.0  0.8693640777181955  0.6274000994986935  0.5073511787117296  1.0000
  O   O2        1.0  0.13065049651655875  0.3725977889018921  0.4926474084014387  1.0000
  O   O3        1.0  0.10304577971112393  0.8794329345510122  0.4418049938553138  1.0000
  O   O4        1.0  0.8969618531694082  0.12056640261130269  0.5581919227468717  1.0000
  O   O5        1.0  0.6915028507541051  0.9392766045348466  0.43551760810294843  1.0000
  O   O6        1.0  0.308506453125105  0.060715754326651  0.5644822557981611  1.0000
  O   O7        1.0  0.6179114564814299  0.8619932706565054  0.6389165016458378  1.0000
  O   O8        1.0  0.38209304707675074  0.13801291841971164  0.361082860934431  1.0000
  O   O9        1.0  0.15266526121093454  0.5788752899781145  0.309557595927366  1.0000
  O   O10       1.0  0.847338692984728  0.42111588324460303  0.6904352258173458  1.0000
  O   O11       1.0  0.42075933214555056  0.6214575148322369  0.42272834207506793  1.0000
  O   O12       1.0  0.5792497379558057  0.3785404208911558  0.5772692186091106  1.0000
