data_image0
_chemical_formula_structural       Co4H24C40N2O16
_chemical_formula_sum              "Co4 H24 C40 N2 O16"
_cell_length_a       9.63059751782324
_cell_length_b       9.980620254494402
_cell_length_c       11.014657231207623
_cell_angle_alpha    67.19317089879924
_cell_angle_beta     77.39679067483873
_cell_angle_gamma    66.58991627044148

_space_group_name_H-M_alt    "P 1"
_space_group_IT_number       1

loop_
  _space_group_symop_operation_xyz
  'x, y, z'

loop_
  _atom_site_type_symbol
  _atom_site_label
  _atom_site_symmetry_multiplicity
  _atom_site_fract_x
  _atom_site_fract_y
  _atom_site_fract_z
  _atom_site_occupancy
  Co  Co1       1.0  0.1291444279416467  0.0483289671420479  0.8945814935974924  1.0000
  Co  Co2       1.0  0.8758134280524102  0.9487878597871529  0.09828362596358174  1.0000
  Co  Co3       1.0  0.912742799739931  0.038159811542513515  0.7492091573677229  1.0000
  Co  Co4       1.0  0.08262267053697062  0.9679277039064474  0.24752766666246362  1.0000
  H   H1        1.0  0.08656594185131176  0.5176791196553977  0.8911525539231633  1.0000
  H   H2        1.0  0.9079916006992618  0.4812236972845482  0.1082755217672827  1.0000
  H   H3        1.0  0.5404286623758593  0.17909685529870253  0.9098693969670819  1.0000
  H   H4        1.0  0.4586769201278075  0.8257186386373049  0.0897915326885866  1.0000
  H   H5        1.0  0.47298128273722273  0.6587841501554763  0.8272131742984499  1.0000
  H   H6        1.0  0.5166066854193473  0.34692760787885396  0.17718851225163954  1.0000
  H   H7        1.0  0.8842578824288195  0.4906212063376004  0.8441968667381945  1.0000
  H   H8        1.0  0.10961300880442339  0.5150910309970698  0.16162794390548638  1.0000
  H   H9        1.0  0.9895614419595371  0.6637458938678905  0.64527278348681  1.0000
  H   H10       1.0  0.01400660049074527  0.33311714130746856  0.35978229638805465  1.0000
  H   H11       1.0  0.7004507956280008  0.6552883907829212  0.40265363391142023  1.0000
  H   H12       1.0  0.3067916094708919  0.34082271862548913  0.5999084988721108  1.0000
  H   H13       1.0  0.5928054222732014  0.4855466346088024  0.601782615947492  1.0000
  H   H14       1.0  0.4047013474838577  0.5195782033527439  0.40122093310683477  1.0000
  H   H15       1.0  0.8504060701316618  0.13052625276161223  0.4801457252760671  1.0000
  H   H16       1.0  0.14848013604506596  0.8694275413334581  0.5172882788424785  1.0000
  H   H17       1.0  0.6819723997428966  0.1025043440793354  0.3586716981845229  1.0000
  H   H18       1.0  0.3189948994877838  0.892751177948867  0.6402316572080194  1.0000
  H   H19       1.0  0.4467234456262191  0.9298375586459782  0.7351965170632014  1.0000
  H   H20       1.0  0.5539759415731851  0.06844164249134371  0.26428118147766355  1.0000
  H   H21       1.0  0.6265339565520947  0.958496050908991  0.8408126997247861  1.0000
  H   H22       1.0  0.37310877066209963  0.042815619512154506  0.15763482347650637  1.0000
  H   H23       1.0  0.8303195208784258  0.18988403422646635  0.8991072165419213  1.0000
  H   H24       1.0  0.17558561627461688  0.821934034087491  0.09327795765063475  1.0000
  C   C1        1.0  0.16899286531256058  0.7693740175701222  0.8367672644313233  1.0000
  C   C2        1.0  0.8211573344540849  0.233102320387168  0.1645241204028239  1.0000
  C   C3        1.0  0.2688398764538674  0.6047440112923612  0.8582219986462575  1.0000
  C   C4        1.0  0.7228987034626256  0.3972399506617493  0.1441337772004019  1.0000
  C   C5        1.0  0.20881845927007692  0.48829719670929  0.8852386043808379  1.0000
  C   C6        1.0  0.7855997593752378  0.5115390135581421  0.11466582127007283  1.0000
  C   C7        1.0  0.30681970059544034  0.3349319294140898  0.9054288446388199  1.0000
  C   C8        1.0  0.6905177817204304  0.6656574211706643  0.09291731530676359  1.0000
  C   C9        1.0  0.4650048285860747  0.298507360955739  0.894709593549486  1.0000
  C   C10       1.0  0.5320587971066927  0.7055466753379918  0.10578363661141317  1.0000
  C   C11       1.0  0.522085184210674  0.4170428310970777  0.8623985448486808  1.0000
  C   C12       1.0  0.4721429673412558  0.588531677658537  0.14026293809650534  1.0000
  C   C13       1.0  0.4258581693028417  0.568740427134003  0.8480665307316356  1.0000
  C   C14       1.0  0.5655718522648243  0.4358557294257465  0.155119723253506  1.0000
  C   C15       1.0  0.2500780400765592  0.20793069519938004  0.9246146550123414  1.0000
  C   C16       1.0  0.7599165919820904  0.7839522757625446  0.06965943115716304  1.0000
  C   C17       1.0  0.732099696742168  0.48247571240479903  0.7331644556503392  1.0000
  C   C18       1.0  0.26397957530361543  0.5228025601644788  0.2712752928519819  1.0000
  C   C19       1.0  0.8443602524014084  0.529480288709955  0.7469990363176392  1.0000
  C   C20       1.0  0.15326096299662584  0.473695080712922  0.2577344576566887  1.0000
  C   C21       1.0  0.9035813444820134  0.6239075478104255  0.635682320202257  1.0000
  C   C22       1.0  0.09920587727763319  0.3742920159101075  0.3688319345408146  1.0000
  C   C23       1.0  0.8507450452989999  0.6702976272061109  0.511717855583754  1.0000
  C   C24       1.0  0.15577387865062053  0.32478199551093223  0.4919302142658352  1.0000
  C   C25       1.0  0.7388384373562288  0.6197102194749392  0.5000176278371954  1.0000
  C   C26       1.0  0.2657554139992229  0.3778734354493309  0.5033663511506532  1.0000
  C   C27       1.0  0.6790237965220952  0.525888944278961  0.6102038722936526  1.0000
  C   C28       1.0  0.32004588854215404  0.47697310545262167  0.39343618165573707  1.0000
  C   C29       1.0  0.9077469145320118  0.7737774764979053  0.39075022159115497  1.0000
  C   C30       1.0  0.10080281149760142  0.2172775212911304  0.6107143450965538  1.0000
  C   C31       1.0  0.7608096279616703  0.08396582671132793  0.5324746015760411  1.0000
  C   C32       1.0  0.238633120028446  0.9153934104682904  0.4655282669107238  1.0000
  C   C33       1.0  0.664976533806751  0.0690949573224557  0.4654501701897473  1.0000
  C   C34       1.0  0.3356419166048568  0.9277070585510785  0.5333255352545692  1.0000
  C   C35       1.0  0.5504688023619195  0.008389678708979898  0.5348077413629967  1.0000
  C   C36       1.0  0.4503816268279761  0.9884287443642139  0.4645558156993062  1.0000
  C   C37       1.0  0.5364820837688099  0.9700605083590972  0.6729048791388053  1.0000
  C   C38       1.0  0.46415927048455785  0.028008780284217508  0.3263210333585818  1.0000
  C   C39       1.0  0.6369924527329616  0.9869434424362142  0.7340209775181918  1.0000
  C   C40       1.0  0.3627325711851411  0.0132054707029141  0.26456936637517  1.0000
  N   N1        1.0  0.7499045419089682  0.04097331359017892  0.6659063763715238  1.0000
  N   N2        1.0  0.24894546737150589  0.9603810774577685  0.3319876730436987  1.0000
  O   O1        1.0  0.6787352797806747  0.38364698508188877  0.8458317029955539  1.0000
  O   O2        1.0  0.31501772697831837  0.6246016415723759  0.15929198200159078  1.0000
  O   O3        1.0  0.3435673779912917  0.07402382571627444  0.9304110582826439  1.0000
  O   O4        1.0  0.6750857747012801  0.9187120967031462  0.0741921276933155  1.0000
  O   O5        1.0  0.105950450761469  0.23747697810058813  0.9267330199252087  1.0000
  O   O6        1.0  0.9042655143494754  0.7463759518775889  0.05380387222606938  1.0000
  O   O7        1.0  0.21885684153424725  0.848705045681065  0.8728383133811946  1.0000
  O   O8        1.0  0.7699331108319495  0.15207671556338911  0.13364167680200018  1.0000
  O   O9        1.0  0.04667258225708076  0.821025653507917  0.7807912587201215  1.0000
  O   O10       1.0  0.9475374845251919  0.18307696111977384  0.21552359241561456  1.0000
  O   O11       1.0  0.015865783489623145  0.8150588109694896  0.3978701000522378  1.0000
  O   O12       1.0  0.9875013075255339  0.1853722608057851  0.6020512771053035  1.0000
  O   O13       1.0  0.8442440480054711  0.8168087125200287  0.2859617547472125  1.0000
  O   O14       1.0  0.17259001814989008  0.16225972774221023  0.7140253802641396  1.0000
  O   O15       1.0  0.8957242535658452  0.08264616540741802  0.9060313394253897  1.0000
  O   O16       1.0  0.10488179946230501  0.9282971887040645  0.0846203625474331  1.0000
