data_image0
_chemical_formula_structural       CuH26C26N4O4
_chemical_formula_sum              "Cu1 H26 C26 N4 O4"
_cell_length_a       6.865687118425464
_cell_length_b       9.598249908919716
_cell_length_c       10.985816042787896
_cell_angle_alpha    79.73370612629896
_cell_angle_beta     73.06430959244443
_cell_angle_gamma    68.16052122508304

_space_group_name_H-M_alt    "P 1"
_space_group_IT_number       1

loop_
  _space_group_symop_operation_xyz
  'x, y, z'

loop_
  _atom_site_type_symbol
  _atom_site_label
  _atom_site_symmetry_multiplicity
  _atom_site_fract_x
  _atom_site_fract_y
  _atom_site_fract_z
  _atom_site_occupancy
  Cu  Cu1       1.0  0.4999943289017992  0.5000049405932643  2.1428060890731807e-06  1.0000
  H   H1        1.0  0.2136275744581652  0.3139563294144239  0.0674710312989646  1.0000
  H   H2        1.0  0.7863491226665714  0.6860450806795058  0.9325404464325542  1.0000
  H   H3        1.0  0.7664465569515571  0.3375857041192204  0.6515120901998228  1.0000
  H   H4        1.0  0.23354558510290946  0.6624252551901294  0.3484918658717361  1.0000
  H   H5        1.0  0.9321735503816055  0.1690296902223025  0.7165833173759281  1.0000
  H   H6        1.0  0.0677983525970163  0.8309949980520841  0.2834132022583303  1.0000
  H   H7        1.0  0.86049739379618  0.3424843741434528  0.7846920499262137  1.0000
  H   H8        1.0  0.13948269031983082  0.6575223979751141  0.21531142846740883  1.0000
  H   H9        1.0  0.03782696368580221  0.13620652750328327  0.03795967024210259  1.0000
  H   H10       1.0  0.9621612395020095  0.8637810195210207  0.9620391683578615  1.0000
  H   H11       1.0  0.25040271288848004  0.9623445495236209  0.9936973787812772  1.0000
  H   H12       1.0  0.7496085650735936  0.037647712445398385  0.00628231814298624  1.0000
  H   H13       1.0  0.11206387233747958  0.08108586686553557  0.8804031034359664  1.0000
  H   H14       1.0  0.8879258470461622  0.918918210679038  0.11958615358928883  1.0000
  H   H15       1.0  0.49035771216289686  0.9619502614484218  0.7442609181121822  1.0000
  H   H16       1.0  0.5096479177032549  0.0380502551380602  0.2557375966300057  1.0000
  H   H17       1.0  0.756815311107367  0.9561097392834625  0.7181317147803838  1.0000
  H   H18       1.0  0.24317453240743697  0.04389695613800629  0.28188073935095287  1.0000
  H   H19       1.0  0.28722011215236876  0.2911138303765455  0.6450417444742199  1.0000
  H   H20       1.0  0.7128082650137345  0.7089030788415653  0.35496843552315477  1.0000
  H   H21       1.0  0.2852749484024741  0.41278022004793496  0.42508827103836916  1.0000
  H   H22       1.0  0.7147472095967727  0.5872255987329922  0.5749169111135044  1.0000
  H   H23       1.0  0.896298529310755  0.0781814190098871  0.2789270294106244  1.0000
  H   H24       1.0  0.10370927144106173  0.9218080280903821  0.7210793654620955  1.0000
  H   H25       1.0  0.8812561860472459  0.9417267160840265  0.4960523421709411  1.0000
  H   H26       1.0  0.118749383478729  0.05826512122453658  0.5039604589668298  1.0000
  C   C1        1.0  0.3341622883300983  0.16037461428962269  0.9223520516146945  1.0000
  C   C2        1.0  0.6658291004900434  0.8396294646163013  0.07763960106594683  1.0000
  C   C3        1.0  0.5148417382862646  0.14248776514906322  0.8192558311520483  1.0000
  C   C4        1.0  0.48516449623925684  0.8575103740119588  0.18073478136881244  1.0000
  C   C5        1.0  0.6064194427933814  0.24884568469227725  0.8285624797516107  1.0000
  C   C6        1.0  0.3935716950109124  0.7511483635646812  0.17142916167426855  1.0000
  C   C7        1.0  0.8021596214824314  0.27631602280877837  0.7414299978548582  1.0000
  C   C8        1.0  0.19783288643745323  0.7236858484021339  0.2585645489936822  1.0000
  C   C9        1.0  0.17503702835783486  0.08055741845341659  0.9615662975893  1.0000
  C   C10       1.0  0.8249494134490829  0.9194400447048849  0.03842295901721831  1.0000
  C   C11       1.0  0.5912964097010729  0.0339490489904932  0.719213902394024  1.0000
  C   C12       1.0  0.4087252951540634  0.9660499883964347  0.2807852742606513  1.0000
  C   C13       1.0  0.5868566351441089  0.10922523865374958  0.5860234468226578  1.0000
  C   C14       1.0  0.4131558309569454  0.8907640993769518  0.41398293742339826  1.0000
  C   C15       1.0  0.4189026963983196  0.24177040753617962  0.5644042110840815  1.0000
  C   C16       1.0  0.5811408442203075  0.7582261145366684  0.4356083101791554  1.0000
  C   C17       1.0  0.41873598134242207  0.311555008738047  0.4416735949296821  1.0000
  C   C18       1.0  0.5812687629696924  0.6884490810587138  0.558337222994055  1.0000
  C   C19       1.0  0.593701083563772  0.2546169473449424  0.3385435172933596  1.0000
  C   C20       1.0  0.40630056533501613  0.7453680634143109  0.6614557879391325  1.0000
  C   C21       1.0  0.7609104408836201  0.12177489131394029  0.35977747367731877  1.0000
  C   C22       1.0  0.2390922359398148  0.878225749847651  0.640224347046022  1.0000
  C   C23       1.0  0.7536989759213667  0.04757308339679869  0.4811482244205506  1.0000
  C   C24       1.0  0.24632615277751294  0.9524180643992325  0.5188507352821007  1.0000
  C   C25       1.0  0.607987960317395  0.33230802216284866  0.20677640849777384  1.0000
  C   C26       1.0  0.39200281782581925  0.6676851684087878  0.7932300290909634  1.0000
  N   N1        1.0  0.48883924991394423  0.3259327496351716  0.9322598050455609  1.0000
  N   N2        1.0  0.5111428632996464  0.6740748815300676  0.06773127284058941  1.0000
  N   N3        1.0  0.32556382395002004  0.270544507443688  0.9876140191301201  1.0000
  N   N4        1.0  0.674411532751165  0.7294610648059886  0.012377871337136494  1.0000
  O   O1        1.0  0.42463087714517656  0.40485649369323795  0.1766099277956883  1.0000
  O   O2        1.0  0.5753629758639746  0.595115428374136  0.8233959779349717  1.0000
  O   O3        1.0  0.7891712861227161  0.3243586841639399  0.1325599702281863  1.0000
  O   O4        1.0  0.21084747791160655  0.6756437977740928  0.8674410166607273  1.0000
