data_image0
_chemical_formula_structural       Al2H12C22S2Cl2O10
_chemical_formula_sum              "Al2 H12 C22 S2 Cl2 O10"
_cell_length_a       6.961164492818781
_cell_length_b       11.159812563752137
_cell_length_c       12.881587472833214
_cell_angle_alpha    80.46617070875608
_cell_angle_beta     71.9663910722527
_cell_angle_gamma    70.94088732632984

_space_group_name_H-M_alt    "P 1"
_space_group_IT_number       1

loop_
  _space_group_symop_operation_xyz
  'x, y, z'

loop_
  _atom_site_type_symbol
  _atom_site_label
  _atom_site_symmetry_multiplicity
  _atom_site_fract_x
  _atom_site_fract_y
  _atom_site_fract_z
  _atom_site_occupancy
  Al  Al1       1.0  0.49990721629834656  0.5005844198248824  0.5036972682017193  1.0000
  Al  Al2       1.0  0.0010949720809990667  0.49881517039040085  0.5038974766129698  1.0000
  H   H1        1.0  0.28805364583448767  0.3503911663067498  0.5780588917542957  1.0000
  H   H2        1.0  0.7100424480416905  0.6535129921024918  0.44147435728388734  1.0000
  H   H3        1.0  0.2104104341920704  0.24050983896135145  0.3381892044852322  1.0000
  H   H4        1.0  0.541150290931931  0.12563209574221193  0.21216245702787964  1.0000
  H   H5        1.0  0.4312211172383228  0.7674462573742037  0.34892848449275954  1.0000
  H   H6        1.0  0.6520611933369764  0.8878548032042064  0.21770655681644502  1.0000
  H   H7        1.0  0.21414779917777335  0.49882815809271364  0.7813973147825448  1.0000
  H   H8        1.0  0.0651222692023693  0.5795481087578837  0.9023122662756078  1.0000
  H   H9        1.0  0.14863875424072856  0.411134454944687  0.9091333067907212  1.0000
  H   H10       1.0  0.8506802580656154  0.5891151323128624  0.09746650422879809  1.0000
  H   H11       1.0  0.9348942955046269  0.4208441554471349  0.10452510623679245  1.0000
  H   H12       1.0  0.7855183754322893  0.5018361012912749  0.22547829394616764  1.0000
  C   C1        1.0  0.8653741947860071  0.2766694222643622  0.4934468512291943  1.0000
  C   C2        1.0  0.645214252980672  0.49768464237253346  0.6982115464600581  1.0000
  C   C3        1.0  0.134203989509352  0.7236277459189537  0.5108184693230129  1.0000
  C   C4        1.0  0.35525950105833454  0.5012593721771949  0.30872312841407273  1.0000
  C   C5        1.0  0.38858437309242794  0.4967690119373103  0.8935657823508901  1.0000
  C   C6        1.0  0.6113929289943768  0.5027855551409957  0.11335551131328704  1.0000
  C   C7        1.0  0.5785939027818613  0.5006309558169734  0.8178120653718818  1.0000
  C   C8        1.0  0.4217101530291459  0.4984871987323772  0.18922750393403479  1.0000
  C   C9        1.0  0.5980423631222035  0.5020218626535711  0.005797941017298964  1.0000
  C   C10       1.0  0.4022289126887415  0.4970422310456541  0.0011377851514921809  1.0000
  C   C11       1.0  0.9354160795940628  0.13431286059786632  0.4957696137859812  1.0000
  C   C12       1.0  0.1286408918986126  0.07010319073330612  0.4213198837713037  1.0000
  C   C13       1.0  0.8127105465078586  0.0660609578477391  0.5716411618529946  1.0000
  C   C14       1.0  0.2576775569550733  0.1371011632697972  0.3421602176933263  1.0000
  C   C15       1.0  0.44334991001996826  0.07251845585457063  0.2714311948477074  1.0000
  C   C16       1.0  0.06424996172265904  0.8661216810022127  0.5049744356479094  1.0000
  C   C17       1.0  0.8779897160653861  0.9307852972883238  0.5766943899435402  1.0000
  C   C18       1.0  0.19329405265958127  0.933740863780237  0.4254570370723981  1.0000
  C   C19       1.0  0.38295337268545643  0.8705887764645867  0.3490609743668145  1.0000
  C   C20       1.0  0.5060167637831798  0.9384069105975995  0.2746576955230181  1.0000
  C   C21       1.0  0.19513705209867988  0.49624873897314364  0.8690409162548604  1.0000
  C   C22       1.0  0.8044994653494582  0.5039647843276852  0.13784252988519094  1.0000
  S   S1        1.0  0.767505990345292  0.5063498558797831  0.8766158015262348  1.0000
  S   S2        1.0  0.23293043685821857  0.4923951587131299  0.13041065581459318  1.0000
  Cl  Cl1       1.0  0.7289421039554751  0.8488617967680485  0.6763113112364677  1.0000
  Cl  Cl2       1.0  0.5855894876812116  0.14238458006175853  0.6662844190126336  1.0000
  O   O1        1.0  0.6846589404076011  0.3329277458187647  0.47802628003105235  1.0000
  O   O2        1.0  0.8313993309679899  0.5082467466405164  0.6518087066652001  1.0000
  O   O3        1.0  0.009392634060653021  0.6700216907419615  0.49709234898507754  1.0000
  O   O4        1.0  0.4778425278528216  0.5210326301873992  0.35589308734303415  1.0000
  O   O5        1.0  0.3158328540451905  0.6695700764036374  0.5262323544913909  1.0000
  O   O6        1.0  0.17214085645147745  0.4860510855504928  0.3555793324626747  1.0000
  O   O7        1.0  0.9931521295637962  0.32804150396421505  0.5073382297304363  1.0000
  O   O8        1.0  0.5191023404033359  0.4825792132449607  0.650950608131346  1.0000
  O   O9        1.0  0.25616882358970366  0.43918398437017464  0.5507339353425137  1.0000
  O   O10       1.0  0.7451143806129537  0.5618054581371155  0.45642316101267244  1.0000
