data_image0
_chemical_formula_structural       Al4H20C31O21
_chemical_formula_sum              "Al4 H20 C31 O21"
_cell_length_a       6.658394027516316
_cell_length_b       12.497649632956124
_cell_length_c       17.248823682875848
_cell_angle_alpha    89.42916471545337
_cell_angle_beta     89.52318445851787
_cell_angle_gamma    89.8332096875274

_space_group_name_H-M_alt    "P 1"
_space_group_IT_number       1

loop_
  _space_group_symop_operation_xyz
  'x, y, z'

loop_
  _atom_site_type_symbol
  _atom_site_label
  _atom_site_symmetry_multiplicity
  _atom_site_fract_x
  _atom_site_fract_y
  _atom_site_fract_z
  _atom_site_occupancy
  Al  Al1       1.0  0.8896010616081612  0.5019996532285802  0.5018422285291352  1.0000
  Al  Al2       1.0  0.3893654044571875  0.49622030302638354  0.5014283256411289  1.0000
  Al  Al3       1.0  0.37573549922313987  0.9917511362169478  0.9989534414763385  1.0000
  Al  Al4       1.0  0.8763716404304986  0.9951265872008294  0.9988708176958315  1.0000
  H   H1        1.0  0.43075668128536654  0.18219702139721514  0.19092767294895205  1.0000
  H   H2        1.0  0.9720374239186783  0.21661034360016626  0.19012664519632955  1.0000
  H   H3        1.0  0.437677104873309  0.310462948542785  0.2991528444153034  1.0000
  H   H4        1.0  0.9833175948593222  0.2693840547262951  0.31626453528150483  1.0000
  H   H5        1.0  0.8207361446279648  0.23496438820858861  0.8308978563579006  1.0000
  H   H6        1.0  0.8224772132605125  0.34638942778438053  0.7089241417115064  1.0000
  H   H7        1.0  0.44028859021366884  0.2622371953779492  0.6682875986987825  1.0000
  H   H8        1.0  0.4391785449981356  0.1506863734677921  0.790502666349802  1.0000
  H   H9        1.0  0.9499554245489676  0.7325891880473705  0.3253259226244084  1.0000
  H   H10       1.0  0.9421092319538573  0.8390569944623537  0.20102059998694702  1.0000
  H   H11       1.0  0.3164550610745422  0.7654195845453702  0.1754871313113568  1.0000
  H   H12       1.0  0.3236670057871933  0.65918240737426  0.30011212914087093  1.0000
  H   H13       1.0  0.9176951501200322  0.758491876973345  0.654159993504017  1.0000
  H   H14       1.0  0.3420875663685834  0.7417304054807874  0.8390532140138732  1.0000
  H   H15       1.0  0.33758490008892744  0.6328288484971124  0.7180913088001546  1.0000
  H   H16       1.0  0.9142870352689202  0.9732898183267834  0.7987654804142539  1.0000
  H   H17       1.0  0.6486340208275793  0.3664914053376833  0.4715193063463803  1.0000
  H   H18       1.0  0.1469964864586117  0.6346520557939357  0.4741156597974126  1.0000
  H   H19       1.0  0.6216211185514311  0.1272784516391994  0.969951632189158  1.0000
  H   H20       1.0  0.12381066610156213  0.8624558811230755  0.9659705159560233  1.0000
  C   C1        1.0  0.6433397690445376  0.6249600430038313  0.39293582093718993  1.0000
  C   C2        1.0  0.6293551290576217  0.619759982869347  0.6087822403616983  1.0000
  C   C3        1.0  0.1307131636265524  0.37741054786334155  0.6099515031095921  1.0000
  C   C4        1.0  0.14501231828592862  0.3714271010368931  0.39585152793223705  1.0000
  C   C5        1.0  0.2875094187226069  0.21252010717267217  0.21331652846946986  1.0000
  C   C6        1.0  0.1205806487543128  0.18719353521477441  0.17362338595970783  1.0000
  C   C7        1.0  0.292274842959614  0.27804522293937584  0.2822324743335899  1.0000
  C   C8        1.0  0.13250724425940769  0.3010180202427365  0.3278862134557771  1.0000
  C   C9        1.0  0.9557961527343436  0.2416790074886634  0.7951000904223522  1.0000
  C   C10       1.0  0.9563152727422591  0.303189567865715  0.7275338718031181  1.0000
  C   C11       1.0  0.1316314657630286  0.3106929395326219  0.6821475084693207  1.0000
  C   C12       1.0  0.30631385988672116  0.25613287232741294  0.704792946036271  1.0000
  C   C13       1.0  0.30585756989891166  0.1949271785561564  0.7726084411954873  1.0000
  C   C14       1.0  0.13075453104774226  0.18764780617748758  0.8182039085999764  1.0000
  C   C15       1.0  0.812063839635087  0.7403274059772471  0.29214410902419985  1.0000
  C   C16       1.0  0.8080317298002769  0.7990488096845922  0.22331816891724546  1.0000
  C   C17       1.0  0.6290113201828192  0.8078694571427576  0.1813456646346054  1.0000
  C   C18       1.0  0.45378585101556007  0.7580400131648305  0.209129580537372  1.0000
  C   C19       1.0  0.4578073023113306  0.6995866862582217  0.2782127530286189  1.0000
  C   C20       1.0  0.6370928700362343  0.6902426378493303  0.3199884766995069  1.0000
  C   C21       1.0  0.7922520988774976  0.7534089866892089  0.695081675849444  1.0000
  C   C22       1.0  0.7922769957853504  0.8182326217895624  0.7607265274516168  1.0000
  C   C23       1.0  0.6299701560649852  0.8115272103988929  0.8140795993492632  1.0000
  C   C24       1.0  0.46762513688937457  0.7444959209213663  0.7983202830750571  1.0000
  C   C25       1.0  0.46567100587185445  0.6832423927484044  0.7314744083075908  1.0000
  C   C26       1.0  0.6298304470377117  0.6863689444492636  0.6801237998878236  1.0000
  C   C27       1.0  0.6285513308902465  0.8720705073084929  0.8884297691759999  1.0000
  C   C28       1.0  0.6262762063476758  0.8715667482360557  0.10769807853640863  1.0000
  C   C29       1.0  0.12527642180864262  0.11702811208549951  0.10534976214992753  1.0000
  C   C30       1.0  0.1291428201191067  0.1210292692661241  0.8904520031380658  1.0000
  C   C31       1.0  0.9539287509466232  0.9000144540565388  0.76614796914744  1.0000
  O   O1        1.0  0.46185795482179515  0.581072654984446  0.5883164228639473  1.0000
  O   O2        1.0  0.8160961518486474  0.5944934791803859  0.4159345134501821  1.0000
  O   O3        1.0  0.9774047557249759  0.3930163147183946  0.42914736888451444  1.0000
  O   O4        1.0  0.7962232311288985  0.6067977691580778  0.5735209147798912  1.0000
  O   O5        1.0  0.9624849747255908  0.41610682489967843  0.5891070706581375  1.0000
  O   O6        1.0  0.47621561960801984  0.6041765324481645  0.426373209140536  1.0000
  O   O7        1.0  0.6417845893340086  0.4331270389456704  0.49971626888929443  1.0000
  O   O8        1.0  0.2971311769521705  0.39068354635426067  0.5742364063246299  1.0000
  O   O9        1.0  0.3173403368573489  0.4052344141565883  0.4161164844515498  1.0000
  O   O10       1.0  0.1413136057922273  0.5651185085777825  0.49934352555978023  1.0000
  O   O11       1.0  0.7955758979448933  0.8998133004093488  0.07965822895626931  1.0000
  O   O12       1.0  0.45751950384728696  0.8938708978953755  0.9179652781707761  1.0000
  O   O13       1.0  0.2983236740501596  0.09402064440852337  0.9186775645049254  1.0000
  O   O14       1.0  0.4560574023785762  0.8930198538890012  0.07820809971808272  1.0000
  O   O15       1.0  0.2951499509103712  0.08617157093307526  0.0794047420962158  1.0000
  O   O16       1.0  0.7985188415639115  0.8956506856589285  0.9174194567019073  1.0000
  O   O17       1.0  0.6247720192139993  0.0583108195909361  0.9960747652654619  1.0000
  O   O18       1.0  0.9547908600328441  0.09267832235170907  0.0772651972842837  1.0000
  O   O19       1.0  0.9571195853950556  0.09581214750372875  0.918445324262976  1.0000
  O   O20       1.0  0.12509424083465598  0.9276219530127037  0.9959821810781339  1.0000
  O   O21       1.0  0.11777936523474607  0.8915357877712111  0.7337466389165075  1.0000
