data_image0
_chemical_formula_structural       Zn8H12C24N12O14
_chemical_formula_sum              "Zn8 H12 C24 N12 O14"
_cell_length_a       14.340994017028404
_cell_length_b       14.340973672078222
_cell_length_c       14.340984673733438
_cell_angle_alpha    59.99974659375039
_cell_angle_beta     59.999754317248396
_cell_angle_gamma    59.99975584251944

_space_group_name_H-M_alt    "P 1"
_space_group_IT_number       1

loop_
  _space_group_symop_operation_xyz
  'x, y, z'

loop_
  _atom_site_type_symbol
  _atom_site_label
  _atom_site_symmetry_multiplicity
  _atom_site_fract_x
  _atom_site_fract_y
  _atom_site_fract_z
  _atom_site_occupancy
  Zn  Zn1       1.0  0.8056878916653218  0.8056878657648029  0.8056876966511483  1.0000
  Zn  Zn2       1.0  0.5829296195897695  0.8056916644460089  0.8056919049290626  1.0000
  Zn  Zn3       1.0  0.8056918813265028  0.5829291526762929  0.8056919639394665  1.0000
  Zn  Zn4       1.0  0.8056920649413402  0.8056919070530245  0.5829299880595117  1.0000
  Zn  Zn5       1.0  0.4176988455458924  0.1940992813329601  0.19409968735406125  1.0000
  Zn  Zn6       1.0  0.1941026504337202  0.19410331616100515  0.1941029394349982  1.0000
  Zn  Zn7       1.0  0.1940997277574041  0.19409913136074408  0.4176981843372262  1.0000
  Zn  Zn8       1.0  0.19409912121159317  0.4176992566402332  0.1940996281218048  1.0000
  H   H1        1.0  0.6814537407058693  0.9705759643021639  0.9681264904304215  1.0000
  H   H2        1.0  0.3798461052978364  0.9681242106814097  0.9705749804994852  1.0000
  H   H3        1.0  0.9681253780302866  0.37984370838292153  0.6814546748927199  1.0000
  H   H4        1.0  0.97057579210761  0.6814548705787898  0.3798442690693022  1.0000
  H   H5        1.0  0.9705749944875564  0.9681278194585586  0.6814532726745242  1.0000
  H   H6        1.0  0.9681259005414659  0.9705736264963888  0.37984555163321687  1.0000
  H   H7        1.0  0.3798451711578963  0.6814538911453315  0.9681267723873078  1.0000
  H   H8        1.0  0.6814539579346857  0.3798452140448774  0.9705740130182365  1.0000
  H   H9        1.0  0.9681262375464994  0.681454597057197  0.9705751138198622  1.0000
  H   H10       1.0  0.9705733241482404  0.3798456826024436  0.9681257843575465  1.0000
  H   H11       1.0  0.6814546646535574  0.9681248124916454  0.3798455303584234  1.0000
  H   H12       1.0  0.3798458078174537  0.9705740744267785  0.6814537016840491  1.0000
  C   C1        1.0  0.5007166550394615  0.9992825464583248  0.9992848197498034  1.0000
  C   C2        1.0  0.9992820852740962  0.5007171546707883  0.5007176853134255  1.0000
  C   C3        1.0  0.9992826044447507  0.999284341705618  0.5007168894992303  1.0000
  C   C4        1.0  0.5007163616594356  0.5007169798247589  0.9992829153571351  1.0000
  C   C5        1.0  0.999283141015283  0.5007171112386715  0.9992833414648389  1.0000
  C   C6        1.0  0.5007172297418735  0.9992814311142126  0.5007169838984922  1.0000
  C   C7        1.0  0.620407128983068  0.9574159502505778  0.9562244394546514  1.0000
  C   C8        1.0  0.4659506905920026  0.9562240980909495  0.9574172188808986  1.0000
  C   C9        1.0  0.9562228070583314  0.46595297490767984  0.6204075531849326  1.0000
  C   C10       1.0  0.9574154105482292  0.6204077247811525  0.46595333423347535  1.0000
  C   C11       1.0  0.9574158646409002  0.9562251611385264  0.6204063668743416  1.0000
  C   C12       1.0  0.956224539145154  0.957417131931912  0.46595015455369554  1.0000
  C   C13       1.0  0.46595183554524766  0.6204083516014194  0.956224259480642  1.0000
  C   C14       1.0  0.6204084131697627  0.46595192946404757  0.9574153234194825  1.0000
  C   C15       1.0  0.9562237186787994  0.6204073190489084  0.9574161924136747  1.0000
  C   C16       1.0  0.9574164566577892  0.4659502501509751  0.9562248798931351  1.0000
  C   C17       1.0  0.620408624297788  0.9562233675333544  0.46595170623636767  1.0000
  C   C18       1.0  0.46595195192408295  0.9574147634054244  0.6204083926900881  1.0000
  C   C19       1.0  0.4284786203881196  0.07151928149916396  0.07152122329375736  1.0000
  C   C20       1.0  0.07151891091837109  0.42847996468486127  0.4284794679992031  1.0000
  C   C21       1.0  0.071520178753012  0.07152063557357738  0.42847844373839916  1.0000
  C   C22       1.0  0.42847966021319184  0.4284795236632206  0.07151902684165623  1.0000
  C   C23       1.0  0.07151983004496996  0.4284792776790384  0.07152032355590174  1.0000
  C   C24       1.0  0.4284805983524008  0.07151868176838859  0.4284787573810718  1.0000
  N   N1        1.0  0.6541132793026634  0.8943835320426957  0.8936286863779797  1.0000
  N   N2        1.0  0.5578774926617172  0.8936281602272517  0.8943834152416201  1.0000
  N   N3        1.0  0.8936283662512282  0.5578757614304377  0.6541133187799703  1.0000
  N   N4        1.0  0.8943833012831774  0.6541127236069643  0.5578764178516664  1.0000
  N   N5        1.0  0.89438370953831  0.8936293605998955  0.6541123377747909  1.0000
  N   N6        1.0  0.8936287335338804  0.8943832951599762  0.5578769148145852  1.0000
  N   N7        1.0  0.5578764355663849  0.654113720194566  0.8936283164048433  1.0000
  N   N8        1.0  0.6541132460563335  0.5578776703817996  0.8943824230653732  1.0000
  N   N9        1.0  0.8936289927735784  0.654113097227622  0.8943832019670739  1.0000
  N   N10       1.0  0.8943827572678842  0.557877206261935  0.8936279623920884  1.0000
  N   N11       1.0  0.6541133995331238  0.8936275738388204  0.5578767251769821  1.0000
  N   N12       1.0  0.5578770052527633  0.8943820153065614  0.6541136640432369  1.0000
  O   O1        1.0  0.7499998956850646  0.7499996787875746  0.7499996177565081  1.0000
  O   O2        1.0  0.250000851852363  0.25000170929686055  0.25000001631331503  1.0000
  O   O3        1.0  0.4798919818215239  0.09996913120482995  0.09975077157219663  1.0000
  O   O4        1.0  0.32038640418235076  0.09975005771125475  0.0999718272414185  1.0000
  O   O5        1.0  0.09974879522508226  0.32038667731259807  0.4798912756888214  1.0000
  O   O6        1.0  0.09996926594869386  0.4798926160960875  0.3203869875772512  1.0000
  O   O7        1.0  0.09997253636657179  0.09974857191325981  0.4798917716582523  1.0000
  O   O8        1.0  0.09974971832456699  0.09997332903841279  0.3203853240158026  1.0000
  O   O9        1.0  0.3203865784337124  0.4798920625120147  0.09974810254521312  1.0000
  O   O10       1.0  0.479891296233042  0.3203868064376678  0.09997140213469885  1.0000
  O   O11       1.0  0.09974757669901634  0.47989253884777844  0.09997209492486551  1.0000
  O   O12       1.0  0.09997319148786941  0.32038631648657667  0.09974982429260854  1.0000
  O   O13       1.0  0.47989259365848375  0.09974813054412111  0.32038662945994645  1.0000
  O   O14       1.0  0.3203872490704569  0.09997008174932634  0.4798912723901907  1.0000
