data_image0
_chemical_formula_structural       Cd6H32C56N20O16
_chemical_formula_sum              "Cd6 H32 C56 N20 O16"
_cell_length_a       9.666677077190094
_cell_length_b       10.301857998002747
_cell_length_c       15.248571001710532
_cell_angle_alpha    90.00004161862012
_cell_angle_beta     92.75108821194524
_cell_angle_gamma    90.0000696763654

_space_group_name_H-M_alt    "P 1"
_space_group_IT_number       1

loop_
  _space_group_symop_operation_xyz
  'x, y, z'

loop_
  _atom_site_type_symbol
  _atom_site_label
  _atom_site_symmetry_multiplicity
  _atom_site_fract_x
  _atom_site_fract_y
  _atom_site_fract_z
  _atom_site_occupancy
  Cd  Cd1       1.0  0.8614675942525094  0.62335553971716  0.9561729682506908  1.0000
  Cd  Cd2       1.0  0.1385333961245721  0.12335578512271182  0.5438257509586677  1.0000
  Cd  Cd3       1.0  0.13853270151222571  0.3766447808076236  0.043826852506967405  1.0000
  Cd  Cd4       1.0  0.8614668996401634  0.8766445354020647  0.45617406979899033  1.0000
  Cd  Cd5       1.0  0.4999994505257348  0.49999994030162054  0.999999807366592  1.0000
  Cd  Cd6       1.0  0.4999992903376764  5.484443974999999e-07  0.5000000860317328  1.0000
  H   H1        1.0  0.2050706759244179  0.15150112436632673  0.3426823457922623  1.0000
  H   H2        1.0  0.7949275984085205  0.6514995156728746  0.15731710886021938  1.0000
  H   H3        1.0  0.7949306554986961  0.8485001668577399  0.6573175102970907  1.0000
  H   H4        1.0  0.20507166169783628  0.34849983415261937  0.8426826765657438  1.0000
  H   H5        1.0  0.10367286276135697  0.22435678077408736  0.1996713435559698  1.0000
  H   H6        1.0  0.8963255036623679  0.7243554387001794  0.3003288058927041  1.0000
  H   H7        1.0  0.8963263913141687  0.7756435397504334  0.8003290974747657  1.0000
  H   H8        1.0  0.10367375041315803  0.27564488182433416  0.6996716351380314  1.0000
  H   H9        1.0  0.7531204962125315  0.37079391250824767  0.3366832573495842  1.0000
  H   H10       1.0  0.2468780674342881  0.8707946017652051  0.16331697087328925  1.0000
  H   H11       1.0  0.2468797874892275  0.6292064080172183  0.6633178746170996  1.0000
  H   H12       1.0  0.753121192673376  0.12920668945765362  0.8366828145531926  1.0000
  H   H13       1.0  0.8667660552077762  0.2824080520800721  0.47458688570362983  1.0000
  H   H14       1.0  0.13323135977508116  0.7824094369701271  0.025412604037640597  1.0000
  H   H15       1.0  0.13323215717723258  0.717590327046814  0.5254141755996642  1.0000
  H   H16       1.0  0.8667679063634138  0.21759088355369738  0.9745865257840691  1.0000
  H   H17       1.0  0.5607269033890248  0.6411935326732775  0.26566875483349855  1.0000
  H   H18       1.0  0.43927135706258713  0.141193350115401  0.2343306942745542  1.0000
  H   H19       1.0  0.4392723506864941  0.35880678785124337  0.7343316861972369  1.0000
  H   H20       1.0  0.5607299743592122  0.8588059997112939  0.7656691618142801  1.0000
  H   H21       1.0  0.16469666532317723  0.4794060163984923  0.31891242621060206  1.0000
  H   H22       1.0  0.8353020385708945  0.9794064200489176  0.181088516042955  1.0000
  H   H23       1.0  0.8353036304409045  0.5205933334276055  0.6810873945468003  1.0000
  H   H24       1.0  0.16469929285090498  0.020592929777784305  0.8189113400458723  1.0000
  H   H25       1.0  0.20702747749525224  0.5256152653521015  0.4787589991693579  1.0000
  H   H26       1.0  0.7929747578634333  0.025615257056578904  0.021241840299921905  1.0000
  H   H27       1.0  0.7929728122373447  0.4743840844743375  0.5212414771925538  1.0000
  H   H28       1.0  0.20702760921675184  0.9743850634694053  0.9787580511206073  1.0000
  H   H29       1.0  0.42102474995965616  0.6473779150548752  0.5297220771264861  1.0000
  H   H30       1.0  0.5789762607078047  0.14737814114349132  0.9702779662143683  1.0000
  H   H31       1.0  0.5789755337414492  0.3526214347719048  0.470279054839942  1.0000
  H   H32       1.0  0.4210261063730272  0.8526231500811792  0.029721925206416696  1.0000
  C   C1        1.0  0.10374899878691929  0.19823826505621867  0.33857258389559763  1.0000
  C   C2        1.0  0.8962483028346713  0.6982377461423612  0.1614268605672891  1.0000
  C   C3        1.0  0.8962492135993897  0.8017620554680394  0.6614284774082152  1.0000
  C   C4        1.0  0.10375199896155607  0.3017625743820744  0.8385723045858595  1.0000
  C   C5        1.0  0.0465905506822679  0.24104600211182975  0.2584172598528696  1.0000
  C   C6        1.0  0.9534068085929377  0.7410456330034946  0.2415822076378333  1.0000
  C   C7        1.0  0.9534076737670177  0.7589543184117388  0.7415824902419174  1.0000
  C   C8        1.0  0.0465924515140728  0.2589546875206779  0.7584175777883856  1.0000
  C   C9        1.0  0.9181818605133715  0.3045243641680884  0.2563559404412814  1.0000
  C   C10       1.0  0.081815584253917  0.8045230104123464  0.2436435611963859  1.0000
  C   C11       1.0  0.0818163639359142  0.6954759563554804  0.7436438096535056  1.0000
  C   C12       1.0  0.9181836818852318  0.19547828081016413  0.7563555686255867  1.0000
  C   C13       1.0  0.8523718517106643  0.3209417957851954  0.3355467347999692  1.0000
  C   C14       1.0  0.1476256151682946  0.8209414031742881  0.16445277566946706  1.0000
  C   C15       1.0  0.147627414427177  0.6790575540399503  0.6644523950214776  1.0000
  C   C16       1.0  0.8523736449387156  0.17905891734988444  0.8355470097567517  1.0000
  C   C17       1.0  0.9160768114355092  0.27300197669288206  0.4123085979708776  1.0000
  C   C18       1.0  0.08392162050547819  0.7730033718650021  0.0876915776464813  1.0000
  C   C19       1.0  0.083923478296434  0.726996402434871  0.5876918783907712  1.0000
  C   C20       1.0  0.9160776335707015  0.2269979193581975  0.91230886338451  1.0000
  C   C21       1.0  0.8528594864280663  0.3562877622633139  0.17545451375296037  1.0000
  C   C22       1.0  0.14713906371207489  0.8562865683491196  0.3245450510615271  1.0000
  C   C23       1.0  0.1471397736795979  0.6437135289595448  0.8245452716735217  1.0000
  C   C24       1.0  0.8528602024264271  0.14371375217470472  0.6754540787601826  1.0000
  C   C25       1.0  0.5037726324374462  0.650240484012997  0.4010334172522221  1.0000
  C   C26       1.0  0.4962266698248001  0.15024022224383773  0.0989667276584285  1.0000
  C   C27       1.0  0.49622765729579754  0.3497598365121208  0.5989670591099524  1.0000
  C   C28       1.0  0.5037736199084505  0.8497600982812797  0.901033748703739  1.0000
  C   C29       1.0  0.48240360127908116  0.6181656281941913  0.3122756476592272  1.0000
  C   C30       1.0  0.5175966994733372  0.11816451414243552  0.18772385972393119  1.0000
  C   C31       1.0  0.5175966944863076  0.38183566302927124  0.6877241730986939  1.0000
  C   C32       1.0  0.48240566760618725  0.8818348356848703  0.8122760316963351  1.0000
  C   C33       1.0  0.25946487161633774  0.5273207405373483  0.3429438200155914  1.0000
  C   C34       1.0  0.7405342590655124  0.027319846345932305  0.1570569143765752  1.0000
  C   C35       1.0  0.7405354181169131  0.4726795799877764  0.6570566563465761  1.0000
  C   C36       1.0  0.2594681080146657  0.9726804741800523  0.842942977043954  1.0000
  C   C37       1.0  0.2823977780200266  0.5559098183538324  0.4318638048201677  1.0000
  C   C38       1.0  0.7176034564495097  0.05590880380528772  0.0681376712184232  1.0000
  C   C39       1.0  0.7176035534024335  0.44409050217155516  0.5681360512689295  1.0000
  C   C40       1.0  0.28239786894211255  0.9440924874191198  0.9318628404754463  1.0000
  C   C41       1.0  0.40263027454855665  0.6210136918422933  0.4608692887852683  1.0000
  C   C42       1.0  0.5973689883516897  0.12101445176835311  0.03913084040354419  1.0000
  C   C43       1.0  0.5973689855578002  0.3789856579831934  0.5391304966406948  1.0000
  C   C44       1.0  0.4026323370399325  0.8789868394560615  0.9608696712903253  1.0000
  C   C45       1.0  0.6338293905298826  0.7173352664800279  0.4308232861727959  1.0000
  C   C46       1.0  0.36617104981628756  0.21733482583399416  0.0691756189528476  1.0000
  C   C47       1.0  0.36617090523485263  0.2826650540447489  0.5691765345848623  1.0000
  C   C48       1.0  0.633829251979286  0.7826645239917553  0.9308235462000383  1.0000
  C   C49       1.0  0.3315476437842975  0.5300803945552134  0.18629220043087  1.0000
  C   C50       1.0  0.6684504489277217  0.030083467838991906  0.31370915571995533  1.0000
  C   C51       1.0  0.668452639916154  0.46991798457288786  0.8137089315352952  1.0000
  C   C52       1.0  0.3315508764619394  0.9699149112893724  0.6862913559731253  1.0000
  C   C53       1.0  0.3585586871411977  0.5597984010456757  0.2823638903477672  1.0000
  C   C54       1.0  0.6414394576566522  0.059799400363416993  0.21763617057983  1.0000
  C   C55       1.0  0.6414405729658128  0.4402019194784971  0.7176358950784589  1.0000
  C   C56       1.0  0.3585608441402215  0.9402018908596971  0.7823629945735745  1.0000
  N   N1        1.0  0.9186971950045333  0.38702396369367165  0.1020397412762932  1.0000
  N   N2        1.0  0.0813013965318206  0.8870237438691361  0.3979598400725379  1.0000
  N   N3        1.0  0.0813030947287103  0.6129763568314459  0.8979607350858814  1.0000
  N   N4        1.0  0.9186978696066818  0.11297657665469532  0.6020392897491718  1.0000
  N   N5        1.0  0.8213695660119811  0.43642855935359387  0.046544469846772095  1.0000
  N   N6        1.0  0.1786301337518807  0.9364285086372844  0.4534545178054826  1.0000
  N   N7        1.0  0.1786307297527543  0.5635717611711827  0.9534553509108861  1.0000
  N   N8        1.0  0.8213701620128546  0.0635718118874919  0.5465453029521754  1.0000
  N   N9        1.0  0.7011398293026972  0.43449002644776863  0.0850337777315247  1.0000
  N   N10       1.0  0.2988598678504033  0.9344900709997644  0.41496520887795196  1.0000
  N   N11       1.0  0.2988604604298927  0.5655093233786701  0.9149666986303872  1.0000
  N   N12       1.0  0.701139392257261  0.06551122022309391  0.5850345765485301  1.0000
  N   N13       1.0  0.7169238174940773  0.3857338245782032  0.1654591092485944  1.0000
  N   N14       1.0  0.28307581399337783  0.8857327951844739  0.3345398511329236  1.0000
  N   N15       1.0  0.2830754426135869  0.614267466644648  0.8345406761778875  1.0000
  N   N16       1.0  0.7169244938356414  0.11426946673698517  0.6654586584162272  1.0000
  N   N17       1.0  0.0396799760280899  0.21272109341770565  0.4144394462489345  1.0000
  N   N18       1.0  0.9603173450996396  0.7127215372060365  0.08556000600502502  1.0000
  N   N19       1.0  0.9603192840782667  0.7872782564077809  0.5855603391770288  1.0000
  N   N20       1.0  0.0396819210388557  0.28727878331778817  0.9144391238166776  1.0000
  O   O1        1.0  0.628702822091526  0.8074238982037516  0.4895559179704917  1.0000
  O   O2        1.0  0.3712977395860975  0.30742340101424054  0.010443035616958701  1.0000
  O   O3        1.0  0.371297473673863  0.19257739301971102  0.5104439027874292  1.0000
  O   O4        1.0  0.628701526551751  0.6925759488109052  0.989556094204488  1.0000
  O   O5        1.0  0.7470023806659185  0.686326343390178  0.3974715295463724  1.0000
  O   O6        1.0  0.2529969641651419  0.18632581001224216  0.1025292903805664  1.0000
  O   O7        1.0  0.252996867377469  0.31367300643599805  0.6025295670886166  1.0000
  O   O8        1.0  0.7470022959405611  0.8136725691145588  0.8974704950451339  1.0000
  O   O9        1.0  0.42170018690070066  0.5650808998688179  0.133225154430491  1.0000
  O   O10       1.0  0.5782979650149542  0.06508683950886511  0.366774909340073  1.0000
  O   O11       1.0  0.5783001088627274  0.43491747925859414  0.8667746663266414  1.0000
  O   O12       1.0  0.4217033664068524  0.934912510317837  0.6332249467487614  1.0000
  O   O13       1.0  0.21715063064775111  0.47225385767522005  0.1672193317603927  1.0000
  O   O14       1.0  0.7828470279567838  0.9722553336648616  0.3327815713146194  1.0000
  O   O15       1.0  0.7828517303989813  0.5277435507550623  0.8327812152638641  1.0000
  O   O16       1.0  0.21715223818040383  0.027743045461598104  0.6672175585065645  1.0000
