data_image0
_chemical_formula_structural       Cu12H60C84N24
_chemical_formula_sum              "Cu12 H60 C84 N24"
_cell_length_a       11.503087210036712
_cell_length_b       14.430938088600206
_cell_length_c       14.431020764291567
_cell_angle_alpha    120.00035798613011
_cell_angle_beta     90.0002021334843
_cell_angle_gamma    90.0000799437835

_space_group_name_H-M_alt    "P 1"
_space_group_IT_number       1

loop_
  _space_group_symop_operation_xyz
  'x, y, z'

loop_
  _atom_site_type_symbol
  _atom_site_label
  _atom_site_symmetry_multiplicity
  _atom_site_fract_x
  _atom_site_fract_y
  _atom_site_fract_z
  _atom_site_occupancy
  Cu  Cu1       1.0  0.7498143081182461  0.856463795151889  0.4256292321035888  1.0000
  Cu  Cu2       1.0  0.7498151320565967  0.42563380731474604  0.5691668753230418  1.0000
  Cu  Cu3       1.0  0.7498134306153756  0.5691628682023123  0.14353118417342622  1.0000
  Cu  Cu4       1.0  0.7498157725826359  0.14353607029450186  0.5743724310411694  1.0000
  Cu  Cu5       1.0  0.7498106019742751  0.5743648866035967  0.4308304156918012  1.0000
  Cu  Cu6       1.0  0.7498131727559851  0.43083630427948794  0.8564697860074872  1.0000
  Cu  Cu7       1.0  0.25018555200768583  0.1435367212175791  0.5743712096097441  1.0000
  Cu  Cu8       1.0  0.250183858736392  0.5743675092103614  0.43083276624040684  1.0000
  Cu  Cu9       1.0  0.25018556017768384  0.43083615504985306  0.8564693647298115  1.0000
  Cu  Cu10      1.0  0.2501849568724452  0.8564641531962494  0.42562691764404553  1.0000
  Cu  Cu11      1.0  0.25018838881767635  0.42563493680566467  0.5691693330635061  1.0000
  Cu  Cu12      1.0  0.2501866873683624  0.5691631190526962  0.14353036282372497  1.0000
  H   H1        1.0  0.9999981625164195  0.7811148985797374  0.32617381048462596  1.0000
  H   H2        1.0  4.1083102928e-06  0.3261727312065331  0.5450591903800088  1.0000
  H   H3        1.0  1.8248108447000001e-06  0.5450570541316324  0.21888462236489664  1.0000
  H   H4        1.0  1.6976116584000011e-06  0.21888631074845932  0.6738273241847851  1.0000
  H   H5        1.0  0.9999948824789512  0.6738267993225546  0.45493946534524105  1.0000
  H   H6        1.0  0.9999980353076268  0.45493989024580367  0.7811138476720245  1.0000
  H   H7        1.0  0.49999986465930135  0.8815772215932538  0.5196130227775485  1.0000
  H   H8        1.0  0.5000032989893056  0.5196180462893591  0.638037880392794  1.0000
  H   H9        1.0  0.5000004960595561  0.6380353385146407  0.1184199203167112  1.0000
  H   H10       1.0  0.5000008647936339  0.11842230893876143  0.48038563295158104  1.0000
  H   H11       1.0  0.49999656113607216  0.4803828701586639  0.3619621612465665  1.0000
  H   H12       1.0  0.49999936406209133  0.3619637919373629  0.8815791354844507  1.0000
  H   H13       1.0  0.780747537216186  0.9902442220296664  0.6706437552720178  1.0000
  H   H14       1.0  0.7807472866355097  0.6706444914088576  0.6803953952680075  1.0000
  H   H15       1.0  0.7807457910770094  0.6803977066770557  0.009754579940157392  1.0000
  H   H16       1.0  0.7807433280703717  0.009753561616683688  0.3293574600659994  1.0000
  H   H17       1.0  0.7807444479656523  0.3293500418420336  0.31959936908347697  1.0000
  H   H18       1.0  0.7807476822098353  0.3196033560855438  0.9902475140500259  1.0000
  H   H19       1.0  0.21925319224055775  0.009754801225426437  0.3293567936351068  1.0000
  H   H20       1.0  0.21925257348932084  0.3293568251177063  0.31960424629738793  1.0000
  H   H21       1.0  0.21925493838132576  0.3196024096153277  0.9902462618490802  1.0000
  H   H22       1.0  0.21925566272372518  0.9902469547513204  0.6706429816453863  1.0000
  H   H23       1.0  0.21925454282788334  0.6706508746045187  0.680400672553944  1.0000
  H   H24       1.0  0.21925217791665827  0.6803967602053689  0.009753327737271862  1.0000
  H   H25       1.0  0.7194592921081905  0.8176740357233713  0.19240371340615073  1.0000
  H   H26       1.0  0.7194617759422569  0.19240423506780496  0.3747318979755647  1.0000
  H   H27       1.0  0.7194614999118798  0.3747304410831518  0.18232669421384173  1.0000
  H   H28       1.0  0.7194601300348039  0.18232791346175486  0.8075984001102725  1.0000
  H   H29       1.0  0.719459384855284  0.807595342363868  0.6252670436464245  1.0000
  H   H30       1.0  0.7194596608905072  0.6252701221874373  0.8176740333942901  1.0000
  H   H31       1.0  0.2805405680134569  0.18232509472863245  0.8075953423950111  1.0000
  H   H32       1.0  0.2805389535176701  0.8075969742618554  0.6252692366957932  1.0000
  H   H33       1.0  0.2805392295447859  0.6252708754448831  0.8176729473534934  1.0000
  H   H34       1.0  0.2805397300943113  0.8176747889822805  0.1924026273672938  1.0000
  H   H35       1.0  0.28054134459923563  0.1924052812054383  0.3747319049648183  1.0000
  H   H36       1.0  0.28054106856941985  0.37473108714222997  0.18232710127706753  1.0000
  H   H37       1.0  0.8932143562038918  0.09591527015611219  0.8410968091529656  1.0000
  H   H38       1.0  0.8932121683656077  0.8410988050541519  0.7451803788998178  1.0000
  H   H39       1.0  0.8932098349344672  0.7451790842004228  0.9040843107105517  1.0000
  H   H40       1.0  0.8932109073673403  0.9040840928825417  0.15890370759574782  1.0000
  H   H41       1.0  0.8932122258689361  0.15889957214412925  0.2548183518608198  1.0000
  H   H42       1.0  0.8932136899757737  0.2548205717154843  0.0959172990643395  1.0000
  H   H43       1.0  0.10678724258414718  0.9040841531789995  0.15890333968212644  1.0000
  H   H44       1.0  0.1067885610937651  0.15890280435406362  0.2548203556975679  1.0000
  H   H45       1.0  0.10679002519417219  0.2548217250492256  0.09591722403283143  1.0000
  H   H46       1.0  0.10678895275589889  0.09591613060673848  0.8410956410875272  1.0000
  H   H47       1.0  0.1067876342570031  0.8411009442253385  0.7451820898525129  1.0000
  H   H48       1.0  0.1067861701469823  0.745177758579409  0.9040825568847595  1.0000
  H   H49       1.0  0.6067196079631143  0.7903508267432855  0.03148813793164629  1.0000
  H   H50       1.0  0.6067194311884591  0.031487739065532566  0.24113951132255101  1.0000
  H   H51       1.0  0.6067195392975435  0.24113834994143696  0.20965101752437937  1.0000
  H   H52       1.0  0.6067203448271029  0.20965154252349533  0.968512672588659  1.0000
  H   H53       1.0  0.6067196522683247  0.9685135371625009  0.758861006313694  1.0000
  H   H54       1.0  0.6067195441555099  0.7588611402905768  0.79034851427366  1.0000
  H   H55       1.0  0.3932811214941053  0.20965008970619425  0.9685119037096542  1.0000
  H   H56       1.0  0.3932812982693222  0.968512777305392  0.7588609303927144  1.0000
  H   H57       1.0  0.393282059489934  0.7588614734722229  0.7903487312367404  1.0000
  H   H58       1.0  0.3932812539614118  0.7903497740060033  0.03148696898060874  1.0000
  H   H59       1.0  0.39328107718890243  0.031487379286986056  0.2411390353276062  1.0000
  H   H60       1.0  0.39328118530067974  0.24113828304307108  0.20965163455948505  1.0000
  C   C1        1.0  0.9999975293697716  0.8306803683040298  0.4126564573498329  1.0000
  C   C2        1.0  7.874950327000005e-07  0.4126585358172789  0.5819769109806501  1.0000
  C   C3        1.0  8.757990031000003e-07  0.5819734169504257  0.1693181245017784  1.0000
  C   C4        1.0  2.3307556134000003e-06  0.16932054814398603  0.5873435842895277  1.0000
  C   C5        1.0  0.9999982032936643  0.5873413947903572  0.41802134467063473  1.0000
  C   C6        1.0  0.9999972456541925  0.418022434386792  0.83068005264915  1.0000
  C   C7        1.0  0.49999966603959917  0.8646284007411467  0.4374831667054125  1.0000
  C   C8        1.0  0.5000030828164981  0.4374877985119878  0.5728591450990024  1.0000
  C   C9        1.0  0.5000004785020875  0.5728548189448617  0.1353687478430957  1.0000
  C   C10       1.0  0.5000001940836398  0.1353718227481409  0.5625161819778626  1.0000
  C   C11       1.0  0.49999677730888686  0.562513117936028  0.427140896540358  1.0000
  C   C12       1.0  0.4999993816259973  0.4271463903833421  0.8646323868263154  1.0000
  C   C13       1.0  0.9384336383122687  0.9283071290095745  0.5768297693265154  1.0000
  C   C14       1.0  0.9384343687883856  0.5768328352285151  0.6485214711255409  1.0000
  C   C15       1.0  0.9384322670557451  0.64851855860541  0.07169014270949979  1.0000
  C   C16       1.0  0.9384308248366365  0.07169180071594632  0.4231687630531198  1.0000
  C   C17       1.0  0.9384309636955307  0.4231682805730372  0.3514776470202747  1.0000
  C   C18       1.0  0.9384330654272263  0.35147877080736106  0.9283099899679571  1.0000
  C   C19       1.0  0.06156622181207891  0.07169229432260239  0.4231703795046969  1.0000
  C   C20       1.0  0.061565491336992295  0.42316808121950084  0.3514785705138196  1.0000
  C   C21       1.0  0.061567593064871994  0.3514790787307544  0.9283090202835139  1.0000
  C   C22       1.0  0.06156903528930259  0.9283087156535217  0.5768316786602059  1.0000
  C   C23       1.0  0.06156802709585919  0.5768319429147793  0.6485217016610606  1.0000
  C   C24       1.0  0.061566794695536886  0.6485195594875321  0.071689865981142  1.0000
  C   C25       1.0  0.8755099245678366  0.9887266657411685  0.6714506950103925  1.0000
  C   C26       1.0  0.8755105487018112  0.6714500028707845  0.6827196418347655  1.0000
  C   C27       1.0  0.8755099219604786  0.6827205340849148  0.011272498176744302  1.0000
  C   C28       1.0  0.8755091917205035  0.011272530417379209  0.3285512358820881  1.0000
  C   C29       1.0  0.8755076982368948  0.3285463429679325  0.31727543799333097  1.0000
  C   C30       1.0  0.8755109329888524  0.31727836919638  0.9887283396895583  1.0000
  C   C31       1.0  0.124489935556511  0.011272757591015556  0.3285494538208198  1.0000
  C   C32       1.0  0.1244893114230123  0.3285513136557866  0.31727999973062276  1.0000
  C   C33       1.0  0.12449080749627228  0.317278489170178  0.988728050730373  1.0000
  C   C34       1.0  0.12449066840273558  0.9887276930719011  0.6714481128011871  1.0000
  C   C35       1.0  0.1244912925545023  0.6714538805198912  0.6827239106880043  1.0000
  C   C36       1.0  0.12448805780206837  0.6827199610970496  0.01127151625759389  1.0000
  C   C37       1.0  0.5617001218480553  0.8360726322159735  0.28257249709979965  1.0000
  C   C38       1.0  0.5617034949410211  0.28257381723971514  0.44650317806205925  1.0000
  C   C39       1.0  0.561701262359243  0.4464997749177614  0.16392745286693614  1.0000
  C   C40       1.0  0.5617013933396464  0.16392878512201736  0.7174289127711546  1.0000
  C   C41       1.0  0.561698889574238  0.7174262141822821  0.5534968458986641  1.0000
  C   C42       1.0  0.5617002528241742  0.5535002565027722  0.8360725710918473  1.0000
  C   C43       1.0  0.43829973827732954  0.16392828423204248  0.7174275445395608  1.0000
  C   C44       1.0  0.4382972345194601  0.717426992011397  0.5534983566832637  1.0000
  C   C45       1.0  0.4382985977666962  0.5535007414517068  0.8360729888463895  1.0000
  C   C46       1.0  0.43829933611757355  0.8360721313274623  0.2825711288701456  1.0000
  C   C47       1.0  0.4383027092159395  0.28257390211156513  0.4465039958925132  1.0000
  C   C48       1.0  0.43830047663360727  0.4465002598681592  0.16392787062341807  1.0000
  C   C49       1.0  0.6246630026221426  0.8190248203072343  0.19246619811636395  1.0000
  C   C50       1.0  0.6246637436663106  0.19246643227097585  0.37344418859983364  1.0000
  C   C51       1.0  0.6246625970113158  0.3734420939878618  0.18097588864408465  1.0000
  C   C52       1.0  0.6246629686303108  0.18097611633433514  0.8075347996262252  1.0000
  C   C53       1.0  0.6246630969136928  0.8075331184546  0.6265554232325172  1.0000
  C   C54       1.0  0.6246633742411375  0.6265588426537148  0.8190251090985043  1.0000
  C   C55       1.0  0.37533685750379675  0.18097569606222644  0.8075342435969688  1.0000
  C   C56       1.0  0.3753369857920248  0.8075336840214079  0.626556653189404  1.0000
  C   C57       1.0  0.3753372631140691  0.6265588224601543  0.8190241529952759  1.0000
  C   C58       1.0  0.375338630160904  0.819025493075344  0.19246593497310022  1.0000
  C   C59       1.0  0.37533850187323037  0.19246710503761474  0.37344392545463023  1.0000
  C   C60       1.0  0.37533735521719785  0.37344127363866864  0.1809757326907331  1.0000
  C   C61       1.0  0.9386271717903866  0.047629195455037486  0.7655642020405224  1.0000
  C   C62       1.0  0.9386250690029598  0.7655663218010956  0.7179333205032493  1.0000
  C   C63       1.0  0.9386238154415449  0.7179320592408301  0.9523692677491554  1.0000
  C   C64       1.0  0.9386241440322891  0.9523692276456472  0.23443622437983447  1.0000
  C   C65       1.0  0.9386262468159002  0.23443260857651887  0.282065212739127  1.0000
  C   C66       1.0  0.9386266310514344  0.28206705681712657  0.047631851625354195  1.0000
  C   C67       1.0  0.06137355766580299  0.9523702278786105  0.23443594679262963  1.0000
  C   C68       1.0  0.061374791125118094  0.23443488752710104  0.28206781416616883  1.0000
  C   C69       1.0  0.06137604468494828  0.28206805705008264  0.04763157403814232  1.0000
  C   C70       1.0  0.0613765854239006  0.047630195687993336  0.7655639244533106  1.0000
  C   C71       1.0  0.061373613311623394  0.7655690008302328  0.7179355218563189  1.0000
  C   C72       1.0  0.0613732290734674  0.7179319664365024  0.9523686972798233  1.0000
  C   C73       1.0  0.5614058585192153  0.8037737047740449  0.10346758991424565  1.0000
  C   C74       1.0  0.5614065708940429  0.10346777754816826  0.2996959171436657  1.0000
  C   C75       1.0  0.5614065061462767  0.2996940480932436  0.19622648439485602  1.0000
  C   C76       1.0  0.5614062496764943  0.19622741869024177  0.8965327256122038  1.0000
  C   C77       1.0  0.5614046679682332  0.8965322528773711  0.7003041054987238  1.0000
  C   C78       1.0  0.5614056020478414  0.7003059823337664  0.8037735382494732  1.0000
  C   C79       1.0  0.43859574026826204  0.19622611863961464  0.8965321588468739  1.0000
  C   C80       1.0  0.4385941585642925  0.8965323387442153  0.7003049246455717  1.0000
  C   C81       1.0  0.4385950926412008  0.700305775320423  0.8037732643662637  1.0000
  C   C82       1.0  0.43859447978287847  0.8037741907179736  0.10346800898518191  1.0000
  C   C83       1.0  0.43859606148954805  0.10346826349355344  0.2996963362165417  1.0000
  C   C84       1.0  0.4385951274099398  0.2996945340371653  0.1962269034657923  1.0000
  N   N1        1.0  0.5983600834787808  0.853864725447707  0.38186632207588633  1.0000
  N   N2        1.0  0.5983634861523511  0.38186937137529486  0.528004615113467  1.0000
  N   N3        1.0  0.5983610157371685  0.5280008186616739  0.14613346790385862  1.0000
  N   N4        1.0  0.5983608793126222  0.14613652259972534  0.6181341582768027  1.0000
  N   N5        1.0  0.5983583459666021  0.6181304907561369  0.4719944793289913  1.0000
  N   N6        1.0  0.5983599470553428  0.47199962922865507  0.8538678125967679  1.0000
  N   N7        1.0  0.40163977664445843  0.14613549804157322  0.6181330266073886  1.0000
  N   N8        1.0  0.4016372433070217  0.6181322380329135  0.47199611948391873  1.0000
  N   N9        1.0  0.40163884438877057  0.4719996977077939  0.853866973809474  1.0000
  N   N10       1.0  0.4016389808122084  0.8538647939268459  0.3818654832885928  1.0000
  N   N11       1.0  0.401642383488479  0.3818697327346142  0.5280048693562165  1.0000
  N   N12       1.0  0.4016399130711505  0.5280004870622577  0.14613302919052978  1.0000
  N   N13       1.0  0.9016014968394471  0.8653453699091003  0.47145702748905194  1.0000
  N   N14       1.0  0.9016032016768135  0.4714573375546748  0.606109437316718  1.0000
  N   N15       1.0  0.9016031285769232  0.6061061438674854  0.13465215451443419  1.0000
  N   N16       1.0  0.9016027406309916  0.13465500725164495  0.5285453126650665  1.0000
  N   N17       1.0  0.9016001664477286  0.5285419752822592  0.3938870376112292  1.0000
  N   N18       1.0  0.9016002395520673  0.39388996834102846  0.865347521005255  1.0000
  N   N19       1.0  0.09839836328704617  0.13465474638181257  0.5285438142982458  1.0000
  N   N20       1.0  0.0983949197821801  0.5285432860102331  0.3938895112887125  1.0000
  N   N21       1.0  0.0983958622097063  0.39389080050847974  0.8653463155205544  1.0000
  N   N22       1.0  0.09839711949438622  0.865345909196371  0.471454728974294  1.0000
  N   N23       1.0  0.0983988243409613  0.47145795532537693  0.6061112180400556  1.0000
  N   N24       1.0  0.0983987512351163  0.6061065759563817  0.1346513491036987  1.0000
