data_image0
_chemical_formula_structural       AlC27N19O30
_chemical_formula_sum              "Al1 C27 N19 O30"
_cell_length_a       4.4763393216247
_cell_length_b       18.193152096492962
_cell_length_c       18.199892646734394
_cell_angle_alpha    119.83970187128487
_cell_angle_beta     93.7931677743421
_cell_angle_gamma    88.93560289501369

_space_group_name_H-M_alt    "P 1"
_space_group_IT_number       1

loop_
  _space_group_symop_operation_xyz
  'x, y, z'

loop_
  _atom_site_type_symbol
  _atom_site_label
  _atom_site_symmetry_multiplicity
  _atom_site_fract_x
  _atom_site_fract_y
  _atom_site_fract_z
  _atom_site_occupancy
  Al  Al1       1.0  0.014476768974915897  6.1892509755498e-05  0.4992417938846216  1.0000
  C   C1        1.0  0.4928431082712024  0.0639725378461975  0.4346447297284115  1.0000
  C   C2        1.0  0.5450935405505105  0.06506189772360221  0.6275005904634554  1.0000
  C   C3        1.0  0.5052919495829115  0.8709568900912857  0.4354470084423241  1.0000
  C   C4        1.0  0.3328679815179997  0.23506136033796576  0.372206774209225  1.0000
  C   C5        1.0  0.45996268293979625  0.20238321571027745  0.2934025348512037  1.0000
  C   C6        1.0  0.4248945039433423  0.1259712263749933  0.8578927862806722  1.0000
  C   C7        1.0  0.5678911466451594  0.20586385118701142  0.9062783388565592  1.0000
  C   C8        1.0  0.5028540399773931  0.5931603733666152  0.2955397319089528  1.0000
  C   C9        1.0  0.497921422842431  0.6404579509606451  0.2537069021269147  1.0000
  C   C10       1.0  0.7013916614734725  0.238696412613379  0.8605953498658536  1.0000
  C   C11       1.0  0.7041966385330767  0.1925330137393645  0.7721558834434319  1.0000
  C   C12       1.0  0.5568527630168277  0.11413182488963972  0.7244716166908418  1.0000
  C   C13       1.0  0.41300127990011504  0.08281469738511053  0.7693667570344475  1.0000
  C   C14       1.0  0.5378895477001889  0.7282938456672314  0.29941558258948225  1.0000
  C   C15       1.0  0.5026576958998702  0.7743734496140535  0.3869587983110777  1.0000
  C   C16       1.0  0.4675690874164005  0.7268247799375801  0.4273499008386707  1.0000
  C   C17       1.0  0.507870965828836  0.6393372018231747  0.3845655347992506  1.0000
  C   C18       1.0  0.5994567860734535  0.12332889542179264  0.2625646709114662  1.0000
  C   C19       1.0  0.6154938961546462  0.08106329084361621  0.309025844564438  1.0000
  C   C20       1.0  0.47978575398763457  0.11239012638213812  0.3857937207676159  1.0000
  C   C21       1.0  0.3352092551343872  0.18983312370990296  0.4157443500070812  1.0000
  C   C22       1.0  0.44113241052914276  0.3766186107991345  0.24997171112738667  1.0000
  C   C23       1.0  0.5147947831453337  0.24430408837751835  0.11996096621450651  1.0000
  C   C24       1.0  0.45203664525180176  0.24913464084249176  0.24539648320348556  1.0000
  C   C25       1.0  0.5050142287241144  0.49932815929443564  0.2481753691530528  1.0000
  C   C26       1.0  0.57938608311553  0.37875088980568006  0.12388519884000007  1.0000
  C   C27       1.0  0.5761663224748971  0.2521952008342296  0.0008197713389748158  1.0000
  N   N1        1.0  0.5119567754116047  0.33322633958515985  0.16460481183581518  1.0000
  N   N2        1.0  0.4832231263229261  0.20269355279663878  0.16194951111592812  1.0000
  N   N3        1.0  0.4160724380909713  0.33296157200234705  0.29016706619306387  1.0000
  N   N4        1.0  0.40602582318391  0.46024138480453314  0.28807490816533493  1.0000
  N   N5        1.0  0.6065564011498806  0.46285208724611954  0.17021397485369502  1.0000
  N   N6        1.0  0.5482723397379345  0.20433669822475758  0.03685208709039499  1.0000
  N   N7        1.0  0.6086287394704611  0.33652369139620936  0.040498856801470105  1.0000
  N   N8        1.0  0.7787221023971396  0.0006445949541315994  0.2776879698672232  1.0000
  N   N9        1.0  0.7294291165623007  0.08060871783398232  0.17779173068264242  1.0000
  N   N10       1.0  0.1835127670143564  0.22409262944548666  0.4960792498221736  1.0000
  N   N11       1.0  0.1968429424156142  0.32078619859775875  0.41313310315147334  1.0000
  N   N12       1.0  0.5870903184812163  0.5975268967650182  0.43577445908739787  1.0000
  N   N13       1.0  0.3769151632125157  0.7682067335565892  0.5165084084548967  1.0000
  N   N14       1.0  0.4244402738492781  0.5992378420249126  0.16036630399379703  1.0000
  N   N15       1.0  0.6307890847379624  0.7712843499744579  0.25283702966763855  1.0000
  N   N16       1.0  0.2853441430714128  0.08348804378090341  0.8996922765803036  1.0000
  N   N17       1.0  0.24581561086821319  0.0013786319234511987  0.7201439514986703  1.0000
  N   N18       1.0  0.839931676042944  0.32536010985386116  0.9056857010319916  1.0000
  N   N19       1.0  0.8663018785021634  0.22642398348221351  0.7266774735590288  1.0000
  O   O1        1.0  0.2749008312518981  0.9053952762025547  0.4750909017247907  1.0000
  O   O2        1.0  0.25483482831678117  0.0242528068287413  0.4286297767438327  1.0000
  O   O3        1.0  0.29884607983767336  0.06985717966571063  0.5920519299554953  1.0000
  O   O4        1.0  0.737837062665818  0.9063798528568158  0.4305968441696065  1.0000
  O   O5        1.0  0.7804452944638031  0.0258722504083693  0.5949866367902176  1.0000
  O   O6        1.0  0.7408186653931209  0.06973171102853121  0.4748300877353416  1.0000
  O   O7        1.0  0.6805623251725733  0.949360608822467  0.2958555051085483  1.0000
  O   O8        1.0  0.003474897176367599  0.9924240040137422  0.23854804615173458  1.0000
  O   O9        1.0  0.9641212796425976  0.11124468545938272  0.1722578261591039  1.0000
  O   O10       1.0  0.5898124149592546  0.018380477801947796  0.12233667863743848  1.0000
  O   O11       1.0  0.29902985411056443  0.2087882181425158  0.5501486142763667  1.0000
  O   O12       1.0  0.9501672072246661  0.2633311765623887  0.5012603781175429  1.0000
  O   O13       1.0  0.9539317254184564  0.3274303786176065  0.38131071744247447  1.0000
  O   O14       1.0  0.3414887499697983  0.37595001640181647  0.4750400825260499  1.0000
  O   O15       1.0  0.8291712525706814  0.5609785061640765  0.42038874770497614  1.0000
  O   O16       1.0  0.41744122088231705  0.6058985435917279  0.48953073507876615  1.0000
  O   O17       1.0  0.1057815370729216  0.7814571685164965  0.5209921480814046  1.0000
  O   O18       1.0  0.5637487793454098  0.7837173721084271  0.5747089165143109  1.0000
  O   O19       1.0  0.1825939357167741  0.5603849959675319  0.13635523519244708  1.0000
  O   O20       1.0  0.5992448222175354  0.6102807979749373  0.11747828021496781  1.0000
  O   O21       1.0  0.9023887911125354  0.7862892617107419  0.26262916156989047  1.0000
  O   O22       1.0  0.44461516823479025  0.7859703776626433  0.2096911355949871  1.0000
  O   O23       1.0  0.0529910931404842  0.11461211487173982  0.9348798958435866  1.0000
  O   O24       1.0  0.41458153587863217  0.021152791086905202  0.8938273323536237  1.0000
  O   O25       1.0  0.34705594068628187  0.9493729754776085  0.652499370885785  1.0000
  O   O26       1.0  0.01558691380521542  0.9930976670815285  0.7493187250416754  1.0000
  O   O27       1.0  0.0792090030623456  0.3340968601655873  0.9467621031403652  1.0000
  O   O28       1.0  0.6999189275909075  0.3791441901020961  0.8967504516456729  1.0000
  O   O29       1.0  0.7590268091391009  0.20899342521822464  0.6557710199018913  1.0000
  O   O30       1.0  0.09965221855355819  0.26739840840298973  0.7627463552751266  1.0000
