data_image0
_chemical_formula_structural       Mn8H106C130N6O38
_chemical_formula_sum              "Mn8 H106 C130 N6 O38"
_cell_length_a       13.593913231600355
_cell_length_b       15.426257852185863
_cell_length_c       24.107874144578
_cell_angle_alpha    100.17212816538039
_cell_angle_beta     93.54370113820742
_cell_angle_gamma    102.05686947813638

_space_group_name_H-M_alt    "P 1"
_space_group_IT_number       1

loop_
  _space_group_symop_operation_xyz
  'x, y, z'

loop_
  _atom_site_type_symbol
  _atom_site_label
  _atom_site_symmetry_multiplicity
  _atom_site_fract_x
  _atom_site_fract_y
  _atom_site_fract_z
  _atom_site_occupancy
  Mn  Mn1       1.0  0.8249904476752974  0.3548792853959172  0.6745187512624254  1.0000
  Mn  Mn2       1.0  0.1750030078515223  0.645121230836608  0.32548034912833396  1.0000
  Mn  Mn3       1.0  0.6323183724939767  0.4441144133591024  0.726467643151494  1.0000
  Mn  Mn4       1.0  0.3676822299113384  0.5558854594023405  0.2735341831305718  1.0000
  Mn  Mn5       1.0  0.3916645399343963  0.34287027019935584  0.6706544941757927  1.0000
  Mn  Mn6       1.0  0.6083362143734021  0.6571302753953105  0.3293478299026232  1.0000
  Mn  Mn7       1.0  0.1821637676861343  0.2962706490343122  0.7348429491165476  1.0000
  Mn  Mn8       1.0  0.8178331817444475  0.7037258541298999  0.2651541878773287  1.0000
  H   H1        1.0  0.6927866415210673  0.6415386045967679  0.6872540614806013  1.0000
  H   H2        1.0  0.30721192166194566  0.35846464985883136  0.3127447413629199  1.0000
  H   H3        1.0  0.7225185984141619  0.8067205198626936  0.6883787928632472  1.0000
  H   H4        1.0  0.2774819086507776  0.19328476585275206  0.31162115447270367  1.0000
  H   H5        1.0  0.03256484436408869  0.8117211625909704  0.6579044215846394  1.0000
  H   H6        1.0  0.9674423801964238  0.18827539545571884  0.3420952413036033  1.0000
  H   H7        1.0  0.0018628590389652918  0.6465052998913307  0.6578057701018523  1.0000
  H   H8        1.0  0.9981362101643184  0.353491195149175  0.3421947766823479  1.0000
  H   H9        1.0  0.7490239331996378  0.9140427328533677  0.6342652522945542  1.0000
  H   H10       1.0  0.2509812998087567  0.08595450041047309  0.36573232662820476  1.0000
  H   H11       1.0  0.7787761175621312  0.07953496979475011  0.6395335041335741  1.0000
  H   H12       1.0  0.22121848711774564  0.9204614869652586  0.36046808934057123  1.0000
  H   H13       1.0  0.0771434069360311  0.11385056712043001  0.7223083121625321  1.0000
  H   H14       1.0  0.9228461229678614  0.8861492314639464  0.2776930257375696  1.0000
  H   H15       1.0  0.04772515449847965  0.9494263019191109  0.7176984525367444  1.0000
  H   H16       1.0  0.952278611681109  0.050574277805559106  0.2823019317056604  1.0000
  H   H17       1.0  0.7662220864788479  0.5233895822478516  0.8960625701226234  1.0000
  H   H18       1.0  0.23378485267332394  0.47661777874771627  0.10393664698732859  1.0000
  H   H19       1.0  0.8504477957510733  0.5546146843380627  0.993416014825435  1.0000
  H   H20       1.0  0.14955865217080344  0.445390649548152  0.00658295093816719  1.0000
  H   H21       1.0  0.08338389702983313  0.42199219637671354  0.9306824132127216  1.0000
  H   H22       1.0  0.9166105699247356  0.5780002369387418  0.06931498399934097  1.0000
  H   H23       1.0  0.993179489186005  0.38553534154805663  0.8352520295623975  1.0000
  H   H24       1.0  0.006815832008570063  0.6144604788926528  0.16474454451752504  1.0000
  H   H25       1.0  0.43638484423785684  0.241816940387011  0.5577403250753363  1.0000
  H   H26       1.0  0.5636047925409573  0.7581801660698204  0.44225988222661516  1.0000
  H   H27       1.0  0.3903106725497949  0.09836530273181411  0.4899677686169355  1.0000
  H   H28       1.0  0.6096872475004319  0.901635251781201  0.5100302850838857  1.0000
  H   H29       1.0  0.6486996395954634  0.0165902399335778  0.560877841162096  1.0000
  H   H30       1.0  0.3512977649297753  0.9834137176434299  0.4391155981608036  1.0000
  H   H31       1.0  0.6921876736743399  0.16136193856676334  0.6292427653473921  1.0000
  H   H32       1.0  0.30780646284434  0.8386379327367948  0.3707525576918726  1.0000
  H   H33       1.0  0.310168744042997  0.4377868087298751  0.8557575170413471  1.0000
  H   H34       1.0  0.6898465029816806  0.562215852191983  0.1442465050290522  1.0000
  H   H35       1.0  0.3376947612033732  0.5006978475110841  0.9584018373517579  1.0000
  H   H36       1.0  0.6623198903587098  0.49929940699119874  0.0416023750489956  1.0000
  H   H37       1.0  0.6398004399433788  0.4515809424586977  0.9616451708817237  1.0000
  H   H38       1.0  0.360208287275178  0.5484095597802678  0.03835304017417938  1.0000
  H   H39       1.0  0.6111439543285826  0.392591239569505  0.858995294835367  1.0000
  H   H40       1.0  0.38886616338783137  0.6074080418648434  0.14100397282925303  1.0000
  H   H41       1.0  0.2904857297080384  0.5784297408658149  0.6850300394620772  1.0000
  H   H42       1.0  0.7095165769578389  0.42156140691948  0.3149658922755592  1.0000
  H   H43       1.0  0.24165475974619002  0.7246761316959649  0.679981772070114  1.0000
  H   H44       1.0  0.7583398137769065  0.2753163274485004  0.3200118990137781  1.0000
  H   H45       1.0  0.55158366557869  0.866347225110694  0.7298665544911245  1.0000
  H   H46       1.0  0.4484160204328518  0.13365803557037734  0.27013625838571187  1.0000
  H   H47       1.0  0.5974018832954542  0.7203623095696445  0.7388740697584879  1.0000
  H   H48       1.0  0.4025920634616611  0.2796402337722271  0.26112528197861445  1.0000
  H   H49       1.0  0.2358998126188752  0.8716817092046582  0.7437185035658158  1.0000
  H   H50       1.0  0.7641078439671957  0.1283168616019239  0.2562834807399809  1.0000
  H   H51       1.0  0.20167657068542874  0.023648632315456605  0.7391515376703593  1.0000
  H   H52       1.0  0.7983271247548702  0.9763492122333092  0.2608539261875151  1.0000
  H   H53       1.0  0.458090784741266  0.08309265340850659  0.6463646176132514  1.0000
  H   H54       1.0  0.5419067604583035  0.9169065382187185  0.353634924580298  1.0000
  H   H55       1.0  0.4953135119163506  0.9331762229832705  0.6515195751216182  1.0000
  H   H56       1.0  0.5046862714654026  0.0668229892191476  0.3484792367198323  1.0000
  H   H57       1.0  0.24906877206606032  0.3963372369901209  0.507509703513719  1.0000
  H   H58       1.0  0.7509275414002232  0.603663276063834  0.4924928392261591  1.0000
  H   H59       1.0  0.1416709992533995  0.46918973782791085  0.4533397708597278  1.0000
  H   H60       1.0  0.8583296265274145  0.5308128586298793  0.5466586318638277  1.0000
  H   H61       1.0  0.9437216158073766  0.47299887405379337  0.5872581425563439  1.0000
  H   H62       1.0  0.05627845984479763  0.5269989629886354  0.4127446744220933  1.0000
  H   H63       1.0  0.05162941190592111  0.4002086942231955  0.6397424869835219  1.0000
  H   H64       1.0  0.9483731722403945  0.5997898649265494  0.360255957296772  1.0000
  H   H65       1.0  0.8602735299168458  0.24035934590919084  0.5533954524888358  1.0000
  H   H66       1.0  0.13972094420621067  0.7596397972385918  0.446608099611943  1.0000
  H   H67       1.0  0.6656443141608294  0.350314154143213  0.5130206783991582  1.0000
  H   H68       1.0  0.3343599879702168  0.6496945356081412  0.48697899005406947  1.0000
  H   H69       1.0  0.6152036489788203  0.257683991683777  0.4553002562262946  1.0000
  H   H70       1.0  0.38479910810924184  0.7423213174767512  0.5446985467433123  1.0000
  H   H71       1.0  0.7113652053276667  0.3503286785788687  0.44485252835033146  1.0000
  H   H72       1.0  0.28864289217588623  0.6496806972518384  0.5551494567502145  1.0000
  H   H73       1.0  0.8157278563271788  0.22400161891674494  0.4140631168550469  1.0000
  H   H74       1.0  0.18427460381800392  0.7760117723662036  0.5859382498805346  1.0000
  H   H75       1.0  0.71940536581657  0.1393043557945717  0.4325831822237944  1.0000
  H   H76       1.0  0.2805973675895999  0.8607009476261709  0.5674164487743026  1.0000
  H   H77       1.0  0.8445784226925211  0.16477918038884812  0.4680307644073451  1.0000
  H   H78       1.0  0.15542621876633692  0.8352308636386283  0.5319686575958826  1.0000
  H   H79       1.0  0.054895689229965725  0.4536178818682544  0.7392661949267348  1.0000
  H   H80       1.0  0.9451034131599272  0.5463819752631309  0.2607363942662174  1.0000
  H   H81       1.0  0.18490388529042434  0.6157494755563847  0.883635698363392  1.0000
  H   H82       1.0  0.8150993896588619  0.3842490770589393  0.11636443453265599  1.0000
  H   H83       1.0  0.24909468612703736  0.6751892782321322  0.834101259169067  1.0000
  H   H84       1.0  0.7509068205247047  0.3248079216963475  0.16589739900243214  1.0000
  H   H85       1.0  0.26980952087897947  0.5665827617796563  0.8407442354168422  1.0000
  H   H86       1.0  0.7301895480179041  0.4334164512174041  0.15925371583733036  1.0000
  H   H87       1.0  0.004040716141368348  0.5777751097852574  0.749042606569887  1.0000
  H   H88       1.0  0.9959583980894706  0.42222475021602435  0.25095956860882035  1.0000
  H   H89       1.0  0.09800399354587341  0.6803823304335381  0.7723488615113752  1.0000
  H   H90       1.0  0.9019939504926454  0.3196155118627003  0.22765095969097618  1.0000
  H   H91       1.0  0.018461014387909813  0.6349569270860869  0.821539670828372  1.0000
  H   H92       1.0  0.9815373379942754  0.3650429222302733  0.17846329982002365  1.0000
  H   H93       1.0  0.2803559618288674  0.27019167483734924  0.8612174974836647  1.0000
  H   H94       1.0  0.7196423310421808  0.7298108780861199  0.13878494770591487  1.0000
  H   H95       1.0  0.031925785643778695  0.14406352652203214  0.9219370899303243  1.0000
  H   H96       1.0  0.9680761388563397  0.8559390367776774  0.07806758812445477  1.0000
  H   H97       1.0  0.013138778315678208  0.2067387040694157  0.8676724340404292  1.0000
  H   H98       1.0  0.9868567045924904  0.7932584275990635  0.1323301038031061  1.0000
  H   H99       1.0  0.026016537523261718  0.2602747243439866  0.9407936327907507  1.0000
  H   H100      1.0  0.973980841596649  0.7397271450613373  0.05920911007216025  1.0000
  H   H101      1.0  0.20754022929045143  0.2942571371198995  0.993027977828518  1.0000
  H   H102      1.0  0.7924612605414795  0.7057494848576837  0.0069750677301456815  1.0000
  H   H103      1.0  0.30503238219516504  0.27000809587598706  0.9505383732303797  1.0000
  H   H104      1.0  0.6949647523245162  0.7299924422123356  0.049461303968605784  1.0000
  H   H105      1.0  0.2185989521118827  0.18018993336288955  0.9718294126964578  1.0000
  H   H106      1.0  0.7814017900485766  0.8198133273184496  0.028170729866175668  1.0000
  C   C1        1.0  0.22631889873191824  0.24562175679366754  0.9583322925156637  1.0000
  C   C2        1.0  0.7736828261955324  0.7543828401498163  0.041670948269697305  1.0000
  C   C3        1.0  0.845701173026619  0.6342806806128254  0.6732300760935458  1.0000
  C   C4        1.0  0.15429262447064224  0.36571511845804855  0.3267680889257463  1.0000
  C   C5        1.0  0.7667640981550009  0.6797413227765005  0.6807535621940273  1.0000
  C   C6        1.0  0.23323248562324048  0.3202598918095846  0.3192453381997921  1.0000
  C   C7        1.0  0.7838446424968525  0.7717445920386439  0.6810947066345888  1.0000
  C   C8        1.0  0.21615653402539434  0.22825732792138348  0.31890447289413254  1.0000
  C   C9        1.0  0.8798299984565929  0.8213121722089198  0.6737178574512867  1.0000
  C   C10       1.0  0.1201722345209646  0.1786850297948064  0.3262812472932524  1.0000
  C   C11       1.0  0.9583106183339467  0.7749330421454915  0.6653667567229036  1.0000
  C   C12       1.0  0.04169177838704032  0.22506483556135493  0.33463243180374747  1.0000
  C   C13       1.0  0.9415385625117453  0.68266650091698  0.6651418592366979  1.0000
  C   C14       1.0  0.05845876207589381  0.3173286471764669  0.3348563847944703  1.0000
  C   C15       1.0  0.8967396493272304  0.9193864433433846  0.6755404176399222  1.0000
  C   C16       1.0  0.1032598184086098  0.08061142032268981  0.3244578126230593  1.0000
  C   C17       1.0  0.8208997867090627  0.957832754059602  0.6540630786014816  1.0000
  C   C18       1.0  0.17909949360144845  0.0421644281635807  0.3459358959078712  1.0000
  C   C19       1.0  0.8374544000741438  0.05054818261915981  0.6566555400330643  1.0000
  C   C20       1.0  0.16254144584373625  0.9494503090652204  0.343345923331988  1.0000
  C   C21       1.0  0.9295849305099466  0.10854161118995621  0.6811266435140695  1.0000
  C   C22       1.0  0.07041387991592535  0.8914569031448707  0.3188745360719237  1.0000
  C   C23       1.0  0.004992911616568609  0.07071880704387472  0.7031250404438509  1.0000
  C   C24       1.0  0.9950038835752936  0.9292803767683184  0.29687488320514177  1.0000
  C   C25       1.0  0.9887031889229688  0.9777833473913445  0.699974983746223  1.0000
  C   C26       1.0  0.011294975727494699  0.022218538438679  0.3000261356185163  1.0000
  C   C27       1.0  0.8247800941774059  0.5358138949979364  0.6737972675080924  1.0000
  C   C28       1.0  0.17522072167136574  0.4641833114649714  0.32619970204764565  1.0000
  C   C29       1.0  0.9457324644579045  0.2085816891821182  0.6834827621111045  1.0000
  C   C30       1.0  0.05425775624895832  0.7914181028678441  0.3165202644047652  1.0000
  C   C31       1.0  0.8739814330892914  0.4525538419801479  0.8594200927531332  1.0000
  C   C32       1.0  0.12602229726105918  0.5474494470914094  0.14057893800196544  1.0000
  C   C33       1.0  0.8353338995822385  0.500663389611951  0.904643543582459  1.0000
  C   C34       1.0  0.1646669731350414  0.49933718468162175  0.09535464035354116  1.0000
  C   C35       1.0  0.8838489159723366  0.5183619941776102  0.9592323876323902  1.0000
  C   C36       1.0  0.11615490941198914  0.4816385998965061  0.040765926538803385  1.0000
  C   C37       1.0  0.9741635642327682  0.4905386853297742  0.9708866241235157  1.0000
  C   C38       1.0  0.025842195528767327  0.5094605836530874  0.029109964102865087  1.0000
  C   C39       1.0  0.012954674046355332  0.443864795689585  0.9245788747507432  1.0000
  C   C40       1.0  0.9870404600292846  0.5561276253516637  0.07542103910557064  1.0000
  C   C41       1.0  0.9633619127618117  0.42396085247879267  0.8701097269631857  1.0000
  C   C42       1.0  0.03663954652613917  0.5760363359701303  0.12989058726527958  1.0000
  C   C43       1.0  0.8203437755808736  0.4319034926955255  0.8008280221371321  1.0000
  C   C44       1.0  0.1796547307336311  0.5680963939294087  0.19916956632611968  1.0000
  C   C45       1.0  0.5674141802177814  0.2104512563499199  0.5982713133188966  1.0000
  C   C46       1.0  0.43257804591197413  0.7895472278281163  0.401727503166711  1.0000
  C   C47       1.0  0.48306263911369746  0.19240107407672724  0.5580634883775701  1.0000
  C   C48       1.0  0.5169305244490943  0.8075980993592325  0.44193420240623027  1.0000
  C   C49       1.0  0.4574530713892814  0.11060660122422661  0.5198327857274236  1.0000
  C   C50       1.0  0.5425388154126621  0.8893905286776871  0.48016627720819116  1.0000
  C   C51       1.0  0.5146835813948557  0.04403906357641321  0.5198214071249083  1.0000
  C   C52       1.0  0.4853095013111357  0.9559594542456651  0.48017330177708567  1.0000
  C   C53       1.0  0.6008960184679141  0.0648302830567431  0.5595497803848275  1.0000
  C   C54       1.0  0.3990982459649499  0.9351729732968151  0.44044427294925004  1.0000
  C   C55       1.0  0.6263498724084825  0.14604264517312524  0.5981432664799797  1.0000
  C   C56       1.0  0.3736461156007707  0.8539558809499398  0.40185322871416657  1.0000
  C   C57       1.0  0.5927218237845224  0.2937948751764949  0.6420433099219166  1.0000
  C   C58       1.0  0.40727000350628373  0.7062049583325277  0.3579552275548821  1.0000
  C   C59       1.0  0.45825609049689586  0.40975056844350627  0.8511732906197762  1.0000
  C   C60       1.0  0.5417585157312316  0.5902460390545556  0.14882669785643535  1.0000
  C   C61       1.0  0.3818742630710119  0.4408137745402172  0.8798751997157125  1.0000
  C   C62       1.0  0.6181421469775046  0.5591841942543566  0.12012502144232676  1.0000
  C   C63       1.0  0.3983932871037865  0.47616286328606355  0.9377008497147941  1.0000
  C   C64       1.0  0.601619536649615  0.523835742136484  0.062301362502587686  1.0000
  C   C65       1.0  0.4911588503373991  0.48118299050509716  0.9692339441749025  1.0000
  C   C66       1.0  0.5088498248449014  0.5188142072167423  0.03077249184092068  1.0000
  C   C67       1.0  0.5667501427687753  0.44930502046351956  0.9394938689393866  1.0000
  C   C68       1.0  0.43325976150418916  0.5506969272693638  0.06051025545156108  1.0000
  C   C69       1.0  0.5512142982636519  0.4150271458665387  0.8816170984324783  1.0000
  C   C70       1.0  0.4487962373011526  0.5849774989390327  0.11838818911541435  1.0000
  C   C71       1.0  0.4423823927002316  0.37387764958094044  0.7890946190158559  1.0000
  C   C72       1.0  0.5576248058421457  0.6261222562071824  0.21090915635234353  1.0000
  C   C73       1.0  0.44710433590093157  0.6408072328881574  0.7115607114696089  1.0000
  C   C74       1.0  0.5529038829611183  0.3591933822471206  0.28843904009709576  1.0000
  C   C75       1.0  0.3464772873539347  0.6423311492924811  0.6957127058992825  1.0000
  C   C76       1.0  0.6535273235609438  0.35766946120634213  0.30428398477373964  1.0000
  C   C77       1.0  0.31994946180924444  0.7239692988868782  0.6927507583033615  1.0000
  C   C78       1.0  0.6800481659705607  0.2760326307861405  0.30724329026046593  1.0000
  C   C79       1.0  0.3938380362776784  0.805420209129629  0.7036221454599739  1.0000
  C   C80       1.0  0.6061598482497104  0.19458033677372544  0.29637715028356126  1.0000
  C   C81       1.0  0.49427207090454317  0.8031651580579648  0.7199683157107089  1.0000
  C   C82       1.0  0.5057280044412309  0.19683539694101876  0.2800319057377009  1.0000
  C   C83       1.0  0.5202092167076415  0.722105033233582  0.7249059629327588  1.0000
  C   C84       1.0  0.4797920880351967  0.27789755381989056  0.2750945424208027  1.0000
  C   C85       1.0  0.36843699529823243  0.8921543852401543  0.6982900649548185  1.0000
  C   C86       1.0  0.6315605143784992  0.10784479777740333  0.30171071928145915  1.0000
  C   C87       1.0  0.28402105962188534  0.917533553371925  0.7216791942470024  1.0000
  C   C88       1.0  0.7159783607501636  0.08246429881459248  0.2783206920729455  1.0000
  C   C89       1.0  0.2645227590618902  0.0019501197776393003  0.7192360152722371  1.0000
  C   C90       1.0  0.7354713090537288  0.9980436628688028  0.2807611029310237  1.0000
  C   C91       1.0  0.3273336739125696  0.062137303753232204  0.6923335915926216  1.0000
  C   C92       1.0  0.6726638002413239  0.9378618706546574  0.30766843468637717  1.0000
  C   C93       1.0  0.41001186610524337  0.0362738548613564  0.6675721050710165  1.0000
  C   C94       1.0  0.5899867447479608  0.9637266931172449  0.33242763724555857  1.0000
  C   C95       1.0  0.4305895087124227  0.9526303736088907  0.670825602536773  1.0000
  C   C96       1.0  0.5694046636354955  0.0473667883477731  0.3291710739897908  1.0000
  C   C97       1.0  0.47645635801450953  0.5524910004323546  0.7116084088286171  1.0000
  C   C98       1.0  0.5235471520302966  0.44750552714886294  0.28839191929412067  1.0000
  C   C99       1.0  0.3089169668145715  0.1543352051000397  0.6912564324155637  1.0000
  C   C100      1.0  0.6910806023732974  0.8456612743104089  0.3087448772795226  1.0000
  C   C101      1.0  0.15745349223788452  0.39367030166341277  0.5771016165441621  1.0000
  C   C102      1.0  0.8425469132373848  0.6063255333040303  0.4228980835470323  1.0000
  C   C103      1.0  0.1811620633938915  0.4130414950262349  0.5241279706874735  1.0000
  C   C104      1.0  0.8188406558351033  0.5869671590058375  0.4758753587763422  1.0000
  C   C105      1.0  0.1200396262062213  0.45429162591624106  0.4939709978905924  1.0000
  C   C106      1.0  0.8799627678721365  0.5457123232283793  0.5060288795575189  1.0000
  C   C107      1.0  0.03275941451347823  0.47757395418555865  0.515573810891368  1.0000
  C   C108      1.0  0.9672376512967488  0.5224232132022095  0.4844250659415934  1.0000
  C   C109      1.0  0.009797932448670103  0.4568376873423929  0.5685182634531643  1.0000
  C   C110      1.0  0.9902018604378  0.5431648812111333  0.4314834188255218  1.0000
  C   C111      1.0  0.07059222860490881  0.41560712344800516  0.5987370766949808  1.0000
  C   C112      1.0  0.9294099925316955  0.5843900756858318  0.4012624420638032  1.0000
  C   C113      1.0  0.2270908329823413  0.35649048395517  0.6113935111089075  1.0000
  C   C114      1.0  0.7729074506903971  0.6435059946606357  0.3886086591734638  1.0000
  C   C115      1.0  0.8047323310877346  0.28075374182853347  0.5453385725570783  1.0000
  C   C116      1.0  0.1952700748315692  0.7192502101859759  0.454660890876788  1.0000
  C   C117      1.0  0.683532642951171  0.30794322447651024  0.4752939451957658  1.0000
  C   C118      1.0  0.3164755163997484  0.6920600942658767  0.5247052809121158  1.0000
  C   C119      1.0  0.7862983842110509  0.1936364372899391  0.44940329975762683  1.0000
  C   C120      1.0  0.2137039740380686  0.8063702212015683  0.5505952242031781  1.0000
  C   C121      1.0  0.11955950086885285  0.4785170336108707  0.7721715571765273  1.0000
  C   C122      1.0  0.8804343534969091  0.5214821332906681  0.22782782222304113  1.0000
  C   C123      1.0  0.21356738704362502  0.6080817135909841  0.8416784380825106  1.0000
  C   C124      1.0  0.7864311787820243  0.39191546942684147  0.1583196758395573  1.0000
  C   C125      1.0  0.05885640582420137  0.6175240047864886  0.7843837014277142  1.0000
  C   C126      1.0  0.9411403538448226  0.3824751704160363  0.21561746426400663  1.0000
  C   C127      1.0  0.19692053600506654  0.2525202413057741  0.8584660783969866  1.0000
  C   C128      1.0  0.8030829953854024  0.7474796454964404  0.14153670614874866  1.0000
  C   C129      1.0  0.0512583845040808  0.21046215785135297  0.9096724446562446  1.0000
  C   C130      1.0  0.9487441736241068  0.7895397490398254  0.09033011210399874  1.0000
  N   N1        1.0  0.760274704307861  0.26174560965601046  0.49222773152409616  1.0000
  N   N2        1.0  0.23972779430919644  0.7382590008422768  0.5077742997773385  1.0000
  N   N3        1.0  0.13160381918324052  0.5652631878133363  0.7974572550564432  1.0000
  N   N4        1.0  0.8683956722344989  0.4347346815925234  0.20254014717805544  1.0000
  N   N5        1.0  0.15984847814274167  0.2370719199163673  0.9072176880980365  1.0000
  N   N6        1.0  0.8401513147437285  0.7629306486371591  0.09278399418065668  1.0000
  O   O1        1.0  0.7327841553146114  0.49390262368909527  0.6717172571460495  1.0000
  O   O2        1.0  0.26721449106143075  0.5060979328991735  0.3282812431278046  1.0000
  O   O3        1.0  0.8981263377609282  0.4956016988250909  0.6759002837240828  1.0000
  O   O4        1.0  0.10187342193893302  0.5043975076375488  0.3240993561458581  1.0000
  O   O5        1.0  0.873880296614665  0.23570657751058383  0.6594762937102131  1.0000
  O   O6        1.0  0.12610815345841797  0.7642952153337463  0.34052854253258147  1.0000
  O   O7        1.0  0.02653242642943351  0.2617869932652752  0.7081587207732696  1.0000
  O   O8        1.0  0.973463020649497  0.7382128477500914  0.29184246358297367  1.0000
  O   O9        1.0  0.7432865099933538  0.4654246814594672  0.7939474879283921  1.0000
  O   O10       1.0  0.2567159649418045  0.5345799232990418  0.20605537140152558  1.0000
  O   O11       1.0  0.8558633803715168  0.38275140132638086  0.7626064502383726  1.0000
  O   O12       1.0  0.1441269137172654  0.617245054461705  0.23739080774056726  1.0000
  O   O13       1.0  0.667255185108786  0.30598565480814  0.6802744436556267  1.0000
  O   O14       1.0  0.3327408955982137  0.6940135297986958  0.3197246194060809  1.0000
  O   O15       1.0  0.53909097061063  0.35319741703282403  0.642977343359938  1.0000
  O   O16       1.0  0.4609041723569334  0.646803796272657  0.35702024987356396  1.0000
  O   O17       1.0  0.519331427184504  0.36398522420419255  0.7628402565651837  1.0000
  O   O18       1.0  0.48066569783046026  0.6360119575330219  0.23715655019656617  1.0000
  O   O19       1.0  0.3533084132521225  0.3552093678928329  0.7633885985172454  1.0000
  O   O20       1.0  0.6466974250299843  0.6447939101851291  0.23661425604242226  1.0000
  O   O21       1.0  0.41170568086877074  0.4820785359112493  0.6876378260217209  1.0000
  O   O22       1.0  0.5882987313926265  0.5179159543616692  0.3123652139719581  1.0000
  O   O23       1.0  0.5644396109258238  0.5542996713996474  0.7346468739621698  1.0000
  O   O24       1.0  0.4355652353909676  0.4456961961085143  0.26535260746756956  1.0000
  O   O25       1.0  0.3722043957543448  0.2059946095522633  0.6681059051328687  1.0000
  O   O26       1.0  0.6277903631642446  0.7939991665597577  0.33189290168616026  1.0000
  O   O27       1.0  0.2325699741171974  0.17489702311824837  0.7139582606489085  1.0000
  O   O28       1.0  0.7674233416544851  0.8251001051943804  0.286042523461269  1.0000
  O   O29       1.0  0.3042053485425242  0.33439396482225453  0.5907150718551932  1.0000
  O   O30       1.0  0.6957971358973509  0.6656139962873552  0.4092906579119527  1.0000
  O   O31       1.0  0.21107741902923746  0.3532422481911865  0.6631817905957147  1.0000
  O   O32       1.0  0.788925689840383  0.646758982202229  0.3368215429696945  1.0000
  O   O33       1.0  0.785762745555175  0.3391158422894733  0.5839114400524679  1.0000
  O   O34       1.0  0.21423399963027379  0.6608894014809438  0.41609082857494417  1.0000
  O   O35       1.0  0.1757575769049566  0.42861607426107884  0.7848486576614703  1.0000
  O   O36       1.0  0.8242397953528737  0.5713763673553631  0.215150525842752  1.0000
  O   O37       1.0  0.1427666707465463  0.24822357511941823  0.8140482186909637  1.0000
  O   O38       1.0  0.8572251210214149  0.7517762497799368  0.18595156082856326  1.0000
