data_image0
_chemical_formula_structural       Ag4H20C24N4Cl4
_chemical_formula_sum              "Ag4 H20 C24 N4 Cl4"
_cell_length_a       3.8477176659668393
_cell_length_b       10.698908643579571
_cell_length_c       15.55913649611914
_cell_angle_alpha    90.0000735857797
_cell_angle_beta     90.00045666083729
_cell_angle_gamma    95.2586992211178

_space_group_name_H-M_alt    "P 1"
_space_group_IT_number       1

loop_
  _space_group_symop_operation_xyz
  'x, y, z'

loop_
  _atom_site_type_symbol
  _atom_site_label
  _atom_site_symmetry_multiplicity
  _atom_site_fract_x
  _atom_site_fract_y
  _atom_site_fract_z
  _atom_site_occupancy
  Ag  Ag1       1.0  0.777159525092536  0.07376412799823838  0.43891144115553987  1.0000
  Ag  Ag2       1.0  0.2228344794329189  0.4262378048538621  0.9389117538158304  1.0000
  Ag  Ag3       1.0  0.22284261098038635  0.9262383502072637  0.5610876350174436  1.0000
  Ag  Ag4       1.0  0.77715672793984  0.573762845393631  0.061090535891018816  1.0000
  H   H1        1.0  0.12884987882418392  0.2066419103115535  0.2764840653383375  1.0000
  H   H2        1.0  0.8711641897109743  0.29337442884145293  0.7764791992063567  1.0000
  H   H3        1.0  0.8711724751543032  0.7933764494766178  0.7235195098260621  1.0000
  H   H4        1.0  0.1288348044040931  0.7066261845576989  0.2235211623810187  1.0000
  H   H5        1.0  0.18982978402080164  0.17586477097834316  0.11964507908960803  1.0000
  H   H6        1.0  0.8101434595503322  0.32412586802019655  0.6196401094212335  1.0000
  H   H7        1.0  0.8101420251173864  0.8241228133308096  0.8803584960104589  1.0000
  H   H8        1.0  0.18987752888404696  0.6758699421146872  0.3803583240596353  1.0000
  H   H9        1.0  0.5827544619225691  0.8179297888432728  0.14898219360755863  1.0000
  H   H10       1.0  0.417189016094369  0.6820578636366363  0.6489807967038461  1.0000
  H   H11       1.0  0.4171852436263066  0.18206358639215378  0.8510168824969713  1.0000
  H   H12       1.0  0.5828355244004018  0.3179322906683524  0.3510202076153277  1.0000
  H   H13       1.0  0.5534702817210047  0.863704319021963  0.30755781878815475  1.0000
  H   H14       1.0  0.4465371626383927  0.636307990010252  0.8075583761661065  1.0000
  H   H15       1.0  0.4465437389875789  0.1363122005102184  0.6924386865657868  1.0000
  H   H16       1.0  0.5534682522411389  0.36368789381420896  0.19243941458939426  1.0000
  H   H17       1.0  0.7642536023798527  0.8757523350192642  0.0097156784903518  1.0000
  H   H18       1.0  0.2357235045995836  0.6242403376655473  0.509719001426717  1.0000
  H   H19       1.0  0.23569225081017467  0.12423537210349171  0.9902853257459869  1.0000
  H   H20       1.0  0.7643133306233454  0.3757563373288804  0.4902826456169224  1.0000
  C   C1        1.0  0.01201184943696629  0.12132267516715696  0.245775908881818  1.0000
  C   C2        1.0  0.9879679282588897  0.3786683492738946  0.7457803488568757  1.0000
  C   C3        1.0  0.987976899023181  0.8786695281574947  0.754215454763042  1.0000
  C   C4        1.0  0.012038033037867962  0.6213294116437423  0.25421937002747813  1.0000
  C   C5        1.0  0.04501842123447369  0.10360172267315447  0.15808212388981963  1.0000
  C   C6        1.0  0.9549710499729614  0.3963870867723712  0.6580961493085555  1.0000
  C   C7        1.0  0.9549699169726297  0.8963980012725302  0.8418957428645089  1.0000
  C   C8        1.0  0.045061277244037974  0.6036030306822581  0.3419016414727595  1.0000
  C   C9        1.0  0.8899730112987145  0.9924362357095546  0.12030103957672372  1.0000
  C   C10       1.0  0.1100369191862924  0.507577323117502  0.6203007983982547  1.0000
  C   C11       1.0  0.1100397798270052  0.007584988833791297  0.8796980366144853  1.0000
  C   C12       1.0  0.8899939052843849  0.492416560806255  0.3797014913472552  1.0000
  C   C13       1.0  0.7083616444492692  0.9051407697752153  0.17558280548443866  1.0000
  C   C14       1.0  0.29163471169295724  0.5948739755847187  0.6755733682166607  1.0000
  C   C15       1.0  0.2916012842948774  0.09487881105484768  0.8244310529656006  1.0000
  C   C16       1.0  0.7084223418492003  0.40512072406341565  0.3244269934288938  1.0000
  C   C17       1.0  0.6889128609565419  0.9301142061835035  0.2629276162609386  1.0000
  C   C18       1.0  0.31106655113649145  0.5698868101114484  0.7629239848080547  1.0000
  C   C19       1.0  0.3110536202014487  0.06988186188163331  0.7370791723827566  1.0000
  C   C20       1.0  0.6889532076748852  0.4301137050305429  0.23707444867333297  1.0000
  C   C21       1.0  0.9095100976956588  0.9636052813769425  0.0293666966014499  1.0000
  C   C22       1.0  0.09048387902986116  0.5363986543897281  0.5293619377389336  1.0000
  C   C23       1.0  0.09045187497250143  0.036402086070261  0.9706375212050988  1.0000
  C   C24       1.0  0.9095555516835249  0.4635980083127932  0.4706332822155091  1.0000
  N   N1        1.0  0.8373538030507958  0.03689400547108329  0.2983979078793197  1.0000
  N   N2        1.0  0.16261996720315616  0.46310661946105114  0.7983949097661951  1.0000
  N   N3        1.0  0.16260338849814823  0.9631058658993583  0.7016075953377765  1.0000
  N   N4        1.0  0.8373955569062373  0.536888276697354  0.20160673725458625  1.0000
  Cl  Cl1       1.0  0.6761910778306871  0.8166865312081981  0.47951220130205047  1.0000
  Cl  Cl2       1.0  0.323787037179514  0.6833142663220215  0.9795157525619944  1.0000
  Cl  Cl3       1.0  0.3238219869423845  0.183317774955313  0.5204836613370534  1.0000
  Cl  Cl4       1.0  0.6761747991338182  0.3166837033917104  0.020487822531642105  1.0000
