data_image0
_chemical_formula_structural       Cu4H16C16S4N8
_chemical_formula_sum              "Cu4 H16 C16 S4 N8"
_cell_length_a       5.6229711961939355
_cell_length_b       6.846808439118675
_cell_length_c       13.96724277832913
_cell_angle_alpha    90.00007141219281
_cell_angle_beta     91.77320059676359
_cell_angle_gamma    90.00052204205451

_space_group_name_H-M_alt    "P 1"
_space_group_IT_number       1

loop_
  _space_group_symop_operation_xyz
  'x, y, z'

loop_
  _atom_site_type_symbol
  _atom_site_label
  _atom_site_symmetry_multiplicity
  _atom_site_fract_x
  _atom_site_fract_y
  _atom_site_fract_z
  _atom_site_occupancy
  Cu  Cu1       1.0  0.11049966512162258  0.31945273800584334  0.8342515484661989  1.0000
  Cu  Cu2       1.0  0.6105043549980492  0.180548578442732  0.334249075919324  1.0000
  Cu  Cu3       1.0  0.8895024613887867  0.6805443735008512  0.16575061574806682  1.0000
  Cu  Cu4       1.0  0.3894924957809706  0.8194529146528924  0.665750850011989  1.0000
  H   H1        1.0  0.4793526609131574  0.6277112621894434  0.8384378184223067  1.0000
  H   H2        1.0  0.9793385210578691  0.8722923458647006  0.3384409803033179  1.0000
  H   H3        1.0  0.5206584436294504  0.37228730987708053  0.161561635357593  1.0000
  H   H4        1.0  0.020638286131294606  0.12772083144972873  0.6615750709224314  1.0000
  H   H5        1.0  0.8106880050122385  0.9208283101060747  0.980819172705381  1.0000
  H   H6        1.0  0.310679123497259  0.5791524253471537  0.4808191251919993  1.0000
  H   H7        1.0  0.1893353684913635  0.07916734092528094  0.0191869350537957  1.0000
  H   H8        1.0  0.6893212236562859  0.42081547546438713  0.5191830085629121  1.0000
  H   H9        1.0  0.8442892223550443  0.8022227864040518  0.8688688942396608  1.0000
  H   H10       1.0  0.34429102084226315  0.6977917456740813  0.3688648747568379  1.0000
  H   H11       1.0  0.15571842669769606  0.19777432511855866  0.1311269203777243  1.0000
  H   H12       1.0  0.6557080616218514  0.3022243527740189  0.6311193371712847  1.0000
  H   H13       1.0  0.02757046386298609  0.7352418416124495  0.9705522810024902  1.0000
  H   H14       1.0  0.5275458815769553  0.764763600447644  0.4705565681019408  1.0000
  H   H15       1.0  0.9724922360065448  0.2647435857878052  0.029448055483023  1.0000
  H   H16       1.0  0.4724883726138315  0.2352495770287747  0.5294425657313298  1.0000
  C   C1        1.0  0.4886181324344605  0.5702932896969914  0.9111315678261249  1.0000
  C   C2        1.0  0.9886010942371328  0.9297103596492067  0.4111397606088332  1.0000
  C   C3        1.0  0.5113969212301085  0.42971696665763676  0.0888543493576748  1.0000
  C   C4        1.0  0.011378252805719991  0.070273606984081  0.58884984172866  1.0000
  C   C5        1.0  0.6690988601732427  0.6319823861619512  0.9746318630080637  1.0000
  C   C6        1.0  0.16906034252694718  0.8680267683968312  0.4746273566572654  1.0000
  C   C7        1.0  0.3309051276678403  0.3680030410740829  0.0253674690086356  1.0000
  C   C8        1.0  0.8308865893444378  0.1320010141800694  0.5253752953008615  1.0000
  C   C9        1.0  0.8480567751690202  0.7799861534151592  0.946506441571799  1.0000
  C   C10       1.0  0.34803552991104425  0.7200444542913689  0.4465099304531392  1.0000
  C   C11       1.0  0.1519259245385953  0.21999927376149495  0.0534903782127785  1.0000
  C   C12       1.0  0.6518759631337829  0.28002130208399484  0.553487103164791  1.0000
  C   C13       1.0  0.6100914228305214  0.14657504936711527  0.8124506298024556  1.0000
  C   C14       1.0  0.11009881481174229  0.3534248074345145  0.3124519035571396  1.0000
  C   C15       1.0  0.3899265514799879  0.8534147595109477  0.18755753360792937  1.0000
  C   C16       1.0  0.8899189332733002  0.6465635409078345  0.6875641320782506  1.0000
  S   S1        1.0  0.348893511658602  0.04116170162622271  0.8015950908690641  1.0000
  S   S2        1.0  0.8489019745587216  0.4588424142735193  0.3015973105731149  1.0000
  S   S3        1.0  0.6511034008154793  0.9588397914697283  0.1984026880915053  1.0000
  S   S4        1.0  0.151105551103889  0.5411546972484303  0.6984027979857573  1.0000
  N   N1        1.0  0.31992598185394167  0.44049657468028885  0.934789314173301  1.0000
  N   N2        1.0  0.8199378725942168  0.05948399122440412  0.43478682055834383  1.0000
  N   N3        1.0  0.680097617977374  0.5595151422318666  0.0652089213713225  1.0000
  N   N4        1.0  0.1800945815213097  0.9404780675391179  0.5652129984568077  1.0000
  N   N5        1.0  0.796091971852981  0.22537286633949807  0.8232418733327691  1.0000
  N   N6        1.0  0.2961001014494116  0.27463095091437145  0.3232409177776603  1.0000
  N   N7        1.0  0.20388698455670348  0.7746257056368011  0.17676132649653203  1.0000
  N   N8        1.0  0.7038877507017103  0.7253647000177855  0.6767624342417945  1.0000
