data_image0
_chemical_formula_structural       NiH18C12S4N2O2
_chemical_formula_sum              "Ni1 H18 C12 S4 N2 O2"
_cell_length_a       6.597982500793814
_cell_length_b       6.9313825239618145
_cell_length_c       9.972781780855096
_cell_angle_alpha    102.56555742304577
_cell_angle_beta     100.79393747216935
_cell_angle_gamma    103.66828203095145

_space_group_name_H-M_alt    "P 1"
_space_group_IT_number       1

loop_
  _space_group_symop_operation_xyz
  'x, y, z'

loop_
  _atom_site_type_symbol
  _atom_site_label
  _atom_site_symmetry_multiplicity
  _atom_site_fract_x
  _atom_site_fract_y
  _atom_site_fract_z
  _atom_site_occupancy
  Ni  Ni1       1.0  6.1767057885999525e-06  1.1636302600776279e-08  0.9999997683857984  1.0000
  H   H1        1.0  0.19603182673985486  0.05720583909916141  0.5135196553007191  1.0000
  H   H2        1.0  0.8039712878113009  0.9427852904765575  0.48648554049103854  1.0000
  H   H3        1.0  0.5977965187623723  0.14754766556046664  0.6214243456186139  1.0000
  H   H4        1.0  0.4022102891540413  0.8524712116250939  0.37859457477320296  1.0000
  H   H5        1.0  0.6033239958500048  0.4113103537398572  0.6839266813961942  1.0000
  H   H6        1.0  0.396660307014912  0.5887054565955765  0.3160779371737448  1.0000
  H   H7        1.0  0.4542970736086431  0.21675305212141183  0.748158041641645  1.0000
  H   H8        1.0  0.5456923178368527  0.7832642991891487  0.25184945167350037  1.0000
  H   H9        1.0  0.2884791123812889  0.5300639949948974  0.598726395208736  1.0000
  H   H10       1.0  0.711500414664542  0.4699256055967852  0.4012656016628071  1.0000
  H   H11       1.0  0.04550741490959348  0.3500893473143165  0.4816683451428361  1.0000
  H   H12       1.0  0.9544796694631541  0.6498894583692802  0.5183229435192018  1.0000
  H   H13       1.0  0.1157639656435663  0.3505578548242667  0.6618860046787277  1.0000
  H   H14       1.0  0.8842201861334472  0.6494317427696358  0.33810857323656757  1.0000
  H   H15       1.0  0.7319370224525626  0.284631389395571  0.08422318155663082  1.0000
  H   H16       1.0  0.26807803228751226  0.7153737176338452  0.9157685908006884  1.0000
  H   H17       1.0  0.2712307115306841  0.3542591676036294  0.9205455945126886  1.0000
  H   H18       1.0  0.7287824764690497  0.6457397464796629  0.07944900995430972  1.0000
  C   C1        1.0  0.2515191818612621  0.1480975372351523  0.2796974591829056  1.0000
  C   C2        1.0  0.7484868818840553  0.8518982474205926  0.7203038015975168  1.0000
  C   C3        1.0  0.3030505821386598  0.21531092975664018  0.5377795684121125  1.0000
  C   C4        1.0  0.6969497715859558  0.784686391499335  0.46222121595508986  1.0000
  C   C5        1.0  0.5026249891481456  0.2505254510889756  0.654294763676873  1.0000
  C   C6        1.0  0.4973727297323265  0.7494888148075276  0.34571530086511604  1.0000
  C   C7        1.0  0.18130057156334797  0.3722821718690952  0.5710184967775475  1.0000
  C   C8        1.0  0.8186862061350124  0.627705889701886  0.42897517076475106  1.0000
  C   C9        1.0  0.8515469493973455  0.3803554494530771  0.045727898448049586  1.0000
  C   C10       1.0  0.1484441240880017  0.619626409489918  0.954273378234099  1.0000
  C   C11       1.0  0.1496215764072488  0.41971019775158425  0.9562270712706818  1.0000
  C   C12       1.0  0.850384827209318  0.5803072249974549  0.0437705191133091  1.0000
  S   S1        1.0  0.36857286458899097  0.1325454951070739  0.1411146232130562  1.0000
  S   S2        1.0  0.6314379895695906  0.8674610992020887  0.8588888860062127  1.0000
  S   S3        1.0  0.978963067263564  0.0642995259300889  0.2443732921999953  1.0000
  S   S4        1.0  0.021043159743868507  0.9356916457046864  0.7556232730892276  1.0000
  N   N1        1.0  0.001247948634592397  0.298892238473961  0.0015208400819374983  1.0000
  N   N2        1.0  0.9987749725267605  0.701108243432138  0.9984722080719023  1.0000
  O   O1        1.0  0.3838503176572201  0.22623225005097677  0.40945561986649176  1.0000
  O   O2        1.0  0.6161521839608852  0.7737619698909982  0.5905489690706318  1.0000
