data_image0
_chemical_formula_structural       Al2H20C30O10
_chemical_formula_sum              "Al2 H20 C30 O10"
_cell_length_a       6.612240852351598
_cell_length_b       11.16906619935973
_cell_length_c       17.698213820746428
_cell_angle_alpha    83.05002323813697
_cell_angle_beta     80.89068567340894
_cell_angle_gamma    71.32594089038356

_space_group_name_H-M_alt    "P 1"
_space_group_IT_number       1

loop_
  _space_group_symop_operation_xyz
  'x, y, z'

loop_
  _atom_site_type_symbol
  _atom_site_label
  _atom_site_symmetry_multiplicity
  _atom_site_fract_x
  _atom_site_fract_y
  _atom_site_fract_z
  _atom_site_occupancy
  Al  Al1       1.0  0.4840622455361014  0.4989374347241691  0.4998793668325518  1.0000
  Al  Al2       1.0  0.9836302008874824  0.49980445832515147  0.4988973923113916  1.0000
  H   H1        1.0  0.29284912576342487  0.3461459834964415  0.5438973760366819  1.0000
  H   H2        1.0  0.6682876428690393  0.6549081081041521  0.46268784486172604  1.0000
  H   H3        1.0  0.6144098387634285  0.5609794113945271  0.27191017709287724  1.0000
  H   H4        1.0  0.6970870365681279  0.5651306696015936  0.12875237318704075  1.0000
  H   H5        1.0  0.13492667865045854  0.45319361614458137  0.11899830995929506  1.0000
  H   H6        1.0  0.05203515879229306  0.4532797136879694  0.26198057951407344  1.0000
  H   H7        1.0  0.8407014526738691  0.5603958541514729  0.8751054373270148  1.0000
  H   H8        1.0  0.9199002170075231  0.551924638361463  0.7323249754408605  1.0000
  H   H9        1.0  0.34754015331262167  0.4504532940619653  0.7292256120763339  1.0000
  H   H10       1.0  0.268787444243152  0.45477381659041805  0.8721627296313624  1.0000
  H   H11       1.0  0.24314250466264303  0.23199395283999993  0.4016623194960187  1.0000
  H   H12       1.0  0.43881416126667  0.7653217941434818  0.3989503088130277  1.0000
  H   H13       1.0  0.739572688587508  0.8852909498480056  0.5444878345136954  1.0000
  H   H14       1.0  0.6277888935288658  0.12164119582336498  0.5376634790459318  1.0000
  H   H15       1.0  0.789326659287127  0.09968079627468998  0.3428582371637673  1.0000
  H   H16       1.0  0.5655870878190327  0.23513499857683223  0.326980272921709  1.0000
  H   H17       1.0  0.6628283207500871  0.11662586492218448  0.259770462735247  1.0000
  H   H18       1.0  0.757388954402103  0.8854505687841578  0.2583630316712941  1.0000
  H   H19       1.0  0.7678505519321134  0.7528343220629452  0.32638046422538736  1.0000
  H   H20       1.0  0.8867430404529342  0.8687328465464149  0.3407276062518107  1.0000
  C   C1        1.0  0.8552071457493893  0.2735719468417201  0.4865137400412534  1.0000
  C   C2        1.0  0.6851732816683055  0.4952604386103374  0.6377835727131538  1.0000
  C   C3        1.0  0.12058490271651577  0.7269743666829528  0.49839401376767234  1.0000
  C   C4        1.0  0.28178174100224845  0.5071102351512093  0.3600876812982888  1.0000
  C   C5        1.0  0.3286458870735273  0.5073588335716651  0.2749704200131687  1.0000
  C   C6        1.0  0.5109359644869328  0.5382248688058341  0.23737386530323323  1.0000
  C   C7        1.0  0.5567103207599331  0.5400196516392766  0.1580732532184115  1.0000
  C   C8        1.0  0.4211161570309869  0.5094174857465816  0.11436662474295639  1.0000
  C   C9        1.0  0.23855913050176974  0.4776068898947514  0.15270084692497216  1.0000
  C   C10       1.0  0.19271673281871665  0.47730044843098807  0.2320117509075813  1.0000
  C   C11       1.0  0.46681402938991573  0.5101921028023071  0.03355119118445058  1.0000
  C   C12       1.0  0.505572316878677  0.5099001149849371  0.9637536749660067  1.0000
  C   C13       1.0  0.5497359767093996  0.5077746341239618  0.8830149634908931  1.0000
  C   C14       1.0  0.7339192086961362  0.5356192328373551  0.8429532685170994  1.0000
  C   C15       1.0  0.7778016090513944  0.5312489815589173  0.7637884031527234  1.0000
  C   C16       1.0  0.6385323405618949  0.5003654143068559  0.7227472296841169  1.0000
  C   C17       1.0  0.4540760275335956  0.4739386885615459  0.762057366868859  1.0000
  C   C18       1.0  0.41023762833099625  0.4768495311502789  0.841239449177557  1.0000
  C   C19       1.0  0.9318487657805292  0.1337824985883813  0.4805899879365396  1.0000
  C   C20       1.0  0.14098065981130498  0.0675008627289557  0.44412817681593686  1.0000
  C   C21       1.0  0.788745702503519  0.06848529040893682  0.5131091752809593  1.0000
  C   C22       1.0  0.28731697027895114  0.1291417201955696  0.4030585546205855  1.0000
  C   C23       1.0  0.48269876241180043  0.0634883854185375  0.3640702882212351  1.0000
  C   C24       1.0  0.055719224890616086  0.8677654588161376  0.485745507352007  1.0000
  C   C25       1.0  0.8505536565158491  0.9358687373548877  0.5164009774964881  1.0000
  C   C26       1.0  0.20148450570827955  0.9316867676486994  0.4453575672371597  1.0000
  C   C27       1.0  0.3994307489244163  0.8670074157328359  0.40288404664275373  1.0000
  C   C28       1.0  0.5396887663333912  0.9286661784083706  0.36341706710047095  1.0000
  C   C29       1.0  0.6318839048293369  0.13280942835060472  0.32126655470836596  1.0000
  C   C30       1.0  0.7480461750123483  0.8547909771933818  0.31997633616011706  1.0000
  O   O1        1.0  0.6575208103714588  0.3301458114323239  0.47966062557955497  1.0000
  O   O2        1.0  0.8612789659405351  0.5121170242413484  0.6051845476879973  1.0000
  O   O3        1.0  0.9815725930385708  0.6730433796113146  0.4919623691203937  1.0000
  O   O4        1.0  0.42039504923729965  0.5281650576081205  0.3949272636104195  1.0000
  O   O5        1.0  0.3090699785954242  0.6697360312429979  0.5157878321203383  1.0000
  O   O6        1.0  0.1072902257156158  0.4871797482718209  0.39186186163519904  1.0000
  O   O7        1.0  0.9874233933087951  0.3270240605371342  0.5006993258156881  1.0000
  O   O8        1.0  0.5452483624440774  0.4731738440531927  0.604062774063294  1.0000
  O   O9        1.0  0.2532462506333174  0.4369107842179432  0.5314445017618536  1.0000
  O   O10       1.0  0.7129913441329805  0.56283644349638  0.46702186069411755  1.0000
