data_image0
_chemical_formula_structural       Zn4H36C52N20O8
_chemical_formula_sum              "Zn4 H36 C52 N20 O8"
_cell_length_a       8.86942117598116
_cell_length_b       10.285092433
_cell_length_c       14.441
_cell_angle_alpha    90.0
_cell_angle_beta     96.31380557849162
_cell_angle_gamma    90.0

_space_group_name_H-M_alt    "P 1"
_space_group_IT_number       1

loop_
  _space_group_symop_operation_xyz
  'x, y, z'

loop_
  _atom_site_type_symbol
  _atom_site_label
  _atom_site_symmetry_multiplicity
  _atom_site_fract_x
  _atom_site_fract_y
  _atom_site_fract_z
  _atom_site_occupancy
  Zn  Zn1       1.0  0.7573236246356743  0.8015484599388643  0.996840003653773  1.0000
  Zn  Zn2       1.0  0.2573238274573981  0.1984513035051663  0.9968391863857919  1.0000
  Zn  Zn3       1.0  0.8039737562406089  0.7954580917279727  0.5030260520554037  1.0000
  Zn  Zn4       1.0  0.3039716903629284  0.2045406994350571  0.5030257740230439  1.0000
  H   H1        1.0  0.0031977318174938006  0.4415653072235273  0.22299488126900266  1.0000
  H   H2        1.0  0.5031952602963514  0.5584344562205033  0.22299623777259822  1.0000
  H   H3        1.0  0.0390681381788625  0.3879440098367866  0.39632139174933917  1.0000
  H   H4        1.0  0.5390679353571317  0.612052836764235  0.3963222090173205  1.0000
  H   H5        1.0  0.9300465167683784  0.5359310123761531  0.5059040989295696  1.0000
  H   H6        1.0  0.4300455852404  0.46406486194386076  0.5059038975158145  1.0000
  H   H7        1.0  0.7507443963485301  0.7790887687397046  0.29043342477501  1.0000
  H   H8        1.0  0.2507434648205519  0.2209090501423177  0.2904325308884311  1.0000
  H   H9        1.0  0.5463289078167861  0.4323062752196449  0.7002791636313361  1.0000
  H   H10       1.0  0.0463268419391056  0.5676934882243856  0.7002788855989762  1.0000
  H   H11       1.0  0.5061196138350184  0.3856085908644715  0.8677232252484688  1.0000
  H   H12       1.0  0.0061198166567422016  0.6143931171415673  0.8677231004533114  1.0000
  H   H13       1.0  0.5979679094229056  0.5471472460416749  0.9898407513830563  1.0000
  H   H14       1.0  0.0979692465943387  0.452854461964364  0.9898407032065037  1.0000
  H   H15       1.0  0.779209767837756  0.7825753684210922  0.7948448393039272  1.0000
  H   H16       1.0  0.2792099706594797  0.21742731186594708  0.7948447145087698  1.0000
  H   H17       1.0  0.988533587541646  0.9343941303983812  0.19314656986514223  1.0000
  H   H18       1.0  0.48853379036337696  0.0656046607646488  0.19314575259716088  1.0000
  H   H19       1.0  0.856164051803205  0.051341298431673  0.3121075992510924  1.0000
  H   H20       1.0  0.3561642546249288  0.9486584650123575  0.31210816692875915  1.0000
  H   H21       1.0  0.7226635694091926  0.2579821248359977  0.272334944689149  1.0000
  H   H22       1.0  0.222661503531512  0.7420186108890334  0.27233605160243  1.0000
  H   H23       1.0  0.7240429386500866  0.3535067889457437  0.11328885662565112  1.0000
  H   H24       1.0  0.2240386040729945  0.6464920022172862  0.11329050277454661  1.0000
  H   H25       1.0  0.8575729141364121  0.2384421934927303  0.9947545218987841  1.0000
  H   H26       1.0  0.3575697139090295  0.7615556253892919  0.9947548597206364  1.0000
  H   H27       1.0  0.003509677986279801  0.93949860567092  0.696502552035632  1.0000
  H   H28       1.0  0.5035117438639604  0.0605060191781348  0.6965021375951751  1.0000
  H   H29       1.0  0.8585405144345089  0.04761162849920449  0.8138531855094158  1.0000
  H   H30       1.0  0.3585407172562328  0.9523949409118514  0.8138537531870753  1.0000
  H   H31       1.0  0.7308047972396778  0.2565100913954979  0.7781780986390672  1.0000
  H   H32       1.0  0.2308084031105153  0.7434935611725493  0.7781823585366396  1.0000
  H   H33       1.0  0.744850315283017  0.3629476374974274  0.6223620231928777  1.0000
  H   H34       1.0  0.24485392115386162  0.6370521259466031  0.6223662830904503  1.0000
  H   H35       1.0  0.8860666443682561  0.2553326590993024  0.5055240599116004  1.0000
  H   H36       1.0  0.3860691158893915  0.7446661320637276  0.5055268582449273  1.0000
  C   C1        1.0  0.848374472381167  0.6475245646438452  0.1432669381523795  1.0000
  C   C2        1.0  0.3483724065034863  0.3524751988001924  0.1432652751743717  1.0000
  C   C3        1.0  0.871461891920511  0.6121607599557066  0.24473079532074143  1.0000
  C   C4        1.0  0.3714643634416461  0.3878380312073162  0.2447301312899697  1.0000
  C   C5        1.0  0.9554627562514214  0.5019128445979604  0.2745663177272135  1.0000
  C   C6        1.0  0.4554640934228544  0.4980840020030541  0.2745676544962947  1.0000
  C   C7        1.0  0.9748612705511448  0.47223299466092067  0.369115960303347  1.0000
  C   C8        1.0  0.47486260772257793  0.5277657965021021  0.3691166045996113  1.0000
  C   C9        1.0  0.9139206013666553  0.5549916091843059  0.4313525247735939  1.0000
  C   C10       1.0  0.4139196698386769  0.445007181978724  0.4313523233598318  1.0000
  C   C11       1.0  0.8141239173980779  0.6910176108088634  0.3113350685912195  1.0000
  C   C12       1.0  0.3141263889192204  0.308982152635167  0.31133440456044076  1.0000
  C   C13       1.0  0.7038764696002959  0.63788245392427  0.6382185391561563  1.0000
  C   C14       1.0  0.20387553807231745  0.3621182818007611  0.6382169527967534  1.0000
  C   C15       1.0  0.6694897926526411  0.6093353113572348  0.7357962067524824  1.0000
  C   C16       1.0  0.1694899954743718  0.39066639664880404  0.7357953894845011  1.0000
  C   C17       1.0  0.5882170393614815  0.49837860314735843  0.7563561562953609  1.0000
  C   C18       1.0  0.08821610783350312  0.5016221325776797  0.7563552624087819  1.0000
  C   C19       1.0  0.5632193749194627  0.4735572413887681  0.8483385105722547  1.0000
  C   C20       1.0  0.0632195777411866  0.5264444666172707  0.8483376933042805  1.0000
  C   C21       1.0  0.6158997095544763  0.5622127402031865  0.917072296953002  1.0000
  C   C22       1.0  0.11590104672590941  0.43778896780285237  0.9170715563036254  1.0000
  C   C23       1.0  0.7172946922569494  0.6942504451481355  0.8083395964272667  1.0000
  C   C24       1.0  0.21729376072897114  0.3057512628579033  0.8083387025406877  1.0000
  C   C25       1.0  0.9980791403065226  0.0065677581839978  0.014096695919363385  1.0000
  C   C26       1.0  0.4980770744288422  0.9934300606980244  0.014095725414179604  1.0000
  C   C27       1.0  0.929179873594002  0.0784825226665049  0.0863933083182005  1.0000
  C   C28       1.0  0.4291789420660238  0.9215143239345166  0.0863917219587975  1.0000
  C   C29       1.0  0.9302109974755552  0.025967681062645895  0.17599415052847436  1.0000
  C   C30       1.0  0.43020893159787493  0.9740311101003769  0.17599179507764973  1.0000
  C   C31       1.0  0.8582160904189706  0.0922762732744005  0.2428541934394417  1.0000
  C   C32       1.0  0.3582162932406945  0.9077225178886222  0.24285406864428438  1.0000
  C   C33       1.0  0.7828283433956855  0.20922223247072216  0.2202260160280787  1.0000
  C   C34       1.0  0.2828251431682958  0.7907775309733082  0.22022635384993813  1.0000
  C   C35       1.0  0.7836881804718274  0.2628270010803888  0.1313172623769105  1.0000
  C   C36       1.0  0.2836861145941469  0.7371717900826411  0.1313176768173676  1.0000
  C   C37       1.0  0.8583317940888477  0.1984269964800589  0.0647116034403012  1.0000
  C   C38       1.0  0.358328593861458  0.8015717946829638  0.0647112487893367  1.0000
  C   C39       1.0  0.0283995792063507  0.0245967648465921  0.5217430277097321  1.0000
  C   C40       1.0  0.5283993763846269  0.975403970878439  0.5217431525048895  1.0000
  C   C41       1.0  0.9539744894388846  0.091256350500899  0.5938737298591974  1.0000
  C   C42       1.0  0.4539758266103178  0.9087443852241391  0.5938757591011027  1.0000
  C   C43       1.0  0.9468065336550141  0.032171806151041  0.6808759005715146  1.0000
  C   C44       1.0  0.4468044677773336  0.9678328186980137  0.6808756225391478  1.0000
  C   C45       1.0  0.8675756098322793  0.09307062685491019  0.74674515062204  1.0000
  C   C46       1.0  0.3675769470037125  0.9069330257131369  0.7467464873911213  1.0000
  C   C47       1.0  0.7946448642693298  0.2116636300725006  0.7262800207179366  1.0000
  C   C48       1.0  0.2946484701401673  0.788339050214546  0.7262828956698685  1.0000
  C   C49       1.0  0.8021814837072156  0.270958187119291  0.6398574217806187  1.0000
  C   C50       1.0  0.3021862239277624  0.7290425486057472  0.6398603733511551  1.0000
  C   C51       1.0  0.8822075866729335  0.21109679024699798  0.5737593524597386  1.0000
  C   C52       1.0  0.3822077894946645  0.7889029731970325  0.5737613050830461  1.0000
  N   N1        1.0  0.8362732297316529  0.6632541267312888  0.40299939431986337  1.0000
  N   N2        1.0  0.33627343255337655  0.3367446644317411  0.40299996199752997  1.0000
  N   N3        1.0  0.6903527524211059  0.6712598885206376  0.8967490365018023  1.0000
  N   N4        1.0  0.1903540895925389  0.3287418194854084  0.896747603379609  1.0000
  N   N5        1.0  0.9518112845520648  0.8906298178331582  0.9784101193959743  1.0000
  N   N6        1.0  0.4518092186743773  0.1093689733298646  0.9784091488907904  1.0000
  N   N7        1.0  0.0418892658943975  0.8607224541411184  0.9114014927990085  1.0000
  N   N8        1.0  0.5418890630726737  0.1392753647409037  0.9114016175941659  1.0000
  N   N9        1.0  0.1400366053923747  0.9540069828169706  0.9067247604075988  1.0000
  N   N10       1.0  0.6400364025706439  0.0459908360650516  0.9067262701483969  1.0000
  N   N11       1.0  0.1150741057911944  0.046535313427455094  0.9701546806374354  1.0000
  N   N12       1.0  0.6150727686197685  0.9534625054545671  0.9701554212868047  1.0000
  N   N13       1.0  0.9903712340632254  0.9055387747529835  0.4885791886427668  1.0000
  N   N14       1.0  0.4903691681855449  0.094460988691047  0.48857891061040704  1.0000
  N   N15       1.0  0.0786660176698106  0.8799813962741466  0.41966976998124744  1.0000
  N   N16       1.0  0.5786658148480799  0.12001836716988382  0.419669202303588  1.0000
  N   N17       1.0  0.16759222841844232  0.9785561058943556  0.4115068298572311  1.0000
  N   N18       1.0  0.6675920255967185  0.0214426852686671  0.41150764712520527  1.0000
  N   N19       1.0  0.1390644676954622  0.07141695660831  0.4743919422510956  1.0000
  N   N20       1.0  0.6390631305240291  0.9285828068357205  0.4743919904276481  1.0000
  O   O1        1.0  0.7467537540874718  0.7374498624498642  0.12278835252073611  1.0000
  O   O2        1.0  0.2467528225594933  0.2625489287131586  0.1227874586341571  1.0000
  O   O3        1.0  0.9244734566692898  0.5932965639104211  0.086657787378229  1.0000
  O   O4        1.0  0.424469122092198  0.40670708865762606  0.08665666363584282  1.0000
  O   O5        1.0  0.7975556056115352  0.7338553395769978  0.6308322780926474  1.0000
  O   O6        1.0  0.2975535397338547  0.2661463684290482  0.6308313075874636  1.0000
  O   O7        1.0  0.6441506889495161  0.5710196615400703  0.5721533937126324  1.0000
  O   O8        1.0  0.1441486230718354  0.4289810741849678  0.5721524232074486  1.0000
