data_image0
_chemical_formula_structural       Zn2H20C30N2O10
_chemical_formula_sum              "Zn2 H20 C30 N2 O10"
_cell_length_a       11.256773694679293
_cell_length_b       14.013259752391608
_cell_length_c       15.345547100656281
_cell_angle_alpha    90.39981712272257
_cell_angle_beta     92.37373419424584
_cell_angle_gamma    104.74340485078513

_space_group_name_H-M_alt    "P 1"
_space_group_IT_number       1

loop_
  _space_group_symop_operation_xyz
  'x, y, z'

loop_
  _atom_site_type_symbol
  _atom_site_label
  _atom_site_symmetry_multiplicity
  _atom_site_fract_x
  _atom_site_fract_y
  _atom_site_fract_z
  _atom_site_occupancy
  Zn  Zn1       1.0  0.4866370147275063  0.39674664746961236  0.5060813019510348  1.0000
  Zn  Zn2       1.0  0.49768479654454717  0.6015397933473706  0.5049385710034429  1.0000
  H   H1        1.0  0.1154464740903975  0.5859226084980448  0.5149817861043005  1.0000
  H   H2        1.0  0.8723766980867609  0.4161581578925464  0.505135752252059  1.0000
  H   H3        1.0  0.31808745139301203  0.8895467260741369  0.4375238379844859  1.0000
  H   H4        1.0  0.5864986080031613  0.09169957947752037  0.6277541754454887  1.0000
  H   H5        1.0  0.06982747924841697  0.3592000465941893  0.5096684913783989  1.0000
  H   H6        1.0  0.9210010229186664  0.6424621528942109  0.5230475746800423  1.0000
  H   H7        1.0  0.5721930872201498  0.3664017215351194  0.9457197854839308  1.0000
  H   H8        1.0  0.5755357025846948  0.6569879477797043  0.0689747716375706  1.0000
  H   H9        1.0  0.5694340560874237  0.3654524871274559  0.7834559394917093  1.0000
  H   H10       1.0  0.562644184864773  0.6543429939628351  0.2305307647939969  1.0000
  H   H11       1.0  0.45291927730553994  0.6338391575832459  0.7805432319303307  1.0000
  H   H12       1.0  0.4267026162273951  0.33837514382639  0.2187223483422258  1.0000
  H   H13       1.0  0.4502123954127343  0.6341110420647951  0.9428234226412472  1.0000
  H   H14       1.0  0.4360131044539274  0.34051875668829706  0.0585227804899517  1.0000
  H   H15       1.0  0.6815776638568707  0.9762363320000345  0.5642348446459097  1.0000
  H   H16       1.0  0.4069770125159664  0.04443101598987201  0.3700445304969122  1.0000
  H   H17       1.0  0.3345296924365044  0.7150300930913642  0.443914996402107  1.0000
  H   H18       1.0  0.576146677996114  0.2675955434425035  0.6183488821461935  1.0000
  H   H19       1.0  0.7071538172808758  0.7290794805165816  0.5548710908814343  1.0000
  H   H20       1.0  0.41862981927351944  0.3002960210469681  0.356343972568844  1.0000
  C   C1        1.0  0.5066721519676846  0.49779516191007644  0.6746792889693154  1.0000
  C   C2        1.0  0.48829805204139387  0.4975049216173203  0.3324023562142814  1.0000
  C   C3        1.0  0.5102987556802531  0.4999251753106434  0.9559689638596112  1.0000
  C   C4        1.0  0.5062975476617666  0.4989390871146568  0.0519077547832012  1.0000
  C   C5        1.0  0.6013803332630802  0.9214946469456393  0.5374664626114978  1.0000
  C   C6        1.0  0.44454541677634307  0.0900511652601281  0.427394611710902  1.0000
  C   C7        1.0  0.6049261522977362  0.8217612607927973  0.5362678602133714  1.0000
  C   C8        1.0  0.445511567753627  0.19073084147883884  0.42612235874155147  1.0000
  C   C9        1.0  0.4090798276794843  0.7763059370411439  0.46871456598143624  1.0000
  C   C10       1.0  0.5411741844705418  0.2147637915592426  0.5649944176408468  1.0000
  C   C11       1.0  0.40075221073853845  0.8728149761359845  0.4654583952007059  1.0000
  C   C12       1.0  0.546557533886677  0.11760853477528602  0.569657371087203  1.0000
  C   C13       1.0  0.49936634805724384  0.9480160314917329  0.5012154680362286  1.0000
  C   C14       1.0  0.4959409371582523  0.0527588131788477  0.4992885761988006  1.0000
  C   C15       1.0  0.7345061861192335  0.5444533161636612  0.5083596639370498  1.0000
  C   C16       1.0  0.25516095166101144  0.45915183931976594  0.5062521059631777  1.0000
  C   C17       1.0  0.8699297804424192  0.5652078546882818  0.5151266586811829  1.0000
  C   C18       1.0  0.11942078864310451  0.43706596316891927  0.5095631553249902  1.0000
  C   C19       1.0  0.9285541281978739  0.49223749926380117  0.5116504370410979  1.0000
  C   C20       1.0  0.059980380592904226  0.5094415492917862  0.5130253195897723  1.0000
  C   C21       1.0  0.5438656738532472  0.4244204045588091  0.909814087808428  1.0000
  C   C22       1.0  0.5410780826385277  0.587155096359119  0.10168198254889661  1.0000
  C   C23       1.0  0.5435617504628212  0.4239766000138657  0.8191981661707501  1.0000
  C   C24       1.0  0.5348685035479903  0.5861106275431425  0.19194182444419283  1.0000
  C   C25       1.0  0.5103782235629167  0.4993195517269485  0.7721983271282938  1.0000
  C   C26       1.0  0.49373200399462297  0.4966967896598432  0.23536641455803686  1.0000
  C   C27       1.0  0.47882674928520436  0.575724759815749  0.8176824695469875  1.0000
  C   C28       1.0  0.4594741224318781  0.40841184823531046  0.1862672709773463  1.0000
  C   C29       1.0  0.4785316824980654  0.5758566961853759  0.9082636945611071  1.0000
  C   C30       1.0  0.465735097496939  0.4095978921836689  0.09593733210237332  1.0000
  N   N1        1.0  0.5086928734996903  0.7503098849889013  0.503431146215803  1.0000
  N   N2        1.0  0.4912099036754825  0.2513769468717512  0.4951117309606872  1.0000
  O   O1        1.0  0.5235215763934917  0.42100362593870955  0.6368414431141503  1.0000
  O   O2        1.0  0.516961568496704  0.5800732771269635  0.3723954655353269  1.0000
  O   O3        1.0  0.48624776238848716  0.5726720088452311  0.636306074340105  1.0000
  O   O4        1.0  0.4550778640373494  0.4142708031706732  0.3712384305383409  1.0000
  O   O5        1.0  0.6722698442308328  0.45777220824336234  0.488155129515583  1.0000
  O   O6        1.0  0.3127009472363937  0.5478156136258435  0.4898980388116811  1.0000
  O   O7        1.0  0.6867231373039644  0.6172392327898067  0.5228529871883438  1.0000
  O   O8        1.0  0.30363617158355544  0.38724553458551714  0.5194927105515106  1.0000
  O   O9        1.0  0.7062741814815895  0.79978456884335  0.5681260356621038  1.0000
  O   O10       1.0  0.4007471048143358  0.22517944202648008  0.3549087716735073  1.0000
