data_image0
_chemical_formula_structural       Ni2H24C20N8O12
_chemical_formula_sum              "Ni2 H24 C20 N8 O12"
_cell_length_a       7.382341297889441
_cell_length_b       8.474690940482137
_cell_length_c       11.059298835009901
_cell_angle_alpha    90.00000977374243
_cell_angle_beta     90.00013231352045
_cell_angle_gamma    110.45466525459834

_space_group_name_H-M_alt    "P 1"
_space_group_IT_number       1

loop_
  _space_group_symop_operation_xyz
  'x, y, z'

loop_
  _atom_site_type_symbol
  _atom_site_label
  _atom_site_symmetry_multiplicity
  _atom_site_fract_x
  _atom_site_fract_y
  _atom_site_fract_z
  _atom_site_occupancy
  Ni  Ni1       1.0  5.609554917589611e-07  0.5000017635364387  1.0064840836e-06  1.0000
  Ni  Ni2       1.0  1.792864736999999e-07  1.4949907765000002e-06  0.5000000526710338  1.0000
  H   H1        1.0  0.5147804631331213  0.4521534773584223  0.30034317438983754  1.0000
  H   H2        1.0  0.4852191768839163  0.047835800084541816  0.8003485494334512  1.0000
  H   H3        1.0  0.48521781405413844  0.547843728210701  0.6996578197944103  1.0000
  H   H4        1.0  0.5147842151723269  0.9521677532514236  0.1996497321062236  1.0000
  H   H5        1.0  0.12654737018205256  0.3537942041855546  0.241986566953365  1.0000
  H   H6        1.0  0.8734511995422737  0.14619999641747944  0.7419898009278326  1.0000
  H   H7        1.0  0.87345227176116  0.646203027468076  0.7580135230153644  1.0000
  H   H8        1.0  0.12655171544795246  0.8538022978002431  0.2580111932606215  1.0000
  H   H9        1.0  0.4507932801987736  0.7152435710604054  0.9878261897499881  1.0000
  H   H10       1.0  0.5492047975719885  0.7847581133106873  0.4878207933427987  1.0000
  H   H11       1.0  0.5492073823532807  0.2847599301084288  0.012177517086549  1.0000
  H   H12       1.0  0.4507953879024671  0.21524412873706217  0.5121802008437797  1.0000
  H   H13       1.0  0.6903951155046361  0.6627551763998555  0.1358817359475424  1.0000
  H   H14       1.0  0.3096099929212244  0.8372400522796043  0.6358815637307487  1.0000
  H   H15       1.0  0.30960732241572947  0.3372458586986796  0.8641201624567856  1.0000
  H   H16       1.0  0.6903901925493802  0.16276218976720003  0.364117622022917  1.0000
  H   H17       1.0  0.15463415295607064  0.5560077518821842  0.7897781367764979  1.0000
  H   H18       1.0  0.845368472148252  0.9439900780369613  0.2897759234891097  1.0000
  H   H19       1.0  0.8453696497260383  0.443993309302286  0.2102255700616809  1.0000
  H   H20       1.0  0.15463389930880575  0.05600720578616602  0.7102232622650391  1.0000
  H   H21       1.0  0.15576010974694302  0.7363032305229709  0.8449145812696913  1.0000
  H   H22       1.0  0.8442428171387139  0.7636984084453291  0.3449159095550769  1.0000
  H   H23       1.0  0.8442414404834724  0.26369903760929253  0.1550855087013687  1.0000
  H   H24       1.0  0.15575730188015777  0.23630008232890995  0.6550859888471479  1.0000
  C   C1        1.0  0.4413110783024693  0.49304049529886385  0.22898417819087774  1.0000
  C   C2        1.0  0.5586951474035761  0.0069525890699396065  0.728986924416681  1.0000
  C   C3        1.0  0.558688630104051  0.506960487630174  0.7710186244280237  1.0000
  C   C4        1.0  0.44130960941826924  0.9930509903528987  0.2710149739897574  1.0000
  C   C5        1.0  0.2494419574458036  0.4462469410594424  0.1984405096498421  1.0000
  C   C6        1.0  0.7505592223938821  0.05375101735693021  0.6984399207453933  1.0000
  C   C7        1.0  0.7505595263271022  0.5537515757988346  0.8015595803204079  1.0000
  C   C8        1.0  0.2494400753829141  0.9462524577226507  0.3015556481420987  1.0000
  C   C9        1.0  0.41237092396341524  0.6343061684683421  0.0665145744408022  1.0000
  C   C10       1.0  0.5876244015661243  0.8656925562062983  0.5665156985820801  1.0000
  C   C11       1.0  0.5876260549254014  0.3656947622902536  0.933487323959767  1.0000
  C   C12       1.0  0.412372643786  0.1343121258277122  0.4334889124686682  1.0000
  C   C13       1.0  0.9354508756308564  0.034240826517375894  0.0742440519236567  1.0000
  C   C14       1.0  0.06454834294657269  0.4657532244063916  0.5742481179672083  1.0000
  C   C15       1.0  0.06454733508346078  0.9657526277739595  0.925749708528123  1.0000
  C   C16       1.0  0.9354508883842884  0.5342464994020447  0.42575287621820485  1.0000
  C   C17       1.0  0.9712011408908557  0.8804124634577808  0.0375258276076096  1.0000
  C   C18       1.0  0.028802726542892374  0.6195876464727592  0.5375297031194037  1.0000
  C   C19       1.0  0.028795294451285307  0.11958345690290881  0.9624679328434596  1.0000
  C   C20       1.0  0.9712024408893857  0.38041344079479705  0.4624703868538944  1.0000
  N   N1        1.0  0.23279102043387218  0.535452477978133  0.09645665506207021  1.0000
  N   N2        1.0  0.7672103689814026  0.9645476415284052  0.5964544485568054  1.0000
  N   N3        1.0  0.7672091650425159  0.4645497640700997  0.9035452433409646  1.0000
  N   N4        1.0  0.23279070417721942  0.03545336748420171  0.40354564141367183  1.0000
  N   N5        1.0  0.5410856562293918  0.6117213406531337  0.1453189304880453  1.0000
  N   N6        1.0  0.4589126686786359  0.8882737674886274  0.6453162708417182  1.0000
  N   N7        1.0  0.458910845589557  0.38827833098628173  0.8546838721283976  1.0000
  N   N8        1.0  0.5410852643441402  0.11172968150692245  0.3546811064777415  1.0000
  O   O1        1.0  0.8564573298966284  0.07222608565243861  0.165947830185786  1.0000
  O   O2        1.0  0.14354459896796368  0.42777060568608505  0.6659537972384157  1.0000
  O   O3        1.0  0.1435445644809121  0.9277699390491351  0.8340477387019476  1.0000
  O   O4        1.0  0.8564578389562599  0.572230429413402  0.3340499095988251  1.0000
  O   O5        1.0  0.9329008539530722  0.7377365501991805  0.0854836046171243  1.0000
  O   O6        1.0  0.06710267463203219  0.762258599589572  0.5854884951268247  1.0000
  O   O7        1.0  0.0670941501755991  0.26225559280300814  0.9145110600486532  1.0000
  O   O8        1.0  0.9328992862107414  0.23774117638789255  0.4145106906275516  1.0000
  O   O9        1.0  0.1703724495246774  0.6253974179433612  0.8648896143177254  1.0000
  O   O10       1.0  0.8296291313949526  0.8746004645958296  0.3648900637541672  1.0000
  O   O11       1.0  0.8296295113238873  0.37460235803552433  0.1351122840860199  1.0000
  O   O12       1.0  0.17037105407372632  0.12540177745049874  0.6351082177830422  1.0000
