data_image0
_chemical_formula_structural       Cd6H42C78N6O24
_chemical_formula_sum              "Cd6 H42 C78 N6 O24"
_cell_length_a       7.798931785722261
_cell_length_b       17.37606932852162
_cell_length_c       17.38532106283117
_cell_angle_alpha    117.81774357965818
_cell_angle_beta     98.6181955200867
_cell_angle_gamma    98.58701658719346

_space_group_name_H-M_alt    "P 1"
_space_group_IT_number       1

loop_
  _space_group_symop_operation_xyz
  'x, y, z'

loop_
  _atom_site_type_symbol
  _atom_site_label
  _atom_site_symmetry_multiplicity
  _atom_site_fract_x
  _atom_site_fract_y
  _atom_site_fract_z
  _atom_site_occupancy
  Cd  Cd1       1.0  0.494484829688666  0.7555909231763706  0.09539367407364086  1.0000
  Cd  Cd2       1.0  0.7390247687862088  0.3395425847337775  0.24440214936181792  1.0000
  Cd  Cd3       1.0  0.3993942457305621  0.9045636670706259  0.6601961709870992  1.0000
  Cd  Cd4       1.0  0.5055159148125128  0.24440762292491056  0.9046056312799916  1.0000
  Cd  Cd5       1.0  0.2609740540285158  0.6604573058141837  0.7555976606349473  1.0000
  Cd  Cd6       1.0  0.6006068194616674  0.09543555117836888  0.33980231903591107  1.0000
  H   H1        1.0  0.9543528632628127  0.8636204857631211  0.18061301117476336  1.0000
  H   H2        1.0  0.09108075120501977  0.31685613587283257  0.1364456540868345  1.0000
  H   H3        1.0  0.7742188539349399  0.8194042615741493  0.6829917605016858  1.0000
  H   H4        1.0  0.04565180350531509  0.13638074889135507  0.8193866546221427  1.0000
  H   H5        1.0  0.9089179863021644  0.6831410658836956  0.8635500168030742  1.0000
  H   H6        1.0  0.22578164112581334  0.18059898981461936  0.31700915420508835  1.0000
  H   H7        1.0  0.22066567228882403  0.7536228407795986  0.3248978702395389  1.0000
  H   H8        1.0  0.4673852332483505  0.5711831554406925  0.24621585007681532  1.0000
  H   H9        1.0  0.8955883015256987  0.6749624821086042  0.42861219076315366  1.0000
  H   H10       1.0  0.779337025702411  0.24637704958691836  0.675101039628714  1.0000
  H   H11       1.0  0.5326158701609671  0.4288160628650885  0.7537855184812583  1.0000
  H   H12       1.0  0.10440792764679672  0.3250374085451638  0.5713874517099312  1.0000
  H   H13       1.0  0.028066398653976327  0.7985688502970304  0.43057238153867416  1.0000
  H   H14       1.0  0.2297999937374442  0.6319698890467575  0.2012820550868496  1.0000
  H   H15       1.0  0.5972409981605153  0.569339061001905  0.367880010845674  1.0000
  H   H16       1.0  0.9719339945824718  0.20142902361109796  0.5694254363175232  1.0000
  H   H17       1.0  0.7701985936937564  0.3680320181449161  0.7987227093473874  1.0000
  H   H18       1.0  0.4027526844601894  0.4306635184923238  0.6321207246755163  1.0000
  H   H19       1.0  0.35376641560647204  0.8524538007622479  0.46820056649607245  1.0000
  H   H20       1.0  0.5016071811583843  0.6157148481213709  0.14744791718892702  1.0000
  H   H21       1.0  0.8854756498492693  0.5314856655911341  0.3842940006823311  1.0000
  H   H22       1.0  0.6462346737459443  0.14754810618730824  0.5317974569776778  1.0000
  H   H23       1.0  0.49838575825591386  0.3842810095967834  0.8525513521429244  1.0000
  H   H24       1.0  0.11452087585409021  0.46851220850979286  0.6157052930093909  1.0000
  H   H25       1.0  0.5056246533237712  0.82112543758506  0.3440874098011974  1.0000
  H   H26       1.0  0.6850608778718764  0.5229895762957993  0.1788410090858433  1.0000
  H   H27       1.0  0.16146499900057867  0.6557311063773806  0.47701640141128343  1.0000
  H   H28       1.0  0.49437903731428895  0.1788764692700368  0.655911356903246  1.0000
  H   H29       1.0  0.31493465518465064  0.4770062813165408  0.8211584277696884  1.0000
  H   H30       1.0  0.8385283158386303  0.34426811223448794  0.5229838888687368  1.0000
  H   H31       1.0  0.008672114967950402  0.9495700479520506  0.5473200441090424  1.0000
  H   H32       1.0  0.059289599613585174  0.5977588141586025  0.05034498401801088  1.0000
  H   H33       1.0  0.4615712453992061  0.45253508674380766  0.40199531213069406  1.0000
  H   H34       1.0  0.9913299187109248  0.05042849808496189  0.4526787692994105  1.0000
  H   H35       1.0  0.9407105353090871  0.40224107635916073  0.94965606115462  1.0000
  H   H36       1.0  0.5384292420181254  0.5474681646335993  0.5980050268690744  1.0000
  H   H37       1.0  0.8369941382255773  0.9726530070935053  0.6615267736135659  1.0000
  H   H38       1.0  0.8643774531994243  0.6889120807899757  0.027287218980532647  1.0000
  H   H39       1.0  0.17568227437931225  0.3382280050401149  0.3109086383487919  1.0000
  H   H40       1.0  0.16301022313832902  0.027347555435973392  0.3384748589279879  1.0000
  H   H41       1.0  0.13562011101127072  0.3110878098676793  0.9727153857894562  1.0000
  H   H42       1.0  0.8243204936326196  0.6617745740951193  0.6890932592122924  1.0000
  C   C1        1.0  0.8763000301285475  0.8557852278804459  0.36561193147539917  1.0000
  C   C2        1.0  0.020903932677555203  0.5097527539067882  0.14409434087322365  1.0000
  C   C3        1.0  0.5107482448877079  0.6342997368378674  0.4901235026218485  1.0000
  C   C4        1.0  0.12370009715071008  0.14421466262596275  0.6343885379902119  1.0000
  C   C5        1.0  0.9790955455761722  0.490245792292832  0.8559071835466197  1.0000
  C   C6        1.0  0.4892486638839771  0.3657014981681284  0.509877387725062  1.0000
  C   C7        1.0  0.8514730367969747  0.8701579437103175  0.2913513561772873  1.0000
  C   C8        1.0  0.9817249417998897  0.4211088938487818  0.1297935048055763  1.0000
  C   C9        1.0  0.560492612501811  0.708593232608713  0.5787916132659345  1.0000
  C   C10       1.0  0.1485300277458137  0.12984261887206827  0.7086501926024267  1.0000
  C   C11       1.0  0.018276810634951256  0.5788916687637949  0.8702068087982722  1.0000
  C   C12       1.0  0.4395046246043466  0.29140867455635805  0.42120903745736615  1.0000
  C   C13       1.0  0.9678140409895664  0.8479149110931413  0.23471807496776598  1.0000
  C   C14       1.0  0.12026316140784127  0.38668037796199417  0.15208103273743484  1.0000
  C   C15       1.0  0.7335126964708324  0.765238458499837  0.6131709571077051  1.0000
  C   C16       1.0  0.0321890082663927  0.1520856514665283  0.7652823223979224  1.0000
  C   C17       1.0  0.8797352554082993  0.6133161516468206  0.8479154534830965  1.0000
  C   C18       1.0  0.2664855014785488  0.23476277644189025  0.3868294412940259  1.0000
  C   C19       1.0  0.1056598073964635  0.8090317184751611  0.24794326746693668  1.0000
  C   C20       1.0  0.2970018068590718  0.4387990929996661  0.19093443714815803  1.0000
  C   C21       1.0  0.8580137251590899  0.7519687465609973  0.5610310794300586  1.0000
  C   C22       1.0  0.8943432189292368  0.19096884405043107  0.7520554027777138  1.0000
  C   C23       1.0  0.7029986334678217  0.5612014696430948  0.8090646412798249  1.0000
  C   C24       1.0  0.1419854412769439  0.24803181616874778  0.43896964235712227  1.0000
  C   C25       1.0  0.11988871200639287  0.7880558620399821  0.31665685879757866  1.0000
  C   C26       1.0  0.3321876101635226  0.5285048621737686  0.21179675391999095  1.0000
  C   C27       1.0  0.8031803568087527  0.6832269600222248  0.47131867675567907  1.0000
  C   C28       1.0  0.8801143296061442  0.211944700508333  0.68334296286109  1.0000
  C   C29       1.0  0.66781409518088  0.4714930117041689  0.7882022991120718  1.0000
  C   C30       1.0  0.19681620069820843  0.3167736027906258  0.5286807260937961  1.0000
  C   C31       1.0  0.009222928941525743  0.812403283707674  0.3752346551763067  1.0000
  C   C32       1.0  0.19717784281421297  0.5627554931066853  0.18742493425555287  1.0000
  C   C33       1.0  0.6338557799076342  0.624678646133475  0.43708007792715614  1.0000
  C   C34       1.0  0.9907784645851767  0.18759660670039568  0.6247635952230934  1.0000
  C   C35       1.0  0.8028226357297685  0.43724506959287607  0.8125770227074935  1.0000
  C   C36       1.0  0.3661420897072745  0.37532191664917747  0.5629205600981918  1.0000
  C   C37       1.0  0.7201299431478461  0.9192180106228846  0.275355393490848  1.0000
  C   C38       1.0  0.8012464977399038  0.35611120429214077  0.08078250807935915  1.0000
  C   C39       1.0  0.445304955358047  0.7246584025405552  0.6438869565006156  1.0000
  C   C40       1.0  0.27987309082126904  0.08078255191406916  0.724643852460808  1.0000
  C   C41       1.0  0.198753270631208  0.6438880140097537  0.9192158981818107  1.0000
  C   C42       1.0  0.5546942428815955  0.2753448489011133  0.3561138744443254  1.0000
  C   C43       1.0  0.23712042758850763  0.7914637063254373  0.1907489029186633  1.0000
  C   C44       1.0  0.4459974754676209  0.399146116187971  0.20857993714641748  1.0000
  C   C45       1.0  0.04677076762111196  0.8091072268332127  0.6006122919055981  1.0000
  C   C46       1.0  0.762883582510675  0.2085361840108888  0.8092512421254552  1.0000
  C   C47       1.0  0.553997066172002  0.6008504136022734  0.791417449202626  1.0000
  C   C48       1.0  0.9532290160368365  0.19089199149140504  0.3993872657695973  1.0000
  C   C49       1.0  0.49905019510388354  0.8726885899727318  0.48249776289193835  1.0000
  C   C50       1.0  0.6266686567586887  0.6097980403773277  0.1272192010968211  1.0000
  C   C51       1.0  0.016505914234109208  0.5172318770077026  0.3902092753449009  1.0000
  C   C52       1.0  0.5009544563774073  0.1273126446590211  0.5175007514909352  1.0000
  C   C53       1.0  0.3733262514325019  0.3901991616287858  0.8727808241636761  1.0000
  C   C54       1.0  0.9834925726027208  0.482767341369815  0.6097901985684615  1.0000
  C   C55       1.0  0.5844159083156271  0.8561426501226844  0.41374489575639456  1.0000
  C   C56       1.0  0.7287186985515746  0.5576109035522945  0.14380249759157226  1.0000
  C   C57       1.0  0.17063976276235582  0.5860547590184096  0.4423673285357877  1.0000
  C   C58       1.0  0.4155874539879676  0.14385858457333706  0.5862541105716585  1.0000
  C   C59       1.0  0.2712788109252672  0.4423862983593664  0.8561982708996253  1.0000
  C   C60       1.0  0.8293542163892128  0.41394580392297087  0.5576330582040396  1.0000
  C   C61       1.0  0.7720695819381762  0.8816086963431996  0.4348069233477927  1.0000
  C   C62       1.0  0.8908315923850909  0.5531550870024518  0.11827765335653602  1.0000
  C   C63       1.0  0.33731938359262165  0.5650409296389824  0.44673292295215106  1.0000
  C   C64       1.0  0.22793279536200126  0.11839052187559668  0.565192801851083  1.0000
  C   C65       1.0  0.10916691738199796  0.4468441314091506  0.8817235476778646  1.0000
  C   C66       1.0  0.662677509892234  0.43496030534429037  0.5532668159807342  1.0000
  C   C67       1.0  0.8629357280936389  0.9269229304756049  0.5260978770501479  1.0000
  C   C68       1.0  0.936217395819881  0.5991742520047437  0.0729973956965892  1.0000
  C   C69       1.0  0.3370040136510895  0.4737374305742818  0.4006567383606308  1.0000
  C   C70       1.0  0.1370679613144858  0.07307628771300757  0.47390308332459324  1.0000
  C   C71       1.0  0.06378016074739885  0.40082563864155657  0.9270046333663867  1.0000
  C   C72       1.0  0.6629948638974952  0.5262651487196733  0.5993449079149258  1.0000
  C   C73       1.0  0.7671291530194041  0.9405405497622465  0.5908238424927245  1.0000
  C   C74       1.0  0.8267249128969427  0.650312493079923  0.059388603230573316  1.0000
  C   C75       1.0  0.17645592770882249  0.4089438739891803  0.34957477665027875  1.0000
  C   C76       1.0  0.23287258412860729  0.0594600128276142  0.4091753196970912  1.0000
  C   C77       1.0  0.17327167518369177  0.3496880697783523  0.940613102446953  1.0000
  C   C78       1.0  0.8235432387272044  0.5910566887405649  0.6504259451369021  1.0000
  N   N1        1.0  0.5875264290057063  0.9123626007757863  0.5698275343958626  1.0000
  N   N2        1.0  0.6752763850041108  0.6574572969474629  0.08753310438744673  1.0000
  N   N3        1.0  0.017750178590787827  0.42988068434964055  0.3424988181215553  1.0000
  N   N4        1.0  0.41247823776242143  0.08763863387869007  0.43017213140104354  1.0000
  N   N5        1.0  0.324721124472731  0.3425399049641981  0.9124676641037437  1.0000
  N   N6        1.0  0.9822496050671604  0.5701185339749768  0.65750073955364  1.0000
  O   O1        1.0  0.6977997566849725  0.983951087145506  0.345237072088423  1.0000
  O   O2        1.0  0.7142768296138373  0.36125772931961814  0.016042252223733948  1.0000
  O   O3        1.0  0.3529729519199308  0.654783257180135  0.6386930063681929  1.0000
  O   O4        1.0  0.3022016444851447  0.016048803273925195  0.654761754017997  1.0000
  O   O5        1.0  0.28572551711266664  0.6387414888537463  0.9839551701470908  1.0000
  O   O6        1.0  0.6470224182336397  0.34522268317761007  0.3613099852770388  1.0000
  O   O7        1.0  0.6461947934767737  0.8984236629882574  0.1952464393192841  1.0000
  O   O8        1.0  0.7479526590682966  0.29687417360210583  0.10165627193026679  1.0000
  O   O9        1.0  0.4516714878193042  0.8048306526433462  0.7032497747095333  1.0000
  O   O10       1.0  0.35380790451445426  0.10157622737826698  0.8047524705489691  1.0000
  O   O11       1.0  0.2520435548173621  0.7031257170289461  0.8983422191287854  1.0000
  O   O12       1.0  0.5483361709462216  0.19517394283310807  0.2967528066802672  1.0000
  O   O13       1.0  0.22707165121552453  0.8143189853680679  0.1313805348713117  1.0000
  O   O14       1.0  0.4130390950020484  0.31688727191028204  0.18580868115099478  1.0000
  O   O15       1.0  0.096264444659205  0.8685690001717885  0.6828392992756346  1.0000
  O   O16       1.0  0.7729333197268817  0.18568023274492157  0.8686193578512442  1.0000
  O   O17       1.0  0.5869574154144742  0.6831106021679287  0.8141894611266947  1.0000
  O   O18       1.0  0.9037366358198614  0.13143021809992206  0.31716034216140787  1.0000
  O   O19       1.0  0.3581266826264198  0.753425755552733  0.20586367263192054  1.0000
  O   O20       1.0  0.6049911487431034  0.45229130462725203  0.24659207448397066  1.0000
  O   O21       1.0  0.15254056283998801  0.7938943449113294  0.5474554758810581  1.0000
  O   O22       1.0  0.6418714605891013  0.24657279064300033  0.7941348894910192  1.0000
  O   O23       1.0  0.3950076587847846  0.547708585897986  0.753406584098769  1.0000
  O   O24       1.0  0.8474598686135478  0.20610352905358542  0.4525452205102026  1.0000
