data_image0
_chemical_formula_structural       Ag2H18C14N6O4
_chemical_formula_sum              "Ag2 H18 C14 N6 O4"
_cell_length_a       7.2396530284153
_cell_length_b       6.82643641562485
_cell_length_c       10.07021008004509
_cell_angle_alpha    84.98436573312442
_cell_angle_beta     104.92222904890836
_cell_angle_gamma    112.2092095727378

_space_group_name_H-M_alt    "P 1"
_space_group_IT_number       1

loop_
  _space_group_symop_operation_xyz
  'x, y, z'

loop_
  _atom_site_type_symbol
  _atom_site_label
  _atom_site_symmetry_multiplicity
  _atom_site_fract_x
  _atom_site_fract_y
  _atom_site_fract_z
  _atom_site_occupancy
  Ag  Ag1       1.0  0.8620028610419437  0.7823242838445804  0.9841994443609394  1.0000
  Ag  Ag2       1.0  0.13799044903603888  0.2176599756067787  0.01579894559336029  1.0000
  H   H1        1.0  0.7471791005443432  0.7093601282410088  0.2394434668162475  1.0000
  H   H2        1.0  0.2528210867747021  0.2906307160649959  0.760563218217591  1.0000
  H   H3        1.0  0.5276794567488209  0.6119468701456015  0.307388920164577  1.0000
  H   H4        1.0  0.4723174247535765  0.38804989814611446  0.6926111369670735  1.0000
  H   H5        1.0  0.47970736796328584  0.8036938470606713  0.7845020011284802  1.0000
  H   H6        1.0  0.5202937121103444  0.19629544535893476  0.2154938828392403  1.0000
  H   H7        1.0  0.2109384615597421  0.6680431416310882  0.1929085361910765  1.0000
  H   H8        1.0  0.7890650769428476  0.3319595481357497  0.8070937885861368  1.0000
  H   H9        1.0  0.12080562320426223  0.7940567743343223  0.7754361660710671  1.0000
  H   H10       1.0  0.8791939186721575  0.20593228821196868  0.22456141834434354  1.0000
  H   H11       1.0  0.5190260094652929  0.23155651892421508  0.5003565154419576  1.0000
  H   H12       1.0  0.4809591038404477  0.7684466708279629  0.4996452659088959  1.0000
  H   H13       1.0  0.4967405385247686  0.0591379045174136  0.6424527978440366  1.0000
  H   H14       1.0  0.5032480671957913  0.9408739104734424  0.35754465443231  1.0000
  H   H15       1.0  0.14995555979132988  0.8183286072092454  0.5069427861763245  1.0000
  H   H16       1.0  0.8500322852245644  0.18168858655771195  0.4930614969846658  1.0000
  H   H17       1.0  0.16233260869025656  0.07836785493823581  0.5302028068606646  1.0000
  H   H18       1.0  0.8376599131389781  0.9216429246248197  0.46979040988752263  1.0000
  C   C1        1.0  0.41786394998700155  0.77453697114872  0.8753581914880542  1.0000
  C   C2        1.0  0.5821461012686697  0.2254533022220713  0.12464041047638828  1.0000
  C   C3        1.0  0.2703184674162813  0.695048493828743  0.10107353165632563  1.0000
  C   C4        1.0  0.7296834538795166  0.3049500824631011  0.8989244973167204  1.0000
  C   C5        1.0  0.47099364341958955  0.6992637514493083  0.10763144852234767  1.0000
  C   C6        1.0  0.5290082778762083  0.30073482484252867  0.8923665804506982  1.0000
  C   C7        1.0  0.22249934396958798  0.7682069931182128  0.8696275076698257  1.0000
  C   C8        1.0  0.7775055155721232  0.23178096053982242  0.13036611026941367  1.0000
  C   C9        1.0  0.1488143156525155  0.009040899173136593  0.3239825741831481  1.0000
  C   C10       1.0  0.8511905453971095  0.9909578335315528  0.6760140233942026  1.0000
  C   C11       1.0  0.453625277871879  0.06430674522379583  0.5295060387702363  1.0000
  C   C12       1.0  0.5463692909565907  0.9357057426385111  0.47049654764836657  1.0000
  C   C13       1.0  0.22019504165157855  0.9851793992945871  0.47964616612751604  1.0000
  C   C14       1.0  0.7798004352114416  0.014831745060185121  0.5203546009084619  1.0000
  N   N1        1.0  0.5893622916536073  0.6598572826090104  0.22517083882796377  1.0000
  N   N2        1.0  0.41064096287849583  0.34014106855548215  0.7748284439469089  1.0000
  N   N3        1.0  0.5445646669856926  0.7455731842663269  0.992816172992498  1.0000
  N   N4        1.0  0.4554394318513459  0.25442014816781017  0.007184275831384908  1.0000
  N   N5        1.0  0.15237433730037964  0.7336905498365666  0.9851489071084245  1.0000
  N   N6        1.0  0.8476269538327583  0.26630645307442785  0.014849002929679481  1.0000
  O   O1        1.0  0.010696567386304446  0.848027024621473  0.25527097397817766  1.0000
  O   O2        1.0  0.9893040267717835  0.15197903228844464  0.744730781512942  1.0000
  O   O3        1.0  0.2335366596703565  0.1885504116768217  0.27421216085190997  1.0000
  O   O4        1.0  0.7664775202614036  0.8114573158042191  0.725787211292868  1.0000
