data_image0
_chemical_formula_structural       Zn4H48C44S4N16O16
_chemical_formula_sum              "Zn4 H48 C44 S4 N16 O16"
_cell_length_a       9.39812176645575
_cell_length_b       12.751935378757405
_cell_length_c       13.235189405109328
_cell_angle_alpha    89.99967628273731
_cell_angle_beta     90.00041985483433
_cell_angle_gamma    107.79792933530037

_space_group_name_H-M_alt    "P 1"
_space_group_IT_number       1

loop_
  _space_group_symop_operation_xyz
  'x, y, z'

loop_
  _atom_site_type_symbol
  _atom_site_label
  _atom_site_symmetry_multiplicity
  _atom_site_fract_x
  _atom_site_fract_y
  _atom_site_fract_z
  _atom_site_occupancy
  Zn  Zn1       1.0  0.7379473505524672  0.3392439804873462  0.3023472639417051  1.0000
  Zn  Zn2       1.0  0.2620495394082952  0.16075157921921604  0.8023461506858923  1.0000
  Zn  Zn3       1.0  0.262053061097511  0.6607581166501363  0.6976534276191302  1.0000
  Zn  Zn4       1.0  0.7379509628798501  0.8392455790615398  0.19765454088862813  1.0000
  H   H1        1.0  0.1332228951346295  0.8795882008951779  0.613883387819918  1.0000
  H   H2        1.0  0.8667798608316346  0.6204067671453757  0.1138871218818807  1.0000
  H   H3        1.0  0.8667829302653658  0.12040896441499882  0.3861157926454339  1.0000
  H   H4        1.0  0.1332220005358308  0.3795936855772978  0.886115080810292  1.0000
  H   H5        1.0  0.2549563291440791  0.009196605214249602  0.6528020283395365  1.0000
  H   H6        1.0  0.7450449304651984  0.49080037037545293  0.1528076422802584  1.0000
  H   H7        1.0  0.7450477067767592  0.9908013808965564  0.3471971521189019  1.0000
  H   H8        1.0  0.2549579502068724  0.5092025531808773  0.8471945604078499  1.0000
  H   H9        1.0  0.7998432671448159  0.9517589168567827  0.6377659671950726  1.0000
  H   H10       1.0  0.20015935558948428  0.548235134106079  0.1377696315193262  1.0000
  H   H11       1.0  0.2001635775597705  0.04824071928704401  0.3622332132662152  1.0000
  H   H12       1.0  0.7998425511003333  0.45176284918674975  0.8622333267412259  1.0000
  H   H13       1.0  0.6516664307794713  0.7907528966415712  0.5498065668142189  1.0000
  H   H14       1.0  0.34833044791173506  0.7092423151520889  0.049805595597796105  1.0000
  H   H15       1.0  0.34833325602483  0.20925002269740384  0.45019639142708473  1.0000
  H   H16       1.0  0.65167009967589  0.2907523737091751  0.950190562614374  1.0000
  H   H17       1.0  0.5253820373857323  0.6383432999292964  0.43736549545065634  1.0000
  H   H18       1.0  0.4746106952394199  0.8616528547050348  0.9373666660712274  1.0000
  H   H19       1.0  0.4746137759850056  0.36165796798319144  0.562631418292753  1.0000
  H   H20       1.0  0.5253950848480217  0.13834678003054535  0.0626340255103486  1.0000
  H   H21       1.0  0.5265516456692154  0.4695283508895259  0.34115728589515026  1.0000
  H   H22       1.0  0.4734388524116682  0.030466224886993097  0.8411564761546161  1.0000
  H   H23       1.0  0.4734438279333304  0.5304720934117525  0.6588396278496162  1.0000
  H   H24       1.0  0.5265609250079352  0.9695317556056084  0.1588411931696356  1.0000
  H   H25       1.0  0.9717280377984849  0.5161495765432846  0.40819400853181526  1.0000
  H   H26       1.0  0.028261588455464434  0.9838475116486053  0.9081967136261965  1.0000
  H   H27       1.0  0.02826666563603201  0.4838541593893241  0.5918044163250401  1.0000
  H   H28       1.0  0.9717385740644815  0.0161488230209343  0.0918039779496809  1.0000
  H   H29       1.0  0.9865154837704821  0.6817134961182276  0.5149801301161433  1.0000
  H   H30       1.0  0.013479009832707368  0.8182793797241317  0.014983614597355201  1.0000
  H   H31       1.0  0.013477181061375632  0.31828529814411166  0.48501980587190735  1.0000
  H   H32       1.0  0.9865254111819441  0.1817169605665754  0.9850170769896354  1.0000
  H   H33       1.0  0.2747938843620332  0.2095420145694646  0.18001419415985254  1.0000
  H   H34       1.0  0.7252018570479635  0.29045896274445937  0.6800185736762644  1.0000
  H   H35       1.0  0.72520895097788  0.7904633784211371  0.8199849862752799  1.0000
  H   H36       1.0  0.27479748997180303  0.7095431329906887  0.3199806067587261  1.0000
  H   H37       1.0  0.269329538147602  0.33529832299404205  0.2327142544012375  1.0000
  H   H38       1.0  0.7306733865291052  0.1647032801135921  0.7327201029050698  1.0000
  H   H39       1.0  0.730666615001141  0.6647037685252358  0.7672849260254184  1.0000
  H   H40       1.0  0.26933298245329956  0.8353029407026257  0.2672798330985771  1.0000
  H   H41       1.0  0.15253116878762543  0.3318921528204087  0.0705039639165577  1.0000
  H   H42       1.0  0.8474686089304911  0.16810843648574553  0.5705088933505992  1.0000
  H   H43       1.0  0.847464644592911  0.6681091150876525  0.9294952165114552  1.0000
  H   H44       1.0  0.15253538167780084  0.8318920190504713  0.42949179822406347  1.0000
  H   H45       1.0  0.33715576921742507  0.4223973242864075  0.0554360364203816  1.0000
  H   H46       1.0  0.662843878191218  0.0776033239903455  0.5554404935301492  1.0000
  H   H47       1.0  0.662843962886356  0.5776031256330754  0.9445623884585642  1.0000
  H   H48       1.0  0.3371575980857031  0.922398774550949  0.4445609535950013  1.0000
  C   C1        1.0  0.0296569074002591  0.9929589675348184  0.6557975844664625  1.0000
  C   C2        1.0  0.9703430171870197  0.5070358322467357  0.1558054995911604  1.0000
  C   C3        1.0  0.9703471285107812  0.007039018580428502  0.34419932930737923  1.0000
  C   C4        1.0  0.029659523726650098  0.4929662676939444  0.8441989697829015  1.0000
  C   C5        1.0  0.7577343782501273  0.7721997214695406  0.5402875748301385  1.0000
  C   C6        1.0  0.24226037950228377  0.7277905859144768  0.0402844369512039  1.0000
  C   C7        1.0  0.2422632246095731  0.22780072563788425  0.4597116056047811  1.0000
  C   C8        1.0  0.7577401680886098  0.27220410294530945  0.9597124768224959  1.0000
  C   C9        1.0  0.7562915466292495  0.6737904704055567  0.48360032385961926  1.0000
  C   C10       1.0  0.243700226750974  0.8262022088447198  0.9835989692342367  1.0000
  C   C11       1.0  0.24370005358220242  0.32620832245001463  0.5164003676871829  1.0000
  C   C12       1.0  0.7563024047779834  0.1737949522495796  0.0164002112227806  1.0000
  C   C13       1.0  0.6257154930440905  0.6128070631707345  0.4335351302750966  1.0000
  C   C14       1.0  0.37427580206132666  0.88718828143886  0.933535637297844  1.0000
  C   C15       1.0  0.37427785131109914  0.38719337831995665  0.5664617834641064  1.0000
  C   C16       1.0  0.625727894081514  0.11280888106516333  0.06646127647734801  1.0000
  C   C17       1.0  0.626530206278133  0.5198056733954176  0.3794553133319667  1.0000
  C   C18       1.0  0.37345960184477184  0.9801874120247618  0.8794568207552163  1.0000
  C   C19       1.0  0.37346807610162364  0.48019642094183723  0.6205400892925825  1.0000
  C   C20       1.0  0.6265384767305661  0.019806450413227605  0.1205400930142773  1.0000
  C   C21       1.0  0.8751728650950953  0.5456213904267102  0.4182373553555365  1.0000
  C   C22       1.0  0.12482076675289722  0.9543748404638562  0.9182429924234796  1.0000
  C   C23       1.0  0.12482686701195433  0.454379059491295  0.5817618250849463  1.0000
  C   C24       1.0  0.8751786709213716  0.045622316407175796  0.08175996583285891  1.0000
  C   C25       1.0  0.8835299955079066  0.6378561681682484  0.4757958036599136  1.0000
  C   C26       1.0  0.11646243523712489  0.8621357194185109  0.9757950992834594  1.0000
  C   C27       1.0  0.11646339417943351  0.3621418038881643  0.5242041323322653  1.0000
  C   C28       1.0  0.8835398565269087  0.13786061806309394  0.0242048367364447  1.0000
  C   C29       1.0  0.4858952404568413  0.3369103914255902  0.1874090798820021  1.0000
  C   C30       1.0  0.5141016748418465  0.16308808892699742  0.6874122938547418  1.0000
  C   C31       1.0  0.5141029966103687  0.6630941723370611  0.8125878338587711  1.0000
  C   C32       1.0  0.4858955882594529  0.8369115345647701  0.31258915326613856  1.0000
  C   C33       1.0  0.3178099736110909  0.299324373956715  0.1707818557585696  1.0000
  C   C34       1.0  0.6821902862249587  0.20067746871917794  0.6707872548984142  1.0000
  C   C35       1.0  0.682190052941806  0.7006793690023444  0.8292165691121768  1.0000
  C   C36       1.0  0.3178094005728127  0.799325450622753  0.3292141922198226  1.0000
  C   C37       1.0  0.27097242699897356  0.33604577341445474  0.06988319062476481  1.0000
  C   C38       1.0  0.7290259409595093  0.16395399330432528  0.569888279041777  1.0000
  C   C39       1.0  0.7290255156289193  0.6639554973041798  0.9301159898087975  1.0000
  C   C40       1.0  0.2709755806430252  0.8360456358056538  0.4301146792132755  1.0000
  C   C41       1.0  0.3004449978091017  0.269222317154302  0.9821492004527386  1.0000
  C   C42       1.0  0.6995543757728341  0.2307799485592028  0.4821544814858925  1.0000
  C   C43       1.0  0.699551925520737  0.7307764827277267  0.0178514911079617  1.0000
  C   C44       1.0  0.300447100504087  0.7692221499820987  0.5178469656392508  1.0000
  S   S1        1.0  0.035750511750244095  0.1156145489650555  0.7111645162215653  1.0000
  S   S2        1.0  0.9642470394129178  0.3843797231634554  0.21117261123276881  1.0000
  S   S3        1.0  0.9642531843991266  0.8843826135360119  0.2888339086766933  1.0000
  S   S4        1.0  0.03575230762972124  0.6156223725613401  0.7888318581329585  1.0000
  N   N1        1.0  0.14569798821281657  0.9581302248349315  0.640111014072076  1.0000
  N   N2        1.0  0.8543000112278706  0.5418654571425635  0.140116621747417  1.0000
  N   N3        1.0  0.8543039184606653  0.041867758465294  0.3598881663808058  1.0000
  N   N4        1.0  0.14570286944419308  0.458137466413767  0.8598855809406842  1.0000
  N   N5        1.0  0.8916037246739421  0.9261866856797527  0.6254120900513627  1.0000
  N   N6        1.0  0.10839555204104555  0.5738098788403788  0.1254174020709513  1.0000
  N   N7        1.0  0.10839992615634492  0.0738129462496815  0.3745863348400534  1.0000
  N   N8        1.0  0.8916059695680258  0.4261897502666442  0.8745870673071751  1.0000
  N   N9        1.0  0.8845764539969069  0.8335799342558519  0.5745819216897985  1.0000
  N   N10       1.0  0.11542349307300978  0.66641436117348  0.0745852550155064  1.0000
  N   N11       1.0  0.1154254526798439  0.1664180490428961  0.42541801432462023  1.0000
  N   N12       1.0  0.8845773036740568  0.3335860901424255  0.9254177032354178  1.0000
  N   N13       1.0  0.7485350595776764  0.48643108528507645  0.3711256572164956  1.0000
  N   N14       1.0  0.25145395352131317  0.013561724574515198  0.8711275568302738  1.0000
  N   N15       1.0  0.25146399299624994  0.5135677174090105  0.6288742787882243  1.0000
  N   N16       1.0  0.7485436946640006  0.9864362531015872  0.1288731347345617  1.0000
  O   O1        1.0  0.5363594178313562  0.27544218114393704  0.2464595352351182  1.0000
  O   O2        1.0  0.46364018271582813  0.2245536014854252  0.7464659284664847  1.0000
  O   O3        1.0  0.4636363502333722  0.7245615561910055  0.7535404007475819  1.0000
  O   O4        1.0  0.5363620637519873  0.7754452054141864  0.2535392964773067  1.0000
  O   O5        1.0  0.5636318249793675  0.426233216417181  0.149211626549743  1.0000
  O   O6        1.0  0.4363700377841297  0.07376788988069902  0.6492141650020146  1.0000
  O   O7        1.0  0.43636815623811026  0.5737729959776416  0.8507830205064976  1.0000
  O   O8        1.0  0.5636296943392552  0.9262325600299165  0.3507887932461315  1.0000
  O   O9        1.0  0.3998267346243978  0.22339878508643812  0.9868718445862186  1.0000
  O   O10       1.0  0.6001726797956336  0.27660346214608467  0.4868763565184864  1.0000
  O   O11       1.0  0.6001674252473066  0.776595895331255  0.013130358101541601  1.0000
  O   O12       1.0  0.3998266672208644  0.7233986335905412  0.5131220683549742  1.0000
  O   O13       1.0  0.21462212330590802  0.2622069679664065  0.9028913459400769  1.0000
  O   O14       1.0  0.7853740958305478  0.2377947815116173  0.4028947707495121  1.0000
  O   O15       1.0  0.7853776088044101  0.7377934819501206  0.0971085900619357  1.0000
  O   O16       1.0  0.21462597604143233  0.7622064920190821  0.5971036541280768  1.0000
