data_image0
_chemical_formula_structural       Cu8H144C136N16O40
_chemical_formula_sum              "Cu8 H144 C136 N16 O40"
_cell_length_a       10.178025594041399
_cell_length_b       19.313633147011497
_cell_length_c       20.834543414091986
_cell_angle_alpha    89.99988885090636
_cell_angle_beta     90.00032193869353
_cell_angle_gamma    89.99994338560961

_space_group_name_H-M_alt    "P 1"
_space_group_IT_number       1

loop_
  _space_group_symop_operation_xyz
  'x, y, z'

loop_
  _atom_site_type_symbol
  _atom_site_label
  _atom_site_symmetry_multiplicity
  _atom_site_fract_x
  _atom_site_fract_y
  _atom_site_fract_z
  _atom_site_occupancy
  Cu  Cu1       1.0  0.7727599109019537  0.6881241040261799  0.9718921528246085  1.0000
  Cu  Cu2       1.0  0.7272426386081322  0.688124063432312  0.5281060271332052  1.0000
  Cu  Cu3       1.0  0.27275857248113067  0.8118740771836384  0.028105373990293003  1.0000
  Cu  Cu4       1.0  0.22723657675572895  0.8118777653552058  0.4718928145796469  1.0000
  Cu  Cu5       1.0  0.22723941723567978  0.3118785712899735  0.028104319952937808  1.0000
  Cu  Cu6       1.0  0.27275668955029175  0.31187705857340114  0.4718938054505841  1.0000
  Cu  Cu7       1.0  0.7272378081638351  0.1881249737449195  0.971896378479798  1.0000
  Cu  Cu8       1.0  0.7727568563514993  0.18812439218945087  0.5281074979672482  1.0000
  H   H1        1.0  0.038610670513840296  0.12356291787904891  0.5401000911035255  1.0000
  H   H2        1.0  0.46138270224122385  0.12356185197304367  0.9599034878820946  1.0000
  H   H3        1.0  0.538617552648077  0.3764376166648873  0.4598986493771307  1.0000
  H   H4        1.0  0.9613837759431759  0.3764353605136391  0.0401002534718415  1.0000
  H   H5        1.0  0.9613847275914509  0.876436650824267  0.45989638167142044  1.0000
  H   H6        1.0  0.5386126959325424  0.8764382344866631  0.04010498419542331  1.0000
  H   H7        1.0  0.4613896355616659  0.6235635053423464  0.5400978234126086  1.0000
  H   H8        1.0  0.0386145697058637  0.6235605838036022  0.959898619171  1.0000
  H   H9        1.0  0.873417589740015  0.8251651391279039  0.9337233451451399  1.0000
  H   H10       1.0  0.6265886273736783  0.8251666230446658  0.5662779488298996  1.0000
  H   H11       1.0  0.3734169525819979  0.6748319552434836  0.06628021778345781  1.0000
  H   H12       1.0  0.1265804241420625  0.6748342214973349  0.43372109641678963  1.0000
  H   H13       1.0  0.12657879090345858  0.17483546510757006  0.0662784073235514  1.0000
  H   H14       1.0  0.3734165958630413  0.17483398118603324  0.4337262035115473  1.0000
  H   H15       1.0  0.6265764805504901  0.3251639890699706  0.9337234545738582  1.0000
  H   H16       1.0  0.8734198865166362  0.3251643116652758  0.5662768162821907  1.0000
  H   H17       1.0  0.9707043166064437  0.9274537004828429  0.725062226857091  1.0000
  H   H18       1.0  0.5292967920529179  0.9274542783970998  0.7749360038183681  1.0000
  H   H19       1.0  0.4707092215559356  0.5725480042359761  0.2749372835142054  1.0000
  H   H20       1.0  0.029293263582140096  0.5725466157247824  0.22506085434387302  1.0000
  H   H21       1.0  0.0293018891027472  0.07254742152313298  0.2749356858476659  1.0000
  H   H22       1.0  0.4707074486622388  0.07255098575612348  0.22506670860118314  1.0000
  H   H23       1.0  0.529292071620148  0.4274531177692325  0.7250625490722912  1.0000
  H   H24       1.0  0.9707040995510711  0.42745088190063296  0.774937058351995  1.0000
  H   H25       1.0  0.8301130662406919  0.8843044550514778  0.6948915049159154  1.0000
  H   H26       1.0  0.6698920550876794  0.8843043802480963  0.8051063231842763  1.0000
  H   H27       1.0  0.3301143053476352  0.6156962857753924  0.3051066593870928  1.0000
  H   H28       1.0  0.16988809714867162  0.6156943711529193  0.19488996116595567  1.0000
  H   H29       1.0  0.16989117445536553  0.11569770249193569  0.3051073677294553  1.0000
  H   H30       1.0  0.3301102206118074  0.11569881282973425  0.1948963892344437  1.0000
  H   H31       1.0  0.6698899353659655  0.3843048362270522  0.6948950930919366  1.0000
  H   H32       1.0  0.8301092659702433  0.38430364424399227  0.8051055516688379  1.0000
  H   H33       1.0  0.9637429337951106  0.8802910471292191  0.8345957374637296  1.0000
  H   H34       1.0  0.5362621952378747  0.8802918513158814  0.6654054576388192  1.0000
  H   H35       1.0  0.46374157674223676  0.6197080722882544  0.16540903347587493  1.0000
  H   H36       1.0  0.03625492304792031  0.6197095570244072  0.33459333953609166  1.0000
  H   H37       1.0  0.036256394379371705  0.11971059264244838  0.16540697495233303  1.0000
  H   H38       1.0  0.46374794052820073  0.11970978845403828  0.33459629484784165  1.0000
  H   H39       1.0  0.5362538214101704  0.3802883897931721  0.8345951188557948  1.0000
  H   H40       1.0  0.9637453876075242  0.3802894939076821  0.6654040931903041  1.0000
  H   H41       1.0  0.8108451688838726  0.6395367927473429  0.8395370563974682  1.0000
  H   H42       1.0  0.6891555086702041  0.6395364938512527  0.6604631305907489  1.0000
  H   H43       1.0  0.3108550840322479  0.8604629223566107  0.16046249491736836  1.0000
  H   H44       1.0  0.18915569229122303  0.8604622477307017  0.3395346465866994  1.0000
  H   H45       1.0  0.18915415928007212  0.36046432925736127  0.16046373613056633  1.0000
  H   H46       1.0  0.3108546271071262  0.36046203930331433  0.3395400618150646  1.0000
  H   H47       1.0  0.6891471916551454  0.13953561080348453  0.8395373376727947  1.0000
  H   H48       1.0  0.8108406883216259  0.13953576766594716  0.6604613462188667  1.0000
  H   H49       1.0  0.10142872428038881  0.8199081335139127  0.7203602826557332  1.0000
  H   H50       1.0  0.39857608748651785  0.8199085133823019  0.7796386876026419  1.0000
  H   H51       1.0  0.6014270326669475  0.6800927238446732  0.27964157333344997  1.0000
  H   H52       1.0  0.8985756794104276  0.6800927103278197  0.2203577448360576  1.0000
  H   H53       1.0  0.8985715863850956  0.18009195295410754  0.2796390699582147  1.0000
  H   H54       1.0  0.6014291357098785  0.18009675077570358  0.22035922509704875  1.0000
  H   H55       1.0  0.39857426051239025  0.31990788039105666  0.720358739225631  1.0000
  H   H56       1.0  0.10142266622410999  0.3199068583742458  0.7796392079150536  1.0000
  H   H57       1.0  0.9767269657590772  0.7770480755187348  0.6773948987194345  1.0000
  H   H58       1.0  0.5232744309419175  0.7770485564862852  0.822603121745871  1.0000
  H   H59       1.0  0.47672918311872786  0.7229541438991445  0.3226060681046762  1.0000
  H   H60       1.0  0.0232739964943249  0.7229523407037489  0.17739371988080427  1.0000
  H   H61       1.0  0.0232713798965349  0.2229525287172506  0.32260589380771887  1.0000
  H   H62       1.0  0.47672194969108284  0.22295722543992713  0.17739767077394225  1.0000
  H   H63       1.0  0.5232730925744633  0.27704697810430184  0.6773952043995309  1.0000
  H   H64       1.0  0.9767263141653686  0.27704515692092  0.8226041928191066  1.0000
  H   H65       1.0  0.9011832747696148  0.6862008058663988  0.7371235671792037  1.0000
  H   H66       1.0  0.5988143658850973  0.686200855891691  0.7628755761655911  1.0000
  H   H67       1.0  0.4011934740924161  0.8138004165094017  0.2628757522671706  1.0000
  H   H68       1.0  0.09881640909085121  0.8137979317268316  0.23712195290141122  1.0000
  H   H69       1.0  0.09881605339057842  0.3138013516767586  0.2628767453757845  1.0000
  H   H70       1.0  0.4011879098186312  0.3138007838787117  0.23712761622663694  1.0000
  H   H71       1.0  0.5988127316287973  0.18619966995660767  0.737124080326993  1.0000
  H   H72       1.0  0.9011809540373363  0.1861990481306108  0.7628749998506735  1.0000
  H   H73       1.0  0.12822958680764882  0.012359536082648502  0.5835166721030092  1.0000
  H   H74       1.0  0.371767928935732  0.012359124712588699  0.9164847064770215  1.0000
  H   H75       1.0  0.6282318268339823  0.4876399172560254  0.4164818345295558  1.0000
  H   H76       1.0  0.8717663412547125  0.4876402045210781  0.0835154289484592  1.0000
  H   H77       1.0  0.8717687588309105  0.9876415859253239  0.41648124059095437  1.0000
  H   H78       1.0  0.6282255042060855  0.9876414795191123  0.08352136573672202  1.0000
  H   H79       1.0  0.3717743788661565  0.5123591336760711  0.5835141582885726  1.0000
  H   H80       1.0  0.12823003936414784  0.5123572931055944  0.9164815238018137  1.0000
  H   H81       1.0  0.6548767393577748  0.05655515049267729  0.5600711975049111  1.0000
  H   H82       1.0  0.8451201421248342  0.056557292353915004  0.9399295551162297  1.0000
  H   H83       1.0  0.1548857782606703  0.44344894917680466  0.4399360218147522  1.0000
  H   H84       1.0  0.3451159716284309  0.44344671038567884  0.060065707394798606  1.0000
  H   H85       1.0  0.345119641283155  0.9434423471299663  0.4399295950223276  1.0000
  H   H86       1.0  0.1548762384953619  0.9434474540368712  0.060068837543902  1.0000
  H   H87       1.0  0.8451263225509322  0.5565552794319402  0.5600710103656183  1.0000
  H   H88       1.0  0.6548794264673745  0.5565570004704339  0.9399298054321862  1.0000
  H   H89       1.0  0.0921669552614546  0.8983424720047564  0.621941436141995  1.0000
  H   H90       1.0  0.4078377062947567  0.89834264065054  0.8780573934396899  1.0000
  H   H91       1.0  0.5921685102657008  0.6016609789185877  0.3780594344685539  1.0000
  H   H92       1.0  0.9078323869972066  0.6016580605722269  0.12193906442885093  1.0000
  H   H93       1.0  0.9078363029189873  0.10165813223349568  0.378055996587058  1.0000
  H   H94       1.0  0.5921626043770303  0.10165951689186412  0.1219433990887708  1.0000
  H   H95       1.0  0.407839660462912  0.39834117862432805  0.6219389582100945  1.0000
  H   H96       1.0  0.0921610461024542  0.39834047259163435  0.8780593282328085  1.0000
  H   H97       1.0  0.9492760899270323  0.85769690171297  0.593110724244454  1.0000
  H   H98       1.0  0.5507261348305761  0.8576977096151522  0.9068871515732013  1.0000
  H   H99       1.0  0.44927353558504995  0.6423058494653304  0.40688872726516934  1.0000
  H   H100      1.0  0.0507219383970607  0.6423042091251432  0.09310928546863553  1.0000
  H   H101      1.0  0.0507261857501007  0.1423037025245222  0.40688766842749413  1.0000
  H   H102      1.0  0.4492712283164905  0.14230548346544225  0.0931141209224009  1.0000
  H   H103      1.0  0.5507316876276177  0.35769682584529505  0.5931115852974501  1.0000
  H   H104      1.0  0.9492685471718687  0.35769587734689157  0.9068886272154588  1.0000
  H   H105      1.0  0.728385476200792  0.9407558945628266  0.6014781803955742  1.0000
  H   H106      1.0  0.7716136419630502  0.9407591963037161  0.8985200264164277  1.0000
  H   H107      1.0  0.22838593229746354  0.5592464514025792  0.398527384074157  1.0000
  H   H108      1.0  0.2716165783195237  0.5592457164918373  0.10147173758474538  1.0000
  H   H109      1.0  0.27161876450475125  0.05924212082779689  0.3985216521977506  1.0000
  H   H110      1.0  0.22838077363871176  0.05924347901218139  0.10147788627074311  1.0000
  H   H111      1.0  0.7716183084339648  0.44075622390326424  0.6014777282083301  1.0000
  H   H112      1.0  0.7283798022755619  0.440756441059122  0.8985218553564993  1.0000
  H   H113      1.0  0.1271686609040188  0.7005694378762684  0.9010492899134661  1.0000
  H   H114      1.0  0.3728363794030116  0.700571763292011  0.5989489344403226  1.0000
  H   H115      1.0  0.6271617160641726  0.7994246753711706  0.09895167682248031  1.0000
  H   H116      1.0  0.8728348724348225  0.7994294735325979  0.40104982716591314  1.0000
  H   H117      1.0  0.8728375448012001  0.2994358262814885  0.0989486227875744  1.0000
  H   H118      1.0  0.6271629487531528  0.2994288409452252  0.40105041817181336  1.0000
  H   H119      1.0  0.372835647089552  0.20056868009944398  0.9010491157098243  1.0000
  H   H120      1.0  0.12716249070263072  0.20056647078538958  0.598948565503463  1.0000
  H   H121      1.0  0.3195263626340434  0.6267520859219075  0.9162964146641743  1.0000
  H   H122      1.0  0.1804748890224417  0.6267550591192759  0.5837048219123986  1.0000
  H   H123      1.0  0.8195210661735856  0.8732408937628829  0.0837055603384584  1.0000
  H   H124      1.0  0.6804724334520103  0.8732452401872945  0.4162991710571405  1.0000
  H   H125      1.0  0.6804719829902268  0.3732495538575548  0.08369909816871511  1.0000
  H   H126      1.0  0.8195234566364248  0.37324502734723086  0.416296450587339  1.0000
  H   H127      1.0  0.18047138443726854  0.12675401501539338  0.9162957121578259  1.0000
  H   H128      1.0  0.3195298422361573  0.1267553640481864  0.5837011415032833  1.0000
  H   H129      1.0  0.3430452310500769  0.684018949747774  0.8513892856607796  1.0000
  H   H130      1.0  0.1569539458896188  0.6840264586669064  0.6486080084203607  1.0000
  H   H131      1.0  0.8430427554143165  0.8159703935730176  0.148608434192127  1.0000
  H   H132      1.0  0.6569547838945766  0.8159790303191554  0.3513916002020353  1.0000
  H   H133      1.0  0.6569570446187784  0.3159816544912388  0.1486076670947938  1.0000
  H   H134      1.0  0.8430414522362497  0.3159746633393041  0.3513923041301581  1.0000
  H   H135      1.0  0.1569516602059196  0.1840245152062678  0.8513913983904972  1.0000
  H   H136      1.0  0.3430455267791856  0.18402105614735825  0.6486091923282871  1.0000
  H   H137      1.0  0.09945968960332859  0.7296011720176308  0.0064450279041495  1.0000
  H   H138      1.0  0.4005415122465621  0.7296042086600706  0.4935528282639439  1.0000
  H   H139      1.0  0.5994562069191715  0.7703955441980668  0.9935520229573173  1.0000
  H   H140      1.0  0.9005422549952584  0.7703964962767103  0.5064460094352512  1.0000
  H   H141      1.0  0.9005386560367227  0.2703983966834258  0.993552884791207  1.0000
  H   H142      1.0  0.5994597809405562  0.27039691334312715  0.5064489242110355  1.0000
  H   H143      1.0  0.40054213872187466  0.22960298896504125  0.0064458897389628  1.0000
  H   H144      1.0  0.099461003188658  0.22960048357873572  0.49355142329704904  1.0000
  C   C1        1.0  0.9734345445032774  0.0821002417588872  0.5556765073249395  1.0000
  C   C2        1.0  0.5265603230527205  0.0821004656551167  0.9443261193669914  1.0000
  C   C3        1.0  0.4734407352767391  0.4179011067417945  0.44432246741028086  1.0000
  C   C4        1.0  0.0265620460283174  0.4178995572583801  0.05567594781680191  1.0000
  C   C5        1.0  0.026563801134017195  0.9178993269426671  0.44432092539828727  1.0000
  C   C6        1.0  0.4734350751162991  0.9179016918809779  0.05568187273654251  1.0000
  C   C7        1.0  0.5265674354413362  0.5821005330341649  0.5556740053803395  1.0000
  C   C8        1.0  0.9734362996127292  0.5820989759047278  0.9443219648794784  1.0000
  C   C9        1.0  0.8798252800478962  0.7969038009736379  0.8886055199083529  1.0000
  C   C10       1.0  0.6201800086748079  0.7969057112593133  0.611394864809192  1.0000
  C   C11       1.0  0.37982805495932587  0.7030927723621047  0.11139854059560152  1.0000
  C   C12       1.0  0.12017221516709498  0.7030935832434578  0.3886022429503342  1.0000
  C   C13       1.0  0.1201711006025832  0.20309524995391107  0.1113971925059758  1.0000
  C   C14       1.0  0.3798232495417153  0.20309178635906017  0.388608327588102  1.0000
  C   C15       1.0  0.6201693082107341  0.2969036897188175  0.8886056117387682  1.0000
  C   C16       1.0  0.8798271129754909  0.2969039143829661  0.6113942298318591  1.0000
  C   C17       1.0  0.9382774517446748  0.8853813888473782  0.6930883972215514  1.0000
  C   C18       1.0  0.5617217724857682  0.8853803298405367  0.8069123087726027  1.0000
  C   C19       1.0  0.4382787136556984  0.6146213679332532  0.3069124640030054  1.0000
  C   C20       1.0  0.0617197608660973  0.6146200299885008  0.19308463844417642  1.0000
  C   C21       1.0  0.06172482393273531  0.11462180423448128  0.3069104754201959  1.0000
  C   C22       1.0  0.43827853820482693  0.1146223454673105  0.1930918435602393  1.0000
  C   C23       1.0  0.5617196320004041  0.38537871853375794  0.6930883285246097  1.0000
  C   C24       1.0  0.9382766197374792  0.3853790209476031  0.8069099144440913  1.0000
  C   C25       1.0  0.9355100809817573  0.9673929881731239  0.5978580112200973  1.0000
  C   C26       1.0  0.564488986180109  0.9673932812511269  0.9021415877356775  1.0000
  C   C27       1.0  0.4355145597158909  0.5326066634035695  0.4021423624392285  1.0000
  C   C28       1.0  0.06448603689137401  0.5326081127059509  0.09785536707877182  1.0000
  C   C29       1.0  0.0644941597107689  0.0326070982954008  0.4021399014828902  1.0000
  C   C30       1.0  0.4355044469589515  0.03260732298107169  0.09786400450594361  1.0000
  C   C31       1.0  0.5644945935328067  0.46739238752374473  0.5978574701599159  1.0000
  C   C32       1.0  0.9355083787050873  0.4673914559976211  0.9021411056948241  1.0000
  C   C33       1.0  0.9285544218700822  0.8270592296596532  0.8329926299947346  1.0000
  C   C34       1.0  0.5714527741196987  0.8270605303203665  0.6670077006404116  1.0000
  C   C35       1.0  0.4285529812886608  0.6729383543851881  0.1670096444437803  1.0000
  C   C36       1.0  0.07144243404093942  0.672938271243531  0.3329907132079271  1.0000
  C   C37       1.0  0.0714468713212781  0.1729403390361171  0.16700960245376  1.0000
  C   C38       1.0  0.428559326686603  0.17294059167604559  0.33299789162638405  1.0000
  C   C39       1.0  0.5714453643804661  0.32705966100391487  0.8329930679741866  1.0000
  C   C40       1.0  0.9285529640690912  0.3270592263833904  0.6670062395409959  1.0000
  C   C41       1.0  0.8467410609138  0.6925221568399919  0.8365319527216644  1.0000
  C   C42       1.0  0.6532604976764418  0.6925213521616055  0.6634681392357892  1.0000
  C   C43       1.0  0.3467501295787372  0.8074796110463253  0.1634691370910275  1.0000
  C   C44       1.0  0.1532597657166264  0.8074784432498063  0.3365300193294943  1.0000
  C   C45       1.0  0.1532563022319948  0.307479482934184  0.1634688398032083  1.0000
  C   C46       1.0  0.34674079553197157  0.30747769876217024  0.3365369730458952  1.0000
  C   C47       1.0  0.6532531286275258  0.1925199576494521  0.8365326153880448  1.0000
  C   C48       1.0  0.8467395624244672  0.19252060768353368  0.6634664534513065  1.0000
  C   C49       1.0  0.9938984536214265  0.8156269975322344  0.7153242046209345  1.0000
  C   C50       1.0  0.5061028692169317  0.8156291201366982  0.7846775864261631  1.0000
  C   C51       1.0  0.4939032563786938  0.6843752131320284  0.2846792092271215  1.0000
  C   C52       1.0  0.0061009796176279  0.6843738568800787  0.21531920803666083  1.0000
  C   C53       1.0  0.0061028395676743  0.18437205339506588  0.2846775478558997  1.0000
  C   C54       1.0  0.49389940648608643  0.18437614401602082  0.2153260859349402  1.0000
  C   C55       1.0  0.5060980367939223  0.3156295332559935  0.7153206233561207  1.0000
  C   C56       1.0  0.9938963835058132  0.31562519405376577  0.784677264741447  1.0000
  C   C57       1.0  0.9383792230106066  0.7879092210501923  0.7765143590745752  1.0000
  C   C58       1.0  0.5616260829394478  0.7879093726768643  0.7234860417768871  1.0000
  C   C59       1.0  0.4383803217187038  0.7120919823716959  0.22348650243065293  1.0000
  C   C60       1.0  0.061621896185776785  0.7120894338925581  0.27651282506398905  1.0000
  C   C61       1.0  0.0616220701737547  0.21209190095351002  0.2234869134282818  1.0000
  C   C62       1.0  0.4383732452520874  0.212091749322802  0.27651955047236504  1.0000
  C   C63       1.0  0.5616199889595849  0.2879091396317506  0.7765152500429764  1.0000
  C   C64       1.0  0.9383754669474272  0.287908063732857  0.7234850876318717  1.0000
  C   C65       1.0  0.896153042559682  0.7190350819591271  0.7796490607791285  1.0000
  C   C66       1.0  0.6038504302706968  0.7190336653395164  0.7203505036568673  1.0000
  C   C67       1.0  0.3961588858616878  0.7809676962885703  0.2203497648727151  1.0000
  C   C68       1.0  0.10384811267918792  0.7809651197117801  0.27964895912367643  1.0000
  C   C69       1.0  0.10384825061866108  0.2809665578145584  0.2203512517790216  1.0000
  C   C70       1.0  0.39615970551419366  0.2809684921958535  0.279654608634175  1.0000
  C   C71       1.0  0.6038473198617923  0.21903290794590893  0.779650547693109  1.0000
  C   C72       1.0  0.8961492504557853  0.21903341345107927  0.7203494335433761  1.0000
  C   C73       1.0  0.022345563793415103  0.0201690764288998  0.5797540182402585  1.0000
  C   C74       1.0  0.47765291949666283  0.020169120976504498  0.9202463863895717  1.0000
  C   C75       1.0  0.522350809555121  0.4798304308665636  0.42024419759645326  1.0000
  C   C76       1.0  0.977650321024456  0.479830672067841  0.07975451980880881  1.0000
  C   C77       1.0  0.977653764343934  0.9798310100428932  0.42024197456749585  1.0000
  C   C78       1.0  0.5223405136496809  0.9798325187921291  0.079760645767486  1.0000
  C   C79       1.0  0.4776583436797779  0.5201686200632735  0.5797532351420855  1.0000
  C   C80       1.0  0.022347042105003795  0.5201678610960272  0.9202429129139986  1.0000
  C   C81       1.0  0.7585668355827195  0.043658010850393184  0.5656697462816284  1.0000
  C   C82       1.0  0.7414300706003445  0.043659181759814196  0.9343310294722118  1.0000
  C   C83       1.0  0.25857283788785423  0.45634344713846525  0.4343348779780456  1.0000
  C   C84       1.0  0.2414298698022748  0.4563407316660175  0.06566442824559722  1.0000
  C   C85       1.0  0.24143151007034896  0.9563394867727624  0.4343300863040725  1.0000
  C   C86       1.0  0.2585643450262509  0.9563434935515501  0.06567120296404741  1.0000
  C   C87       1.0  0.741435332871106  0.5436587103989082  0.565668794393936  1.0000
  C   C88       1.0  0.7585665108058351  0.5436593548070333  0.934331084585992  1.0000
  C   C89       1.0  0.9843596530415583  0.9000534688135814  0.6241543713020619  1.0000
  C   C90       1.0  0.5156424905946722  0.9000522886551464  0.8758424686039846  1.0000
  C   C91       1.0  0.4843587879722407  0.599947711178089  0.375846136509047  1.0000
  C   C92       1.0  0.015639714663962  0.5999475768877147  0.12415339211578674  1.0000
  C   C93       1.0  0.0156445876537248  0.09994661765444589  0.3758440213730482  1.0000
  C   C94       1.0  0.4843558550508931  0.0999472800449084  0.12415640403560962  1.0000
  C   C95       1.0  0.5156474177549911  0.4000518575179369  0.6241546560298303  1.0000
  C   C96       1.0  0.9843547009380202  0.4000519918148483  0.8758440406020472  1.0000
  C   C97       1.0  0.8008306572488453  0.9802450928405053  0.5893714276749905  1.0000
  C   C98       1.0  0.6991674027794659  0.9802458172521182  0.9106262283395098  1.0000
  C   C99       1.0  0.3008342756570245  0.519756180672253  0.410630975958675  1.0000
  C   C100      1.0  0.1991663455671855  0.5197534370016896  0.0893672565833512  1.0000
  C   C101      1.0  0.19917161842574418  0.019752404784164  0.4106260050554909  1.0000
  C   C102      1.0  0.3008270128435981  0.019754786984364593  0.08937504415437302  1.0000
  C   C103      1.0  0.6991729125968575  0.48024494132692314  0.58937317638501  1.0000
  C   C104      1.0  0.8008290525298278  0.4802461317031401  0.9106277762752273  1.0000
  C   C105      1.0  0.21429372491100912  0.7236422123328765  0.924231562352027  1.0000
  C   C106      1.0  0.285703411139245  0.7236435952518434  0.5757666206093575  1.0000
  C   C107      1.0  0.7142954003403333  0.776352892052152  0.07576964367518711  1.0000
  C   C108      1.0  0.7857051623658294  0.7763571682076743  0.4242295018391502  1.0000
  C   C109      1.0  0.7857124808094937  0.2763614985154419  0.07576875021101162  1.0000
  C   C110      1.0  0.7142939519937456  0.2763570089869063  0.4242317720558405  1.0000
  C   C111      1.0  0.2857049103318801  0.22364305226357561  0.9242301889145991  1.0000
  C   C112      1.0  0.21429416578255459  0.22364291826210794  0.5757684108570871  1.0000
  C   C113      1.0  0.2187531237464455  0.7992489325989068  0.9005117584075607  1.0000
  C   C114      1.0  0.2812448500155186  0.7992518213281201  0.5994862889484481  1.0000
  C   C115      1.0  0.7187493215918649  0.7007461695155541  0.0994889798873047  1.0000
  C   C116      1.0  0.7812484383743978  0.7007484266355062  0.4005083813416874  1.0000
  C   C117      1.0  0.7812471869647339  0.20075529601183456  0.0994962337008616  1.0000
  C   C118      1.0  0.7187525131004264  0.20074930068262375  0.40050922388356014  1.0000
  C   C119      1.0  0.28124607651265165  0.29925132811237626  0.9005070129173732  1.0000
  C   C120      1.0  0.21874990724407437  0.2992506243006047  0.5994856915771578  1.0000
  C   C121      1.0  0.46659026857345515  0.703289676643898  0.932441850193321  1.0000
  C   C122      1.0  0.0334069064373708  0.7032943119734012  0.5675539694080812  1.0000
  C   C123      1.0  0.9665937756658706  0.7967032280967032  0.06756004874572602  1.0000
  C   C124      1.0  0.5334047830637729  0.7967039912107906  0.4324409801579492  1.0000
  C   C125      1.0  0.5334090595741543  0.29670833875049135  0.06755558253264841  1.0000
  C   C126      1.0  0.9665914391944027  0.29670525672916165  0.4324425033709078  1.0000
  C   C127      1.0  0.033404570004528004  0.20329634059881835  0.9324431436429635  1.0000
  C   C128      1.0  0.46659258007996834  0.2032940241815808  0.5675588524259325  1.0000
  C   C129      1.0  0.3342432390789156  0.6816646012820795  0.9039942201863554  1.0000
  C   C130      1.0  0.16575495986014493  0.6816670384033827  0.5960021181764148  1.0000
  C   C131      1.0  0.8342470317648323  0.8183314775176667  0.09600491541169023  1.0000
  C   C132      1.0  0.6657534505586042  0.8183327506416658  0.4039955947304892  1.0000
  C   C133      1.0  0.6657590365784073  0.318336520727918  0.09600081268027341  1.0000
  C   C134      1.0  0.8342394557546418  0.31833356583460665  0.40399771440110044  1.0000
  C   C135      1.0  0.1657562264341479  0.18166705564166818  0.9039953971519452  1.0000
  C   C136      1.0  0.3342429300770888  0.18166733582634717  0.5960047178223108  1.0000
  N   N1        1.0  0.8392624784976519  0.7304253796379853  0.8906526049216197  1.0000
  N   N2        1.0  0.6607399900084729  0.7304257202432182  0.6093469390822437  1.0000
  N   N3        1.0  0.339269032596242  0.7695727676741554  0.10935134418441092  1.0000
  N   N4        1.0  0.16073602276016893  0.769573553590071  0.3906498001043914  1.0000
  N   N5        1.0  0.16073488464814287  0.26957626013619057  0.10934818760325271  1.0000
  N   N6        1.0  0.33926621574358506  0.2695738484482817  0.39065817320572904  1.0000
  N   N7        1.0  0.6607302955817148  0.2304252477146916  0.8906513682348988  1.0000
  N   N8        1.0  0.8392642878925186  0.23042549734251583  0.6093471526498817  1.0000
  N   N9        1.0  0.8438956227133473  0.09421969927233677  0.5498086593899458  1.0000
  N   N10       1.0  0.6561002041486645  0.09422088038130735  0.9501953854818411  1.0000
  N   N11       1.0  0.34390190417387606  0.4057827507736178  0.45019427932775374  1.0000
  N   N12       1.0  0.1561018828629059  0.4057801120582808  0.0498065574972912  1.0000
  N   N13       1.0  0.15610370544253976  0.9057783161205462  0.4501902132523981  1.0000
  N   N14       1.0  0.3438951940045811  0.9057833482331996  0.04981020675922571  1.0000
  N   N15       1.0  0.6561082315786848  0.5942214778431775  0.5498055532680937  1.0000
  N   N16       1.0  0.8438964627738912  0.5942199744122547  0.9501908752254736  1.0000
  O   O1        1.0  0.5652724216093503  0.667446592175821  0.9175696016945523  1.0000
  O   O2        1.0  0.9347311499651954  0.6674437430322158  0.5824204558274816  1.0000
  O   O3        1.0  0.0652726505766452  0.8325532480732886  0.08242831522152021  1.0000
  O   O4        1.0  0.43472344157146375  0.8325512490343454  0.41756983626548566  1.0000
  O   O5        1.0  0.43472985405851017  0.33255504760113297  0.08242735106009752  1.0000
  O   O6        1.0  0.0652740732285935  0.33255271905526473  0.4175755369916204  1.0000
  O   O7        1.0  0.9347247126019695  0.1674458028504873  0.9175777569990089  1.0000
  O   O8        1.0  0.5652699915520359  0.16744831966293108  0.5824328761443384  1.0000
  O   O9        1.0  0.2168855819360473  0.8469333382131123  0.9445510751039665  1.0000
  O   O10       1.0  0.2831054229350586  0.846935800628657  0.5554454468016559  1.0000
  O   O11       1.0  0.7168833298401935  0.6530628003931013  0.05544725820247011  1.0000
  O   O12       1.0  0.7831145214503863  0.6530654819213665  0.4445511484934813  1.0000
  O   O13       1.0  0.7831117812340765  0.1530688193255045  0.055454037169532504  1.0000
  O   O14       1.0  0.7168801500937577  0.1530658391505426  0.44455342581854757  1.0000
  O   O15       1.0  0.2831110857702797  0.34693366169462075  0.944551134462394  1.0000
  O   O16       1.0  0.21687203408046682  0.34693460455216746  0.5554462842130976  1.0000
  O   O17       1.0  0.4692726787361964  0.7569165230345261  0.9693967792973768  1.0000
  O   O18       1.0  0.030728323623272005  0.7569227905730712  0.5306018239575893  1.0000
  O   O19       1.0  0.9692788112192332  0.7430779336474059  0.030603207122368307  1.0000
  O   O20       1.0  0.5307237802306873  0.7430786205880437  0.46939551810647373  1.0000
  O   O21       1.0  0.5307276319517912  0.24307735020279606  0.0306054531548696  1.0000
  O   O22       1.0  0.9692788645824352  0.24307677812825546  0.46939368888930494  1.0000
  O   O23       1.0  0.0307254294838302  0.25692267058808244  0.9693966254686331  1.0000
  O   O24       1.0  0.4692735829060553  0.2569209481122527  0.5306033545317703  1.0000
  O   O25       1.0  0.19872037528438113  0.7200187970525675  0.992837799299167  1.0000
  O   O26       1.0  0.30127676768470485  0.7200213515270873  0.5071570303551384  1.0000
  O   O27       1.0  0.6987163425371749  0.7799783863478637  0.007161444059200101  1.0000
  O   O28       1.0  0.8012802832023239  0.7799788862269635  0.49283913486693365  1.0000
  O   O29       1.0  0.8012828829073089  0.27997870057033936  0.0071610733490317  1.0000
  O   O30       1.0  0.6987156829114269  0.279980288249348  0.49284280221875326  1.0000
  O   O31       1.0  0.30128003811783094  0.22002170011662514  0.9928422282984428  1.0000
  O   O32       1.0  0.1987200274485943  0.22001912916818608  0.5071573379161478  1.0000
  O   O33       1.0  0.2199966321647437  0.8110479130502667  0.8419753095571423  1.0000
  O   O34       1.0  0.2800013190146445  0.811044984131385  0.6580241565582342  1.0000
  O   O35       1.0  0.7199954905242195  0.688945117357967  0.1580215923814379  1.0000
  O   O36       1.0  0.7800042570592608  0.6889511223082676  0.34197626998494  1.0000
  O   O37       1.0  0.780016451126606  0.1889578688701761  0.1580269229019677  1.0000
  O   O38       1.0  0.719998009181353  0.18895147794752626  0.34198143569519607  1.0000
  O   O39       1.0  0.2800048201223219  0.3110430604292063  0.8419724805498634  1.0000
  O   O40       1.0  0.21999212358746684  0.3110489641577273  0.6580259624563426  1.0000
