data_image0
_chemical_formula_structural       Cd2H28C48N4O8
_chemical_formula_sum              "Cd2 H28 C48 N4 O8"
_cell_length_a       7.815860153251705
_cell_length_b       14.237581433702196
_cell_length_c       14.237629509050555
_cell_angle_alpha    65.91952154439312
_cell_angle_beta     77.24521788321887
_cell_angle_gamma    77.2448460008783

_space_group_name_H-M_alt    "P 1"
_space_group_IT_number       1

loop_
  _space_group_symop_operation_xyz
  'x, y, z'

loop_
  _atom_site_type_symbol
  _atom_site_label
  _atom_site_symmetry_multiplicity
  _atom_site_fract_x
  _atom_site_fract_y
  _atom_site_fract_z
  _atom_site_occupancy
  Cd  Cd1       1.0  0.24920147263363657  0.13394482355784018  0.0820424599884717  1.0000
  Cd  Cd2       1.0  0.7492024427024688  0.08203855773587782  0.13395065605469367  1.0000
  H   H1        1.0  0.15489477921369155  0.838192882838868  0.37735255509581106  1.0000
  H   H2        1.0  0.6549116710449142  0.37735364222887563  0.838187077103015  1.0000
  H   H3        1.0  0.05414165662240578  0.7164296685365202  0.5536914450036716  1.0000
  H   H4        1.0  0.554140840195629  0.5536889440033619  0.7164272597017742  1.0000
  H   H5        1.0  0.774889947437366  0.08620877361477142  0.4292419926620141  1.0000
  H   H6        1.0  0.27489472705271817  0.42924059144416304  0.08620227338323613  1.0000
  H   H7        1.0  0.6786066858422969  0.9650060759530775  0.611019721575303  1.0000
  H   H8        1.0  0.17860038700502656  0.611011150119559  0.965003119192225  1.0000
  H   H9        1.0  0.9931560958891553  0.6301902883332248  0.7024907140235328  1.0000
  H   H10       1.0  0.4931543967477838  0.7024872031504045  0.6301948392507339  1.0000
  H   H11       1.0  0.08147805818460802  0.4781186062800272  0.7633468605967904  1.0000
  H   H12       1.0  0.5814777425226724  0.7633478441766497  0.4781156036564624  1.0000
  H   H13       1.0  0.23048077254209437  0.30069850848868634  0.8569017689859421  1.0000
  H   H14       1.0  0.7304762892841341  0.8569083723447407  0.3006950160011213  1.0000
  H   H15       1.0  0.9399272533626403  0.29264176795575036  0.13947964240014699  1.0000
  H   H16       1.0  0.4399309105957628  0.1394828184407544  0.2926465927831785  1.0000
  H   H17       1.0  0.7858375691766497  0.47196948247732723  0.060678221123893566  1.0000
  H   H18       1.0  0.28585092369550585  0.060677879110670616  0.471982771416492  1.0000
  H   H19       1.0  0.6492459184182806  0.6046656378231886  0.990029075007612  1.0000
  H   H20       1.0  0.14924506253766628  0.9900290788516981  0.6046715164723793  1.0000
  H   H21       1.0  0.430029338979736  0.6633748303806614  0.057109818711339216  1.0000
  H   H22       1.0  0.9300310703984991  0.0571036963703406  0.6633727203640942  1.0000
  H   H23       1.0  0.19157489297759167  0.7543381375229216  0.14904956839578173  1.0000
  H   H24       1.0  0.691572588958735  0.1490456326086687  0.7543316077663107  1.0000
  H   H25       1.0  0.23046001709173683  0.0414976995271488  0.885512277173582  1.0000
  H   H26       1.0  0.730460005525174  0.8855142545708077  0.04149534737302925  1.0000
  H   H27       1.0  0.46958374131087066  0.950258877414527  0.7910893378288363  1.0000
  H   H28       1.0  0.9695913179763597  0.7910897321792518  0.9502627137294722  1.0000
  C   C1        1.0  0.0323701213994951  0.0420903968828128  0.2845908366129706  1.0000
  C   C2        1.0  0.5323744910841341  0.2845942322633377  0.04208949331335531  1.0000
  C   C3        1.0  0.9725051077183908  0.9698421973722232  0.3927321093489126  1.0000
  C   C4        1.0  0.47251513997763805  0.39273015087061935  0.969839188563071  1.0000
  C   C5        1.0  0.04952674630371242  0.8650820478323806  0.42891284327073004  1.0000
  C   C6        1.0  0.549536839358538  0.42890940584893406  0.8650777047775547  1.0000
  C   C7        1.0  0.9915522621624293  0.7974061350506857  0.528320280264637  1.0000
  C   C8        1.0  0.49155532315979417  0.5283195317809231  0.7974018156954228  1.0000
  C   C9        1.0  0.8582422176719436  0.8327056197131029  0.5957748174312769  1.0000
  C   C10       1.0  0.35825170766248954  0.5957719222124424  0.8327016126839696  1.0000
  C   C11       1.0  0.83712302398407  0.005232574389594899  0.4585652992552126  1.0000
  C   C12       1.0  0.3371341101575639  0.4585641244584907  0.005226956525142111  1.0000
  C   C13       1.0  0.7822753910402725  0.9380047656719058  0.5588489568639969  1.0000
  C   C14       1.0  0.28227543821961393  0.5588463413195371  0.9380040999519892  1.0000
  C   C15       1.0  0.8002510956805085  0.7640039747418755  0.7044665033542613  1.0000
  C   C16       1.0  0.30025465015025093  0.7044631953406436  0.7640065395446171  1.0000
  C   C17       1.0  0.8837951857464931  0.6613545778342315  0.7485321487835676  1.0000
  C   C18       1.0  0.3838024933278846  0.7485340476404903  0.661349926644213  1.0000
  C   C19       1.0  0.8319345954797513  0.6012626926781125  0.8530174130556175  1.0000
  C   C20       1.0  0.331938659937464  0.8530149990375551  0.601266267769489  1.0000
  C   C21       1.0  0.9195575356279307  0.4935090170920731  0.9034899324989566  1.0000
  C   C22       1.0  0.4195659863448782  0.9034947897854053  0.493509979589362  1.0000
  C   C23       1.0  0.04526383512543224  0.4415751386939845  0.8471323097647171  1.0000
  C   C24       1.0  0.5452686328390473  0.8471322358083525  0.44157659259204235  1.0000
  C   C25       1.0  0.12901856335042794  0.34190863866221116  0.898177710090273  1.0000
  C   C26       1.0  0.6290187809527196  0.8981831126221351  0.34191163604084096  1.0000
  C   C27       1.0  0.9691442167862904  0.3382382987036152  0.05656491394609724  1.0000
  C   C28       1.0  0.4691497910171877  0.0565730042823631  0.33824373393861856  1.0000
  C   C29       1.0  0.8824901131410742  0.43827026539760533  0.010969572030795289  1.0000
  C   C30       1.0  0.38249896965309205  0.010971575686717501  0.4382806813789131  1.0000
  C   C31       1.0  0.6950978910118693  0.647738081893749  0.9087681682560953  1.0000
  C   C32       1.0  0.19510411347646792  0.9087675318586648  0.6477385089338483  1.0000
  C   C33       1.0  0.6145789664723084  0.7500542613840081  0.8599107320323964  1.0000
  C   C34       1.0  0.11458580598198863  0.8599062103071518  0.7500563359166748  1.0000
  C   C35       1.0  0.46910294262348623  0.8012723849483054  0.9170478970480854  1.0000
  C   C36       1.0  0.9691073400591321  0.9170459879207941  0.8012708880007293  1.0000
  C   C37       1.0  0.38948556960042435  0.7466603099086129  0.018591984765713134  1.0000
  C   C38       1.0  0.8894901591288188  0.0185888147788305  0.7466562280866142  1.0000
  C   C39       1.0  0.2554022078629927  0.7970859895098386  0.07116889550290036  1.0000
  C   C40       1.0  0.7554014519129808  0.0711682782345164  0.7970803589318576  1.0000
  C   C41       1.0  0.1988628764368414  0.9039559779657509  0.02392135559338727  1.0000
  C   C42       1.0  0.698868642327959  0.023918614306111894  0.9039541391309738  1.0000
  C   C43       1.0  0.27613318017519367  0.9587212498679492  0.9223901530816504  1.0000
  C   C44       1.0  0.7761419691608326  0.9223923851446474  0.9587145782739624  1.0000
  C   C45       1.0  0.40858083212469853  0.9078976569507803  0.8696846414323217  1.0000
  C   C46       1.0  0.9085884696888867  0.8696835344483774  0.9078980786795724  1.0000
  C   C47       1.0  0.04988792016622778  0.9583353974384252  0.07715635323928881  1.0000
  C   C48       1.0  0.5498864753023868  0.07715896007461961  0.9583290146486688  1.0000
  N   N1        1.0  0.6674828260980094  0.8064582309094988  0.7595505328891433  1.0000
  N   N2        1.0  0.16748391919016112  0.759549570439553  0.806459030215265  1.0000
  N   N3        1.0  0.0921725158277411  0.29098539618675556  0.0014810491981193921  1.0000
  N   N4        1.0  0.5921786993305884  0.0014851395813621979  0.29099158815876075  1.0000
  O   O1        1.0  0.19186608406218403  0.019529749622933  0.2447298830394188  1.0000
  O   O2        1.0  0.6918616738617304  0.2447233725052697  0.01954150805532611  1.0000
  O   O3        1.0  0.924215930818342  0.12048654568817337  0.23851248880957596  1.0000
  O   O4        1.0  0.4241978437048531  0.23852596829568995  0.12048871510765471  1.0000
  O   O5        1.0  0.03257724989470741  0.05930249185664849  0.041843941552649276  1.0000
  O   O6        1.0  0.5325793525962227  0.04184164475486091  0.059301968652185566  1.0000
  O   O7        1.0  0.940955092919843  0.9080869211483319  0.15044378944837428  1.0000
  O   O8        1.0  0.4409650480297813  0.15043878033232258  0.9080862536459476  1.0000
