data_image0
_chemical_formula_structural       Cu4H24C36I4N24
_chemical_formula_sum              "Cu4 H24 C36 I4 N24"
_cell_length_a       7.323384728013763
_cell_length_b       11.640977077452757
_cell_length_c       13.198743436350972
_cell_angle_alpha    109.19354273690716
_cell_angle_beta     89.99984328686057
_cell_angle_gamma    90.00019908581825

_space_group_name_H-M_alt    "P 1"
_space_group_IT_number       1

loop_
  _space_group_symop_operation_xyz
  'x, y, z'

loop_
  _atom_site_type_symbol
  _atom_site_label
  _atom_site_symmetry_multiplicity
  _atom_site_fract_x
  _atom_site_fract_y
  _atom_site_fract_z
  _atom_site_occupancy
  Cu  Cu1       1.0  0.917133930282759  0.5281000120857299  0.8906053088937044  1.0000
  Cu  Cu2       1.0  0.41713479884989374  0.9718998470563633  0.6093957547111587  1.0000
  Cu  Cu3       1.0  0.08286844949206802  0.4718999996393975  0.10939433647605058  1.0000
  Cu  Cu4       1.0  0.5828621189640303  0.02810015376145711  0.390606160425591  1.0000
  H   H1        1.0  0.1028923500212215  0.2576261848339102  0.27378701015018697  1.0000
  H   H2        1.0  0.6028921021152555  0.2423749219593462  0.22621222043765962  1.0000
  H   H3        1.0  0.8971072987834248  0.7423738414251561  0.7262096088685511  1.0000
  H   H4        1.0  0.3971102776595501  0.7576259957201402  0.7737884482902828  1.0000
  H   H5        1.0  0.4445690892501517  0.5483405798592429  0.5874524911711633  1.0000
  H   H6        1.0  0.9445677118146208  0.9516593402338599  0.912546275398718  1.0000
  H   H7        1.0  0.5554291940637838  0.4516603487188321  0.4125459077945381  1.0000
  H   H8        1.0  0.05543193698441941  0.04834067512287989  0.08745261338430053  1.0000
  H   H9        1.0  0.8119862971175493  0.09796213805462631  0.21825294411046064  1.0000
  H   H10       1.0  0.3119913967707006  0.40203934656539525  0.28174683521378807  1.0000
  H   H11       1.0  0.18800788972244223  0.9020387759832791  0.7817484812096469  1.0000
  H   H12       1.0  0.6880082520246091  0.597960661523132  0.7182535667454177  1.0000
  H   H13       1.0  0.5362265882903047  0.2133787462393357  0.5943757325764097  1.0000
  H   H14       1.0  0.0362290790984758  0.286622874054352  0.9056254102672555  1.0000
  H   H15       1.0  0.46377306051238787  0.7866249002030731  0.40562573646317207  1.0000
  H   H16       1.0  0.9637692041968863  0.7133734884108309  0.09437543778843613  1.0000
  H   H17       1.0  0.21579053448926538  0.5244100827945531  0.7482454256532521  1.0000
  H   H18       1.0  0.7157873475180737  0.9755912391066489  0.7517541018741626  1.0000
  H   H19       1.0  0.7842118452855331  0.4755908348849331  0.2517552430746904  1.0000
  H   H20       1.0  0.28421093579959933  0.024409696739631708  0.2482427839153516  1.0000
  H   H21       1.0  0.6009956647625145  0.3487313856550642  0.8090309988658505  1.0000
  H   H22       1.0  0.10099846540331471  0.1512694432104951  0.6909698128241146  1.0000
  H   H23       1.0  0.3990067150104011  0.6512704343446745  0.19097144980837308  1.0000
  H   H24       1.0  0.8990011833957325  0.8487305721462448  0.3090290759589038  1.0000
  C   C1        1.0  0.9140603746868835  0.37050736378929394  0.6490774723777977  1.0000
  C   C2        1.0  0.41405953888137503  0.1294922133947054  0.8509232511611132  1.0000
  C   C3        1.0  0.08593927410655772  0.6294926406651272  0.35092368616950165  1.0000
  C   C4        1.0  0.5859360134475085  0.8705059827813528  0.1490751040837567  1.0000
  C   C5        1.0  0.994839037928962  0.2384091964727944  0.3216307612092707  1.0000
  C   C6        1.0  0.4948370453569808  0.26159079891314013  0.17836905940234266  1.0000
  C   C7        1.0  0.0051647073328667005  0.761588999710746  0.6783675940315207  1.0000
  C   C8        1.0  0.5051639689197245  0.7384073827314738  0.82163232219218  1.0000
  C   C9        1.0  0.8350000489854139  0.2491516767213256  0.4676856467631297  1.0000
  C   C10       1.0  0.33500008021999156  0.2508471174791964  0.03231406596471942  1.0000
  C   C11       1.0  0.1650009653006066  0.7508474290481858  0.5323129752491128  1.0000
  C   C12       1.0  0.6650022995529667  0.7491528906118251  0.9676863359931291  1.0000
  C   C13       1.0  0.31935910086464503  0.4963482515991019  0.5801971835770061  1.0000
  C   C14       1.0  0.8193565889060466  0.0036511600853685986  0.9198021209239826  1.0000
  C   C15       1.0  0.6806391824455603  0.5036526697107534  0.41980272856487494  1.0000
  C   C16       1.0  0.18064169440606292  0.9963479529498686  0.080194987913437  1.0000
  C   C17       1.0  0.1042535107867408  0.37617105482065943  0.5008396193504369  1.0000
  C   C18       1.0  0.6042499045939139  0.12382613799444901  0.9991608786119813  1.0000
  C   C19       1.0  0.8957488689918023  0.6238298701270395  0.4991595362013187  1.0000
  C   C20       1.0  0.3957483787014766  0.8761693185163754  0.0008389460855299393  1.0000
  C   C21       1.0  0.8501271083187589  0.1597569352378727  0.2966698417857003  1.0000
  C   C22       1.0  0.350129522254683  0.3402446153269524  0.20333065621424856  1.0000
  C   C23       1.0  0.1498725404783983  0.8402439824391195  0.7033308269435993  1.0000
  C   C24       1.0  0.649870126536939  0.6597535735846378  0.7966692122047689  1.0000
  C   C25       1.0  0.648331920388685  0.2721697317934328  0.6336925012966007  1.0000
  C   C26       1.0  0.14833154994417447  0.22783027383763257  0.8663079965704271  1.0000
  C   C27       1.0  0.35166909390098783  0.7278330050617473  0.3663087009722121  1.0000
  C   C28       1.0  0.851664002375408  0.7721660922591698  0.1336920948985353  1.0000
  C   C29       1.0  0.2093236895050907  0.4868287741420474  0.6613352042550318  1.0000
  C   C30       1.0  0.7093216284564435  0.013171346390599603  0.8386644763961046  1.0000
  C   C31       1.0  0.7906773247809157  0.5131712375818369  0.3386644411153982  1.0000
  C   C32       1.0  0.29067802034632  0.9868295821887187  0.16133392256891457  1.0000
  C   C33       1.0  0.6835013764011109  0.3386769815528795  0.7383592175887443  1.0000
  C   C34       1.0  0.18350251972317014  0.16132308824020214  0.7616412453174632  1.0000
  C   C35       1.0  0.3165023688606469  0.6613239324937441  0.26164220772660945  1.0000
  C   C36       1.0  0.8164957635796171  0.8386751006701377  0.2383586231022364  1.0000
  I   I1        1.0  0.24615037914210802  0.5594417707153954  0.9641318495272843  1.0000
  I   I2        1.0  0.7461535218486405  0.940559610212013  0.5358668912298015  1.0000
  I   I3        1.0  0.7538520006251587  0.44056185029074874  0.03587491562759484  1.0000
  I   I4        1.0  0.25384476147272045  0.059443144811211816  0.4641305280999006  1.0000
  N   N1        1.0  0.7500666110057352  0.16621022946375777  0.38829002231513243  1.0000
  N   N2        1.0  0.2500680739867178  0.3337911385570038  0.11171057515004182  1.0000
  N   N3        1.0  0.2499344032820972  0.8337915978029502  0.6117109131835792  1.0000
  N   N4        1.0  0.7499329402955441  0.6662088658986606  0.8882905833965753  1.0000
  N   N5        1.0  0.06878476079438661  0.408865049047769  0.6098431588467578  1.0000
  N   N6        1.0  0.568781510182461  0.09113299228359749  0.8901568845550615  1.0000
  N   N7        1.0  0.9312189844673926  0.5911349590444958  0.39015724311041583  1.0000
  N   N8        1.0  0.4312181386110226  0.9088652002620917  0.1098422272758627  1.0000
  N   N9        1.0  0.7970038095906418  0.2921906042203801  0.5758917624010139  1.0000
  N   N10       1.0  0.2970044105911285  0.20780966900380093  0.9241093442669027  1.0000
  N   N11       1.0  0.2029958392083415  0.7078121289994499  0.4241101964565673  1.0000
  N   N12       1.0  0.7029938727079497  0.7921876066839603  0.07589101397079655  1.0000
  N   N13       1.0  0.9850210619568858  0.2962044804713031  0.4316833800548494  1.0000
  N   N14       1.0  0.48501929203231253  0.20379367055846845  0.06831742995218093  1.0000
  N   N15       1.0  0.0149813178160727  0.7037955276197112  0.568317021902999  1.0000
  N   N16       1.0  0.5149817222481304  0.7962045183543653  0.9316824384661616  1.0000
  N   N17       1.0  0.8499641675885102  0.40006436106382653  0.7480168693854239  1.0000
  N   N18       1.0  0.3499636551813338  0.09993509918794534  0.751983917867918  1.0000
  N   N19       1.0  0.15003957767324752  0.599936552982797  0.2519845559299371  1.0000
  N   N20       1.0  0.6500346281251765  0.9000640029449727  0.24801546073378233  1.0000
  N   N21       1.0  0.2527451512908669  0.4274705841357049  0.479766091383752  1.0000
  N   N22       1.0  0.752742249884335  0.072527150413741  0.020233436340632207  1.0000
  N   N23       1.0  0.7472544975118752  0.5725312503979794  0.5202333309394548  1.0000
  N   N24       1.0  0.24725739890548232  0.9274683170006528  0.9797641185919235  1.0000
