data_image0
_chemical_formula_structural       Tb4H96C120N20O32
_chemical_formula_sum              "Tb4 H96 C120 N20 O32"
_cell_length_a       9.625788445739774
_cell_length_b       17.262321380839467
_cell_length_c       27.571935906340826
_cell_angle_alpha    106.98692216066452
_cell_angle_beta     90.01202774012474
_cell_angle_gamma    106.1999935499986

_space_group_name_H-M_alt    "P 1"
_space_group_IT_number       1

loop_
  _space_group_symop_operation_xyz
  'x, y, z'

loop_
  _atom_site_type_symbol
  _atom_site_label
  _atom_site_symmetry_multiplicity
  _atom_site_fract_x
  _atom_site_fract_y
  _atom_site_fract_z
  _atom_site_occupancy
  Tb  Tb1       1.0  0.8335885710515143  0.8984873828448131  0.49808210058328944  1.0000
  Tb  Tb2       1.0  0.9346864612591261  0.10149016291143909  0.001961752297255299  1.0000
  Tb  Tb3       1.0  0.1663960300720646  0.10151313698621318  0.5019165020392933  1.0000
  Tb  Tb4       1.0  0.06531692926073862  0.898508459676698  0.9980357777376556  1.0000
  H   H1        1.0  0.863368622045833  0.2781642991252013  0.4164414851312658  1.0000
  H   H2        1.0  0.5854415234320527  0.7214182615446916  0.0836929896672416  1.0000
  H   H3        1.0  0.1366433058248474  0.7218368493437736  0.5835623114014439  1.0000
  H   H4        1.0  0.4145661609952925  0.2785847892782485  0.9163089794241088  1.0000
  H   H5        1.0  0.9396039294071695  0.18415029345405284  0.4580753624610452  1.0000
  H   H6        1.0  0.7555296184847932  0.8152613998099766  0.0419051945883879  1.0000
  H   H7        1.0  0.060380985487654394  0.8158508488815952  0.5419313334541656  1.0000
  H   H8        1.0  0.2444711988778252  0.1847403839411257  0.9580965419026839  1.0000
  H   H9        1.0  0.5766430250637455  0.9750542419198849  0.37641553178306003  1.0000
  H   H10       1.0  0.6026589181318869  0.0245951205701616  0.12353992463351203  1.0000
  H   H11       1.0  0.4233483032520694  0.0249431112112646  0.6235832157738486  1.0000
  H   H12       1.0  0.39734885515736107  0.97540603147651  0.876460970900368  1.0000
  H   H13       1.0  0.5243304941241291  0.47815097285473485  0.321474987659883  1.0000
  H   H14       1.0  0.04643314917348822  0.5218178641080087  0.17884850276652745  1.0000
  H   H15       1.0  0.47568184075117154  0.5218489150163917  0.6785242254747177  1.0000
  H   H16       1.0  0.9535742186138307  0.478184553924372  0.8211529875884053  1.0000
  H   H17       1.0  0.2007199023003281  0.2481478766341922  0.15087809125260077  1.0000
  H   H18       1.0  0.9526970138240711  0.751803889673461  0.34918300381021083  1.0000
  H   H19       1.0  0.7992733759099481  0.7518596023595805  0.8491272281316429  1.0000
  H   H20       1.0  0.04728405078972743  0.24818332809704913  0.6508156982507955  1.0000
  H   H21       1.0  0.5827890183397813  0.6344301165688008  0.36760707689316524  1.0000
  H   H22       1.0  0.9479386488161338  0.3655928428201348  0.13268334670156182  1.0000
  H   H23       1.0  0.41720949327095275  0.365569134955308  0.632393469794188  1.0000
  H   H24       1.0  0.05206465092930302  0.6344076716869864  0.867320333261617  1.0000
  H   H25       1.0  0.810498543296049  0.4535635428347433  0.4319332591639764  1.0000
  H   H26       1.0  0.3556337736398019  0.5464414569479316  0.0679425770413076  1.0000
  H   H27       1.0  0.18950945695166857  0.5464401378399015  0.5680713642512814  1.0000
  H   H28       1.0  0.6443777491387834  0.45356095897617627  0.9320607265187064  1.0000
  H   H29       1.0  0.8736766703673593  0.6104958874952189  0.47636243337058914  1.0000
  H   H30       1.0  0.261164346076633  0.3895541302257541  0.023454133825247  1.0000
  H   H31       1.0  0.1263266813449206  0.38951096298851706  0.5236398696306068  1.0000
  H   H32       1.0  0.7388433390337565  0.6104489230462062  0.9765460222765301  1.0000
  H   H33       1.0  0.5080371603899321  0.06847843227024697  0.33118758529842307  1.0000
  H   H34       1.0  0.4408862125050845  0.9314791523682756  0.16902336496762166  1.0000
  H   H35       1.0  0.49199519381989626  0.9315303252526802  0.6688114415938387  1.0000
  H   H36       1.0  0.5591163661912759  0.06852199925245368  0.8309775302968704  1.0000
  H   H37       1.0  0.3540318450586213  0.319534558818212  0.23477334819534687  1.0000
  H   H38       1.0  0.0344557648403807  0.6804779476578062  0.26528776406201626  1.0000
  H   H39       1.0  0.6459897144635177  0.6804754638385547  0.7652262729791915  1.0000
  H   H40       1.0  0.965539541972376  0.3195232053258366  0.7347116804336765  1.0000
  H   H41       1.0  0.3192502011149401  0.02152296792711179  0.1368813775796056  1.0000
  H   H42       1.0  0.29758835250542154  0.9785140445587858  0.3631313428520713  1.0000
  H   H43       1.0  0.6807487686476108  0.9784813560369301  0.8631153843351316  1.0000
  H   H44       1.0  0.7024027444804517  0.021480764270592097  0.6368752799567333  1.0000
  H   H45       1.0  0.4645402741811252  0.0903481721196613  0.22260643486644943  1.0000
  H   H46       1.0  0.37411840991060064  0.9097456656521602  0.2774187082881525  1.0000
  H   H47       1.0  0.5354899530934886  0.9096542595421935  0.7773863543238378  1.0000
  H   H48       1.0  0.6258865612138107  0.0902561115824057  0.7225881047892387  1.0000
  H   H49       1.0  0.2705019627272661  0.6766823595686944  0.49969028480808225  1.0000
  H   H50       1.0  0.5941213079450804  0.3233056023376832  0.00010785417200759336  1.0000
  H   H51       1.0  0.7295153872412071  0.32332131991341834  0.5003157894837287  1.0000
  H   H52       1.0  0.40589717037376977  0.6766996962260877  0.9999042297163216  1.0000
  H   H53       1.0  0.37263378311505596  0.6564673807902325  0.44515247812528  1.0000
  H   H54       1.0  0.7166526973000202  0.3436619466013796  0.05461130841160164  1.0000
  H   H55       1.0  0.6273874579911477  0.343542002708503  0.5548513780857292  1.0000
  H   H56       1.0  0.2833410207116742  0.6563360223474818  0.9454006089165008  1.0000
  H   H57       1.0  0.4650685957512478  0.7116283813694081  0.5072237903166866  1.0000
  H   H58       1.0  0.7535706779633102  0.2881697823380803  0.9925475934775747  1.0000
  H   H59       1.0  0.5349484163003524  0.2883974727637624  0.49277837107602823  1.0000
  H   H60       1.0  0.2464432879806893  0.7118395907682212  0.0074635143145797955  1.0000
  H   H61       1.0  0.14512504356220293  0.7623119936461293  0.4578155483846871  1.0000
  H   H62       1.0  0.38323661301181733  0.2382483993900451  0.042313462860981615  1.0000
  H   H63       1.0  0.8548359640023548  0.23767458628663007  0.5421852121016357  1.0000
  H   H64       1.0  0.6167691702093094  0.7617508497915396  0.9576892597909962  1.0000
  H   H65       1.0  0.2684111372056606  0.8489264612812094  0.4423916919447707  1.0000
  H   H66       1.0  0.41968141558342603  0.15164753697323619  0.05783854402645971  1.0000
  H   H67       1.0  0.7315346945411249  0.151058860204536  0.5576019461498732  1.0000
  H   H68       1.0  0.5803200727739509  0.848347280544914  0.942162277754484  1.0000
  H   H69       1.0  0.25025668031906184  0.7425607187023289  0.40436317594350873  1.0000
  H   H70       1.0  0.5085367135685813  0.25799081051986417  0.09569508000844001  1.0000
  H   H71       1.0  0.7497073052216122  0.2574214316327216  0.5956345962551808  1.0000
  H   H72       1.0  0.4914714630368522  0.7420090677041955  0.9043110222710383  1.0000
  H   H73       1.0  0.9015903954351144  0.7120518233649589  0.6385426508396037  1.0000
  H   H74       1.0  0.1892935504271591  0.2873296451412415  0.8613724841104473  1.0000
  H   H75       1.0  0.098422209031277  0.28794237895311164  0.361445364468473  1.0000
  H   H76       1.0  0.8107167428230044  0.7126620053575935  0.13862884531049255  1.0000
  H   H77       1.0  0.7279232540834569  0.7205513294558017  0.6581795387251788  1.0000
  H   H78       1.0  0.00734803323091882  0.2789627381786417  0.8415408099046645  1.0000
  H   H79       1.0  0.272064756439697  0.2794207040036056  0.3418065866222975  1.0000
  H   H80       1.0  0.9926585609940517  0.7210339790315102  0.1584607231052217  1.0000
  H   H81       1.0  0.7751451985553998  0.7243894136551744  0.5956871050315229  1.0000
  H   H82       1.0  0.05018701806476141  0.27522376894064854  0.9041225576093552  1.0000
  H   H83       1.0  0.22484909785588056  0.2755889577613856  0.40429655588349084  1.0000
  H   H84       1.0  0.9498259879419068  0.7247691531873314  0.095875378217201  1.0000
  H   H85       1.0  0.04324519426538834  0.8464160742560907  0.708787973799197  1.0000
  H   H86       1.0  0.19641800639888632  0.1528073108931949  0.7912623167339279  1.0000
  H   H87       1.0  0.9567282104936154  0.15358699040905316  0.29120166518508483  1.0000
  H   H88       1.0  0.8035937840582718  0.8471894126205725  0.20873486537036715  1.0000
  H   H89       1.0  0.9903437051241397  0.9398898714336211  0.7142530056071479  1.0000
  H   H90       1.0  0.0497776299853001  0.05944163077602838  0.7858063279494871  1.0000
  H   H91       1.0  0.009599258317763298  0.060112572174915606  0.2857256377387358  1.0000
  H   H92       1.0  0.950220604339428  0.9405487620211586  0.21418751664349137  1.0000
  H   H93       1.0  0.874998391392637  0.8555484768071153  0.7340882558757755  1.0000
  H   H94       1.0  0.019200523642574276  0.14372946779208454  0.7658060932447057  1.0000
  H   H95       1.0  0.12496466216853011  0.14444635617172003  0.2658987851909346  1.0000
  H   H96       1.0  0.9808020546439666  0.8562716823592283  0.23419588981353467  1.0000
  C   C1        1.0  0.5059292856012262  0.24829345126572377  0.2829804223218346  1.0000
  C   C2        1.0  0.25776969079914386  0.7517118082794952  0.21710623434199763  1.0000
  C   C3        1.0  0.494112914469092  0.7517121466701654  0.7170136732955826  1.0000
  C   C4        1.0  0.7422268827103197  0.24829187635614863  0.7828947625014564  1.0000
  C   C5        1.0  0.6252632749893366  0.3644908937772087  0.34833823616064313  1.0000
  C   C6        1.0  0.2606289186841196  0.635484445079463  0.1517808006781607  1.0000
  C   C7        1.0  0.37474441012105325  0.6355121594947589  0.6516619199411339  1.0000
  C   C8        1.0  0.7393853154848882  0.3645192375757275  0.8482227352666173  1.0000
  C   C9        1.0  0.635403783807675  0.23384724654444966  0.34711275419940796  1.0000
  C   C10       1.0  0.4020499986195316  0.7660137699956805  0.1530641628849381  1.0000
  C   C11       1.0  0.3646249089550651  0.7661583453859464  0.652884966696746  1.0000
  C   C12       1.0  0.5979569632560454  0.23398991255300666  0.8469390100847819  1.0000
  C   C13       1.0  0.7633193590320387  0.7235712257414731  0.4518158166851052  1.0000
  C   C14       1.0  0.038598615193471617  0.2764606249730264  0.04825717562107461  1.0000
  C   C15       1.0  0.23667929135831398  0.2764324556359058  0.5481877184515086  1.0000
  C   C16       1.0  0.961406813809525  0.7235462237218615  0.95174657787954  1.0000
  C   C17       1.0  0.7622262664761053  0.07395299965216398  0.4193173424477905  1.0000
  C   C18       1.0  0.6887392652610985  0.9255501813318219  0.08062965353712315  1.0000
  C   C19       1.0  0.23775521597922739  0.9260475130660167  0.5806863363839626  1.0000
  C   C20       1.0  0.311262274516686  0.0744509702037277  0.9193712416734955  1.0000
  C   C21       1.0  0.8017389314141852  0.018574505134076002  0.446089449832229  1.0000
  C   C22       1.0  0.7833471299615411  0.9808821690548868  0.05376364756043727  1.0000
  C   C23       1.0  0.1982279051161696  0.9814133447241671  0.5539093676130022  1.0000
  C   C24       1.0  0.21666448208877395  0.019118349562376097  0.9462374946483649  1.0000
  C   C25       1.0  0.8030357340651618  0.21132473682965267  0.4072292354354375  1.0000
  C   C26       1.0  0.5921236160433734  0.7882908209645761  0.092883926417386  1.0000
  C   C27       1.0  0.19698432852320008  0.7886802137917924  0.5927738078599064  1.0000
  C   C28       1.0  0.4078634684192862  0.2117084330511148  0.9071140814918977  1.0000
  C   C29       1.0  0.6634410364578187  0.4566629248334735  0.37415677796240493  1.0000
  C   C30       1.0  0.20625603923810593  0.5433434246680379  0.12593579521534795  1.0000
  C   C31       1.0  0.33655363434272084  0.5433369527729538  0.6258489610187468  1.0000
  C   C32       1.0  0.79374884507353  0.4566602586898796  0.874066652450786  1.0000
  C   C33       1.0  0.7309268393226914  0.6308511945039894  0.42454671275382344  1.0000
  C   C34       1.0  0.09886742087440582  0.3691975401211352  0.07550573934664581  1.0000
  C   C35       1.0  0.2690788566758329  0.36914995933152983  0.5754527322806382  1.0000
  C   C36       1.0  0.9011380972637112  0.6308074107771092  0.9244962154006728  1.0000
  C   C37       1.0  0.8447587206250304  0.15904030163547836  0.43049871093688113  1.0000
  C   C38       1.0  0.6859964966208381  0.8404604813120075  0.0695062746597515  1.0000
  C   C39       1.0  0.15524547939597974  0.8409557835933653  0.5695016180330015  1.0000
  C   C40       1.0  0.3140088815081866  0.1595400353247101  0.930495955019531  1.0000
  C   C41       1.0  0.6404316589158938  0.0409239137559254  0.3836768371059592  1.0000
  C   C42       1.0  0.6003416166154805  0.9587171114706192  0.11633810947176222  1.0000
  C   C43       1.0  0.3595631037519383  0.9590740758499764  0.6163198511635956  1.0000
  C   C44       1.0  0.39966520648048487  0.0412821412247979  0.8836620750486903  1.0000
  C   C45       1.0  0.5998073609829787  0.507700842400368  0.3556256512625425  1.0000
  C   C46       1.0  0.091801485436207  0.49231799437241364  0.14456638263590801  1.0000
  C   C47       1.0  0.40020632986074384  0.4922996798159075  0.6443729528686148  1.0000
  C   C48       1.0  0.9082072377731052  0.5076850560459006  0.8554359491072319  1.0000
  C   C49       1.0  0.1672978592069825  0.088381940825478  0.08834694302525752  1.0000
  C   C50       1.0  0.0790129938610917  0.9116278094807767  0.4116815895051928  1.0000
  C   C51       1.0  0.8327068859152146  0.9116173112097598  0.9116536039853574  1.0000
  C   C52       1.0  0.9209645476754034  0.0883606710810554  0.5883198828027218  1.0000
  C   C53       1.0  0.2600246997119413  0.2147273860757792  0.16700382319660184  1.0000
  C   C54       1.0  0.04533955296578541  0.7852523411583404  0.33304821733490547  1.0000
  C   C55       1.0  0.7399817684828491  0.7852794636839134  0.8329992051620608  1.0000
  C   C56       1.0  0.9546479722545483  0.21473740624108467  0.6669538503328314  1.0000
  C   C57       1.0  0.6323284480122735  0.593905719795863  0.38094239862807194  1.0000
  C   C58       1.0  0.03777434324837261  0.4061208607009803  0.11924409764748842  1.0000
  C   C59       1.0  0.3676771596707836  0.40609733477514004  0.6190566695722026  1.0000
  C   C60       1.0  0.9622247129171199  0.5938815556702933  0.8807581174722543  1.0000
  C   C61       1.0  0.6816563311321888  0.1784695894940569  0.3713297655416454  1.0000
  C   C62       1.0  0.5039399921169971  0.8212914597612337  0.12885531118577379  1.0000
  C   C63       1.0  0.3183639601905597  0.821537896122848  0.6286722918621876  1.0000
  C   C64       1.0  0.49606385368588957  0.178712224980913  0.8711460486327384  1.0000
  C   C65       1.0  0.2518654606321249  0.1309564163922587  0.139631741725033  1.0000
  C   C66       1.0  0.12090260326692001  0.8690554853313159  0.36039096126557985  1.0000
  C   C67       1.0  0.748138613768539  0.8690498028555425  0.8603689947998776  1.0000
  C   C68       1.0  0.879085961145208  0.1309342631329073  0.639610381260205  1.0000
  C   C69       1.0  0.7623194720118249  0.4938774321872259  0.4179018331701769  1.0000
  C   C70       1.0  0.26734106278636455  0.5061257547532775  0.08205859181721561  1.0000
  C   C71       1.0  0.2376807113877106  0.5061230835337511  0.5821007588376262  1.0000
  C   C72       1.0  0.7326721319176244  0.4938779258574968  0.9179463944653464  1.0000
  C   C73       1.0  0.7966793370578316  0.5804108128677401  0.4425680190805253  1.0000
  C   C74       1.0  0.2147772140052666  0.4196219441830848  0.057372495183763306  1.0000
  C   C75       1.0  0.20331158329710772  0.4195877974326124  0.5574378500598912  1.0000
  C   C76       1.0  0.7852266323440489  0.5803817425182913  0.9426274142430914  1.0000
  C   C77       1.0  0.6019951565682432  0.0925579592314421  0.3591087578579035  1.0000
  C   C78       1.0  0.5104122474740793  0.9072319775450454  0.14103467310979315  1.0000
  C   C79       1.0  0.3980305578085534  0.9074520608272393  0.6408930391196251  1.0000
  C   C80       1.0  0.48960013704571986  0.09277423797599481  0.8589693272273777  1.0000
  C   C81       1.0  0.344026556828716  0.2539303826135537  0.21343997135883092  1.0000
  C   C82       1.0  0.0901321823363758  0.7460801797248846  0.2866148497171324  1.0000
  C   C83       1.0  0.6559896672717969  0.7460752024169109  0.7865621000657653  1.0000
  C   C84       1.0  0.9098726495985969  0.2539171661869943  0.7133900627047326  1.0000
  C   C85       1.0  0.3261547362633337  0.08610920831017668  0.15946567196365893  1.0000
  C   C86       1.0  0.2399652021645409  0.9139160336468991  0.3405524523162244  1.0000
  C   C87       1.0  0.6738518214764042  0.9138957451222822  0.8405344698479665  1.0000
  C   C88       1.0  0.7600321286060064  0.08607877667321871  0.6594534456200166  1.0000
  C   C89       1.0  0.41737730272637213  0.20878301184711026  0.23363083842267682  1.0000
  C   C90       1.0  0.2086475830663375  0.7912572364532053  0.26642017048018835  1.0000
  C   C91       1.0  0.5826578517357744  0.7912251136306309  0.7663673472968854  1.0000
  C   C92       1.0  0.7913497119020292  0.2087458125382469  0.7335825232682112  1.0000
  C   C93       1.0  0.40686894447399163  0.12428456445620378  0.2063541262714708  1.0000
  C   C94       1.0  0.28250319402263824  0.875800823072936  0.2936704984796067  1.0000
  C   C95       1.0  0.5931559099375078  0.8757216623730171  0.7936422601560197  1.0000
  C   C96       1.0  0.7175046653963405  0.12419842040135622  0.7063365754551044  1.0000
  C   C97       1.0  0.47333918013384135  0.8533374859353415  0.4970824650169946  1.0000
  C   C98       1.0  0.6197420283096163  0.14672463825908716  0.0029574747196007977  1.0000
  C   C99       1.0  0.5266168911693399  0.1466807680667088  0.5029153989670689  1.0000
  C   C100      1.0  0.3802665566665127  0.8532739842651865  0.997040418182614  1.0000
  C   C101      1.0  0.3691132422700818  0.7017114943307945  0.48231705076230474  1.0000
  C   C102      1.0  0.6677206036569245  0.29831022301924287  0.017490717941953397  1.0000
  C   C103      1.0  0.6308927323805378  0.2982985231297092  0.5176854703873843  1.0000
  C   C104      1.0  0.3322915503525792  0.7016934511388727  0.9825189820596237  1.0000
  C   C105      1.0  0.2506679790997239  0.7839232080624328  0.44323269471366444  1.0000
  C   C106      1.0  0.4671406372258531  0.2165678976225678  0.05686483631151162  1.0000
  C   C107      1.0  0.7492919907757312  0.2160633761933894  0.5567648023375469  1.0000
  C   C108      1.0  0.532862750152006  0.7834307137000353  0.9431410334754419  1.0000
  C   C109      1.0  0.8747658577949053  0.8830083172695495  0.6256085585258474  1.0000
  C   C110      1.0  0.9912508201952761  0.1166500895726585  0.8744054877075484  1.0000
  C   C111      1.0  0.1251836005530365  0.11698841190869298  0.374380643191664  1.0000
  C   C112      1.0  0.008761059943431368  0.8833447381036805  0.12558844525178614  1.0000
  C   C113      1.0  0.8163848221106064  0.7420984186265329  0.635636720803099  1.0000
  C   C114      1.0  0.07393737966229001  0.2574212430240763  0.8642042470661836  1.0000
  C   C115      1.0  0.18360617927470457  0.2578837481277674  0.36435053745687906  1.0000
  C   C116      1.0  0.9260748158869703  0.7425742130345583  0.13579342801080682  1.0000
  C   C117      1.0  0.950600762552881  0.8710566093094272  0.706085326917247  1.0000
  C   C118      1.0  0.07906320038648569  0.1282665362993924  0.7938981008862029  1.0000
  C   C119      1.0  0.04937088032594521  0.12894708552686748  0.2939066036852793  1.0000
  C   C120      1.0  0.9209450169390436  0.8717251208863529  0.20609815205617824  1.0000
  N   N1        1.0  0.6798530664941679  0.3179364168494274  0.370424751549109  1.0000
  N   N2        1.0  0.36209677015732206  0.681940823220394  0.1297378970492318  1.0000
  N   N3        1.0  0.3201558857227411  0.6820691695439577  0.6295758691066881  1.0000
  N   N4        1.0  0.6379063540500524  0.31806349667614603  0.8702621284622511  1.0000
  N   N5        1.0  0.5371505315813039  0.3325932639511961  0.30476084627623834  1.0000
  N   N6        1.0  0.20436716208325822  0.6674405994688042  0.1953106536533014  1.0000
  N   N7        1.0  0.4628799222419602  0.6674116948692159  0.6952367585891608  1.0000
  N   N8        1.0  0.7956447661972489  0.3325605504695872  0.804692055085667  1.0000
  N   N9        1.0  0.5497313457395734  0.19619618693171506  0.30332984225133697  1.0000
  N   N10       1.0  0.3540317314217276  0.8037337255911153  0.19680437199467352  1.0000
  N   N11       1.0  0.45031803926496383  0.8038113152748066  0.6966617013215384  1.0000
  N   N12       1.0  0.6459804243636853  0.19626995493447913  0.8032006142340081  1.0000
  N   N13       1.0  0.36886367987237617  0.7829330697831904  0.47582141750561396  1.0000
  N   N14       1.0  0.5860257869424003  0.2172444872105643  0.0241508199968692  1.0000
  N   N15       1.0  0.6311055660703246  0.21706998327567106  0.5241765610152029  1.0000
  N   N16       1.0  0.41397670193580194  0.7827585597577952  0.975853687010492  1.0000
  N   N17       1.0  0.8776263193296074  0.8344897613310066  0.6547728225621868  1.0000
  N   N18       1.0  0.04256171864020792  0.16501577243246152  0.8451497098791239  1.0000
  N   N19       1.0  0.12234337146902868  0.16550379980576216  0.34521833777963457  1.0000
  N   N20       1.0  0.9574520112843103  0.8349765228678337  0.154843396089916  1.0000
  O   O1        1.0  0.6850348748858933  0.7646383372821218  0.43963546535028547  1.0000
  O   O2        1.0  0.9195882344196493  0.23528120074571038  0.06058503679994939  1.0000
  O   O3        1.0  0.3149372534772112  0.2353621609548  0.5603783657381811  1.0000
  O   O4        1.0  0.08041855055177652  0.7647262822943331  0.9394181076972219  1.0000
  O   O5        1.0  0.928055055471809  0.04310346020489669  0.4700981336467863  1.0000
  O   O6        1.0  0.8851371298705288  0.9564884900483435  0.029748636462827053  1.0000
  O   O7        1.0  0.07191489644819174  0.956884385010845  0.5299043099392264  1.0000
  O   O8        1.0  0.11486770397696229  0.0435088627208202  0.9702511995882334  1.0000
  O   O9        1.0  0.7102113397818287  0.9491867248380715  0.44521995071838216  1.0000
  O   O10       1.0  0.760979744368754  0.05020993778261838  0.054627015340202006  1.0000
  O   O11       1.0  0.289760237287858  0.0507960677003467  0.5547717738313978  1.0000
  O   O12       1.0  0.239025089888564  0.9497874164559619  0.9453717329171101  1.0000
  O   O13       1.0  0.8683011826383975  0.7593327202258563  0.4869981705830143  1.0000
  O   O14       1.0  0.10757641047302971  0.24078195842412242  0.012968749866360003  1.0000
  O   O15       1.0  0.13169656979872707  0.24067539875649394  0.5130025513823568  1.0000
  O   O16       1.0  0.8924157432353752  0.7592274310160648  0.9870289406715218  1.0000
  O   O17       1.0  0.5835135701328157  0.8667422676631206  0.5244826499870642  1.0000
  O   O18       1.0  0.716231397335484  0.13303629302761522  0.9755028368578209  1.0000
  O   O19       1.0  0.4164396652524687  0.13328485754525585  0.47551248838394866  1.0000
  O   O20       1.0  0.28377755488143214  0.8669692933657629  0.024497783797976118  1.0000
  O   O21       1.0  0.083587210511439  0.12502545299632567  0.0747919668892649  1.0000
  O   O22       1.0  0.958786447966169  0.874891235433246  0.42526549790119367  1.0000
  O   O23       1.0  0.916422640614961  0.8749756992207196  0.9252089287523759  1.0000
  O   O24       1.0  0.041191639354551106  0.12510041438400776  0.5747343794578798  1.0000
  O   O25       1.0  0.18892015441983998  0.019232785539451  0.0626736024696939  1.0000
  O   O26       1.0  0.16970527388606607  0.9808489069891733  0.4373421550762587  1.0000
  O   O27       1.0  0.8110746950607677  0.980763297943099  0.9373274512111182  1.0000
  O   O28       1.0  0.8302701008147652  0.0191414716887337  0.5626607532792818  1.0000
  O   O29       1.0  0.8214906511946367  0.8640174569002995  0.5819891510582026  1.0000
  O   O30       1.0  0.9570306464994758  0.13580670649324836  0.918013261073803  1.0000
  O   O31       1.0  0.17846912971027254  0.13595836789311735  0.4180020207328354  1.0000
  O   O32       1.0  0.04299338374891454  0.8641874884351778  0.0819809189914764  1.0000
