data_image0
_chemical_formula_structural       Co2H28C28S4N4O10
_chemical_formula_sum              "Co2 H28 C28 S4 N4 O10"
_cell_length_a       5.621495616594273
_cell_length_b       8.738795382152054
_cell_length_c       17.24081346045545
_cell_angle_alpha    104.39745679833526
_cell_angle_beta     88.7975119974994
_cell_angle_gamma    107.26448214576001

_space_group_name_H-M_alt    "P 1"
_space_group_IT_number       1

loop_
  _space_group_symop_operation_xyz
  'x, y, z'

loop_
  _atom_site_type_symbol
  _atom_site_label
  _atom_site_symmetry_multiplicity
  _atom_site_fract_x
  _atom_site_fract_y
  _atom_site_fract_z
  _atom_site_occupancy
  Co  Co1       1.0  0.028587959654643703  0.005997637429892739  0.7516203002115988  1.0000
  Co  Co2       1.0  0.971416909691669  0.9940036513935127  0.2483766324519436  1.0000
  H   H1        1.0  0.8808350095966162  0.2944697975927824  0.7499449161364709  1.0000
  H   H2        1.0  0.43256202490401546  0.2699671321338855  0.24299849525873193  1.0000
  H   H3        1.0  0.11917738410944888  0.70553288030456  0.2500602547415554  1.0000
  H   H4        1.0  0.5674282981957148  0.7300487825229997  0.7570043969907729  1.0000
  H   H5        1.0  0.9693385450828556  0.5770598512883254  0.8353028218322152  1.0000
  H   H6        1.0  0.6199410533836412  0.5520779573659311  0.3270663442274184  1.0000
  H   H7        1.0  0.030641079795742626  0.4229484152071877  0.1646977148676569  1.0000
  H   H8        1.0  0.380063962371814  0.447927573868519  0.672933859677528  1.0000
  H   H9        1.0  0.6023601901955971  0.49978351062716825  0.942149192338519  1.0000
  H   H10       1.0  0.9170452454862141  0.5039964117088047  0.4422083225637294  1.0000
  H   H11       1.0  0.39760837007568745  0.5002166033853755  0.057853022064804804  1.0000
  H   H12       1.0  0.08294402189466157  0.49599863809004335  0.5577939612461124  1.0000
  H   H13       1.0  0.47874657847118135  0.2171992131413916  0.85424285685567  1.0000
  H   H14       1.0  0.7644426933070745  0.22068751661360156  0.3566408210746701  1.0000
  H   H15       1.0  0.5212499847304599  0.7827776824027879  0.14576076282156697  1.0000
  H   H16       1.0  0.23554089618505725  0.7792958150627317  0.6433639798262192  1.0000
  H   H17       1.0  0.9321280278231683  0.7642389984547294  0.9563506886384089  1.0000
  H   H18       1.0  0.829870539500433  0.7506340181276415  0.44642580770954515  1.0000
  H   H19       1.0  0.0678445991096339  0.2357463705708369  0.0436374477315908  1.0000
  H   H20       1.0  0.17017394990283918  0.2493758689991026  0.5535734476623944  1.0000
  H   H21       1.0  0.1541001261099666  0.9513848026666096  0.00613951660626103  1.0000
  H   H22       1.0  0.7790025877754444  0.9281033670193607  0.5127844770087931  1.0000
  H   H23       1.0  0.8459001227145819  0.04861883395235375  0.9938704405494363  1.0000
  H   H24       1.0  0.22101991717421748  0.07190125649247393  0.4872115060500022  1.0000
  H   H25       1.0  0.5453465739496649  0.9743549669246364  0.7870739680510397  1.0000
  H   H26       1.0  0.41353825538057987  0.9715208463326804  0.2952447192100465  1.0000
  H   H27       1.0  0.4546638805259916  0.025650928195069908  0.2129285738841702  1.0000
  H   H28       1.0  0.5864607773901723  0.028479469988461435  0.7047533178100736  1.0000
  C   C1        1.0  0.03499907517697665  0.343540685119038  0.7948788852238735  1.0000
  C   C2        1.0  0.32605726860123946  0.32419826341283203  0.2895044278920622  1.0000
  C   C3        1.0  0.9649743166116734  0.656454733159876  0.20512465662264387  1.0000
  C   C4        1.0  0.673957732828285  0.6758132644118222  0.710495665286885  1.0000
  C   C5        1.0  0.08646865249006902  0.5027330666103181  0.8437468009905302  1.0000
  C   C6        1.0  0.4304210683143523  0.4842415750274044  0.3372215700801107  1.0000
  C   C7        1.0  0.9135155110876101  0.4972620193294478  0.15624852066972755  1.0000
  C   C8        1.0  0.5695893437554247  0.5157679367308604  0.6627806978990236  1.0000
  C   C9        1.0  0.2831806427113861  0.5614829017616857  0.9028462461870532  1.0000
  C   C10       1.0  0.2930605013082399  0.551174211793331  0.39839059033308644  1.0000
  C   C11       1.0  0.7168115689580787  0.4385145990506913  0.09715623476583352  1.0000
  C   C12       1.0  0.7069544699930786  0.44882594463857833  0.6016073703828511  1.0000
  C   C13       1.0  0.434992870160606  0.45885781763405487  0.9025580990529747  1.0000
  C   C14       1.0  0.04233700303250031  0.45660226895824263  0.4006008090802666  1.0000
  C   C15       1.0  0.5649896470049569  0.5411489703501785  0.09744113614727469  1.0000
  C   C16       1.0  0.957652515794585  0.5433891470465539  0.5993947611013297  1.0000
  C   C17       1.0  0.36720012248453326  0.29955004043752353  0.8533231110968913  1.0000
  C   C18       1.0  0.9533295409963712  0.2977742175727371  0.3521148911370489  1.0000
  C   C19       1.0  0.6327763394693945  0.7004482460365863  0.1466829913576575  1.0000
  C   C20       1.0  0.04667404006921319  0.7022204643560245  0.6478791555300418  1.0000
  C   C21       1.0  0.12506077759969275  0.8421466172654848  0.9549794700300538  1.0000
  C   C22       1.0  0.7123501892230665  0.8331944490786685  0.4558629510392578  1.0000
  C   C23       1.0  0.874963131604474  0.15785301600192272  0.04500909724536941  1.0000
  C   C24       1.0  0.2876578145678295  0.16679864943342443  0.5441361823680354  1.0000
  C   C25       1.0  0.16443706776242814  0.8945243876272428  0.8760132064647834  1.0000
  C   C26       1.0  0.7283589070623433  0.9190971871635939  0.3876717073989511  1.0000
  C   C27       1.0  0.8355695506582987  0.10548432529863312  0.12398435154086232  1.0000
  C   C28       1.0  0.2716727891916548  0.08090094860710913  0.6123295081107544  1.0000
  S   S1        1.0  0.34627758580295154  0.7454575844834254  0.9778053658912711  1.0000
  S   S2        1.0  0.3972457947904573  0.7307411921113386  0.475701175230661  1.0000
  S   S3        1.0  0.6537027009620359  0.2545371369611118  0.0221945968447983  1.0000
  S   S4        1.0  0.6027671445210672  0.26925506971672064  0.5243022829051682  1.0000
  N   N1        1.0  0.16266553200990325  0.23814170783772684  0.8022770996049999  1.0000
  N   N2        1.0  0.09535166671274455  0.22703202582180645  0.29915295616790866  1.0000
  N   N3        1.0  0.8373088535930717  0.7618586314536769  0.1977128867937026  1.0000
  N   N4        1.0  0.9046374214488536  0.7729699443679082  0.7008470071310455  1.0000
  O   O1        1.0  0.0021006177884005423  0.9580775962107569  0.8570197077626177  1.0000
  O   O2        1.0  0.9313383270520675  0.9333216711343726  0.3504822321809656  1.0000
  O   O3        1.0  0.9979199377330586  0.041939420352804305  0.1429818202744642  1.0000
  O   O4        1.0  0.0686775154831238  0.06666939124844623  0.6495196075450593  1.0000
  O   O5        1.0  0.3442637448211698  0.8707529221737432  0.8358491120363213  1.0000
  O   O6        1.0  0.5500125483778646  0.9699273273179404  0.3749887807993916  1.0000
  O   O7        1.0  0.6557443520362726  0.1292517563219278  0.1641533355664819  1.0000
  O   O8        1.0  0.450013278490445  0.030080998752417515  0.6250144897974081  1.0000
  O   O9        1.0  0.6725783416503717  0.039203654116782616  0.7569591275095746  1.0000
  O   O10       1.0  0.3274360853864523  0.9607916512870677  0.2430390043517932  1.0000
