data_image0
_chemical_formula_structural       Ag4H28C36I4N4
_chemical_formula_sum              "Ag4 H28 C36 I4 N4"
_cell_length_a       4.382411272317725
_cell_length_b       12.605765886421747
_cell_length_c       16.478984936045276
_cell_angle_alpha    89.99980644688956
_cell_angle_beta     90.00020768960975
_cell_angle_gamma    95.67242065671925

_space_group_name_H-M_alt    "P 1"
_space_group_IT_number       1

loop_
  _space_group_symop_operation_xyz
  'x, y, z'

loop_
  _atom_site_type_symbol
  _atom_site_label
  _atom_site_symmetry_multiplicity
  _atom_site_fract_x
  _atom_site_fract_y
  _atom_site_fract_z
  _atom_site_occupancy
  Ag  Ag1       1.0  0.24356959330137332  0.5307572973406209  0.43966546577689775  1.0000
  Ag  Ag2       1.0  0.2564327515563393  0.969240062466902  0.9396641455646064  1.0000
  Ag  Ag3       1.0  0.7564355467868327  0.46924291218734027  0.560335242521383  1.0000
  Ag  Ag4       1.0  0.7435652956570635  0.030759381727499098  0.06033413539724821  1.0000
  H   H1        1.0  0.7524460863983293  0.3533703195243873  0.38247795569486  1.0000
  H   H2        1.0  0.7475450665791428  0.1466307605304422  0.8824786790652939  1.0000
  H   H3        1.0  0.24755324559996694  0.6466331102702796  0.6175227525964078  1.0000
  H   H4        1.0  0.252457024008109  0.8533670682298861  0.11752142240110432  1.0000
  H   H5        1.0  0.5240264898093513  0.2592030840508883  0.2598533022871693  1.0000
  H   H6        1.0  0.9759712340087957  0.24079525139650573  0.7598546102012947  1.0000
  H   H7        1.0  0.47596777101419  0.7407987726889756  0.7401480128371675  1.0000
  H   H8        1.0  0.02403541385275801  0.7592025561741951  0.24014609810085125  1.0000
  H   H9        1.0  0.7276195931398775  0.3123011484131766  0.12259669867044211  1.0000
  H   H10       1.0  0.7723817620305623  0.18770010148860186  0.6225961258073057  1.0000
  H   H11       1.0  0.27237845408853184  0.6876982957764141  0.8774040096253872  1.0000
  H   H12       1.0  0.22762389196184776  0.8123017022825961  0.37740397565566053  1.0000
  H   H13       1.0  0.08276580440150376  0.4352112793632655  0.039941255230942815  1.0000
  H   H14       1.0  0.41722612317182234  0.064789517111052  0.5399411429283278  1.0000
  H   H15       1.0  0.9172340075504761  0.5647865599912762  0.9600588462343327  1.0000
  H   H16       1.0  0.5827676237325149  0.9352107453903926  0.4600583516973489  1.0000
  H   H17       1.0  0.47608361384904174  0.5926410057637169  0.032768470271427916  1.0000
  H   H18       1.0  0.023912193170829685  0.9073603695054899  0.532767691278039  1.0000
  H   H19       1.0  0.5239159411452121  0.40735603647101476  0.9672310243612687  1.0000
  H   H20       1.0  0.9760843462767281  0.09264147664376311  0.467231803346941  1.0000
  H   H21       1.0  0.6795209514632747  0.6792453882813305  0.15849889516260166  1.0000
  H   H22       1.0  0.8204769519279438  0.8207531129040646  0.6584980232946409  1.0000
  H   H23       1.0  0.32047911743892843  0.32075324819543743  0.8415005994682689  1.0000
  H   H24       1.0  0.17951907360792063  0.17924713900436737  0.34150086449867  1.0000
  H   H25       1.0  0.4874401348761097  0.6132608772654109  0.29426028340529353  1.0000
  H   H26       1.0  0.012558647760215539  0.88673866396433  0.7942601537857996  1.0000
  H   H27       1.0  0.5125647482543698  0.386738535142733  0.7057398180604084  1.0000
  H   H28       1.0  0.9874393994681938  0.11326078022525368  0.20574055451002957  1.0000
  C   C1        1.0  0.834942951035387  0.37677828382629036  0.3218552994347306  1.0000
  C   C2        1.0  0.6650444030226623  0.12322065585345854  0.8218553964678821  1.0000
  C   C3        1.0  0.16504903114913114  0.6232235835089952  0.678145408854995  1.0000
  C   C4        1.0  0.3349576875570862  0.8767771729092787  0.17814349133153232  1.0000
  C   C5        1.0  0.706966586713179  0.3234328336827091  0.2527242280164828  1.0000
  C   C6        1.0  0.7930297981520339  0.17656872911375385  0.7527249178675818  1.0000
  C   C7        1.0  0.2930253954675879  0.6765690336537775  0.7472758734397476  1.0000
  C   C8        1.0  0.2069750849784454  0.8234306832943968  0.24727518359812717  1.0000
  C   C9        1.0  0.8190463544105456  0.35286069417146854  0.1772117049060427  1.0000
  C   C10       1.0  0.6809531403261744  0.1471395526324386  0.6772117552569343  1.0000
  C   C11       1.0  0.18094992809429294  0.6471403548531638  0.8227896102203335  1.0000
  C   C12       1.0  0.3190474424839848  0.8528606780863582  0.3227877393721172  1.0000
  C   C13       1.0  0.1712565115467299  0.47558968634579196  0.0948354036792125  1.0000
  C   C14       1.0  0.3287429305349718  0.02441086066910711  0.594835310149506  1.0000
  C   C15       1.0  0.8287412787239531  0.5244089607239815  0.9051646977840309  1.0000
  C   C16       1.0  0.6712556305938905  0.9755901777649213  0.4051641844775063  1.0000
  C   C17       1.0  0.3900382120385616  0.5618707125533292  0.09106089375647033  1.0000
  C   C18       1.0  0.10995805863932866  0.9381296344426316  0.5910601185885442  1.0000
  C   C19       1.0  0.6099621138213677  0.438128721043249  0.9089392077069861  1.0000
  C   C20       1.0  0.8900379669002801  0.061870617464592194  0.408939376038255  1.0000
  C   C21       1.0  0.5053731120915756  0.6115523856250675  0.16318001190275316  1.0000
  C   C22       1.0  0.9946273847606476  0.8884468835234787  0.6631797405277882  1.0000
  C   C23       1.0  0.4946289784919242  0.3884454431364617  0.8368194827301494  1.0000
  C   C24       1.0  0.005372941099288705  0.11155255007309961  0.3368203609356614  1.0000
  C   C25       1.0  0.3991366030169702  0.5757922615398172  0.23808692626190014  1.0000
  C   C26       1.0  0.10086122823802413  0.9242067053218433  0.7380849647544283  1.0000
  C   C27       1.0  0.6008662584397155  0.4242079585811565  0.7619143888687534  1.0000
  C   C28       1.0  0.8991365620326591  0.07579194174792998  0.26191513670881517  1.0000
  C   C29       1.0  0.052932561914815324  0.43805442331020567  0.17062525719224916  1.0000
  C   C30       1.0  0.4470675601210203  0.061945026049684805  0.6706239676752261  1.0000
  C   C31       1.0  0.9470657422675686  0.561945818000396  0.8293754511026635  1.0000
  C   C32       1.0  0.5529332796431135  0.9380560017901304  0.32937552695291583  1.0000
  C   C33       1.0  0.16795880702952104  0.48928466561336853  0.2435763418953698  1.0000
  C   C34       1.0  0.3320396812397988  0.010713707940133996  0.7435750735103996  1.0000
  C   C35       1.0  0.8320389832411621  0.510713981456412  0.7564237595678736  1.0000
  C   C36       1.0  0.667963180205639  0.9892865121844421  0.2564244211197747  1.0000
  I   I1        1.0  0.7633461517332307  0.6721835183006492  0.4714569349915508  1.0000
  I   I2        1.0  0.7366541126843345  0.8278161438389448  0.9714571767911767  1.0000
  I   I3        1.0  0.23665670971595185  0.3278167018227265  0.5285431664721187  1.0000
  I   I4        1.0  0.26334419149054605  0.17218409747406582  0.028542317836752307  1.0000
  N   N1        1.0  0.05827591820821712  0.45593710925294323  0.3182095695350499  1.0000
  N   N2        1.0  0.4417171706881291  0.0440625943728961  0.8182095349596565  1.0000
  N   N3        1.0  0.9417246646056937  0.5440631214646461  0.6817905319274901  1.0000
  N   N4        1.0  0.5582854338033272  0.9559368286306693  0.18178995967142705  1.0000
