data_image0
_chemical_formula_structural       CuH24C40N6O6
_chemical_formula_sum              "Cu1 H24 C40 N6 O6"
_cell_length_a       8.902849361681367
_cell_length_b       9.956413980642765
_cell_length_c       11.710542259436824
_cell_angle_alpha    109.51844784087822
_cell_angle_beta     97.4909919184626
_cell_angle_gamma    115.90666914074356

_space_group_name_H-M_alt    "P 1"
_space_group_IT_number       1

loop_
  _space_group_symop_operation_xyz
  'x, y, z'

loop_
  _atom_site_type_symbol
  _atom_site_label
  _atom_site_symmetry_multiplicity
  _atom_site_fract_x
  _atom_site_fract_y
  _atom_site_fract_z
  _atom_site_occupancy
  Cu  Cu1       1.0  5.172559199442183e-07  0.5000012747397662  3.658395684009799e-07  1.0000
  H   H1        1.0  0.9968269554274511  0.79028489956773  0.996920345639332  1.0000
  H   H2        1.0  0.003176145482441928  0.20971588245848244  0.003076762613183313  1.0000
  H   H3        1.0  0.22001970257147005  0.08796303381495817  0.04987178160921962  1.0000
  H   H4        1.0  0.779982739334059  0.9120365313223642  0.9501257867574965  1.0000
  H   H5        1.0  0.5369025146648169  0.1985555627876252  0.15236289496505154  1.0000
  H   H6        1.0  0.46309977813611153  0.8014478300326002  0.8476391180517953  1.0000
  H   H7        1.0  0.3940786436737935  0.7122739037493415  0.12750992779741918  1.0000
  H   H8        1.0  0.6059237288706427  0.28772959011045157  0.8724955367943823  1.0000
  H   H9        1.0  0.9376858837541062  0.8894540263953274  0.33377718932217004  1.0000
  H   H10       1.0  0.06231649834379739  0.11054546296232097  0.6662177903633337  1.0000
  H   H11       1.0  0.25219348266465147  0.9807910435925818  0.4295424851765547  1.0000
  H   H12       1.0  0.7478098233554319  0.0192121975698072  0.5704544581095876  1.0000
  H   H13       1.0  0.4178313930100187  0.40793195056095743  0.34899085718801365  1.0000
  H   H14       1.0  0.5821685543786044  0.5920713414167054  0.6510074889904518  1.0000
  H   H15       1.0  0.10603728014036308  0.31770076683307735  0.2561657608243309  1.0000
  H   H16       1.0  0.8939639890590101  0.6822987478829601  0.7438299741231873  1.0000
  H   H17       1.0  0.7451916006281819  0.38685259914822717  0.7559190085323237  1.0000
  H   H18       1.0  0.2548109371547013  0.6131533033279551  0.24408456530563433  1.0000
  H   H19       1.0  0.0011734584050344795  0.3447109933550862  0.46827698866886186  1.0000
  H   H20       1.0  0.9988222899754785  0.6552824876332648  0.5317225573736835  1.0000
  H   H21       1.0  0.27438058921301683  0.4402115709579774  0.642377281549692  1.0000
  H   H22       1.0  0.7256149540572991  0.5597794508942044  0.3576224294592266  1.0000
  H   H23       1.0  0.26858001292419686  0.5034630486444839  0.864733712790468  1.0000
  H   H24       1.0  0.7314205117758733  0.4965329416058282  0.1352678246000495  1.0000
  C   C1        1.0  0.13841360318848925  0.84447244913148  0.03859467795889061  1.0000
  C   C2        1.0  0.8615924822021909  0.1555296253662917  0.9614047741240842  1.0000
  C   C3        1.0  0.26152544599971606  0.008434773333533499  0.0703881921343807  1.0000
  C   C4        1.0  0.7384699738533198  0.9915623079987198  0.9296080325146578  1.0000
  C   C5        1.0  0.4394267828198011  0.07032726476003859  0.12737709325765686  1.0000
  C   C6        1.0  0.5605761889213666  0.9296773702089707  0.8726253225387384  1.0000
  C   C7        1.0  0.491208778021935  0.9646923988414141  0.15089049687538392  1.0000
  C   C8        1.0  0.5087917827478562  0.0353098529680906  0.8491144573051629  1.0000
  C   C9        1.0  0.358931670833037  0.7990173729768626  0.11362910349444628  1.0000
  C   C10       1.0  0.6410702478172323  0.20098736313020985  0.8863766562451831  1.0000
  C   C11       1.0  0.669598921776533  0.016235859157966097  0.20451665693748575  1.0000
  C   C12       1.0  0.3304020729515571  0.9837651251443659  0.7954871392014982  1.0000
  C   C13       1.0  0.8226608212716896  0.05287873851206369  0.24302322914772395  1.0000
  C   C14       1.0  0.17733848704845204  0.9471233618365957  0.7569764400386776  1.0000
  C   C15       1.0  0.0004106168737222877  0.09824092711397717  0.28966167029146567  1.0000
  C   C16       1.0  0.9995936368064448  0.9017598800736265  0.710336408486505  1.0000
  C   C17       1.0  0.0437737173316179  0.002455904412805403  0.33764367718417543  1.0000
  C   C18       1.0  0.9562212087555008  0.9975423686469467  0.6623511168252139  1.0000
  C   C19       1.0  0.21902286900974832  0.053441138921613195  0.3908337795752957  1.0000
  C   C20       1.0  0.7809800068540722  0.9465571587085362  0.6091626307498574  1.0000
  C   C21       1.0  0.35683467681957365  0.20078662938696104  0.39678217135209354  1.0000
  C   C22       1.0  0.643163398986786  0.7992153447607463  0.6032130757338977  1.0000
  C   C23       1.0  0.3137622812696605  0.29490356776707216  0.34670117798117434  1.0000
  C   C24       1.0  0.686241538452215  0.7050985069276976  0.6532980588383596  1.0000
  C   C25       1.0  0.138468213136882  0.2440725247552109  0.2940159996416655  1.0000
  C   C26       1.0  0.8615273918904761  0.7559269904533251  0.7059791971472651  1.0000
  C   C27       1.0  0.5346674435537364  0.25364500343334123  0.4554358041894418  1.0000
  C   C28       1.0  0.4653329377931782  0.7463570210371485  0.5445613839474605  1.0000
  C   C29       1.0  0.6858786680009742  0.2980474708425048  0.5109778437643371  1.0000
  C   C30       1.0  0.31412430374020045  0.7019571641265044  0.48902457203205796  1.0000
  C   C31       1.0  0.8596227659857261  0.3947456671646208  0.7274501705495313  1.0000
  C   C32       1.0  0.14037678731635586  0.6052589428399955  0.2725510594579675  1.0000
  C   C33       1.0  0.8500960234354408  0.3544921571470495  0.5984242837719125  1.0000
  C   C34       1.0  0.14990513653108914  0.6455112357716787  0.40157762161322125  1.0000
  C   C35       1.0  0.002806283262266581  0.37321872882466056  0.5666790836874398  1.0000
  C   C36       1.0  0.9971896702284437  0.626777211299867  0.4333202973887325  1.0000
  C   C37       1.0  0.15399219861845376  0.42686822216545284  0.6626640484259456  1.0000
  C   C38       1.0  0.8460046427247145  0.5731252082046153  0.33733387946083593  1.0000
  C   C39       1.0  0.15239882622630324  0.46249924095768336  0.788031684211447  1.0000
  C   C40       1.0  0.847598939039038  0.5374979412171255  0.21196820727598017  1.0000
  N   N1        1.0  0.1879050365124896  0.741812841835248  0.05896389241272717  1.0000
  N   N2        1.0  0.8120954245779257  0.2581892836748025  0.9410367472991298  1.0000
  N   N3        1.0  0.006699597090566591  0.4473839955192886  0.818695019517698  1.0000
  N   N4        1.0  0.993299052225211  0.5526168879404804  0.1813051097828975  1.0000
  N   N5        1.0  0.38448103953004414  0.4470237269400385  0.10435000525230011  1.0000
  N   N6        1.0  0.6155192961936818  0.5529760404734033  0.8956542510008848  1.0000
  O   O1        1.0  0.24017075136393365  0.42243349765220006  0.03838214037203609  1.0000
  O   O2        1.0  0.7598286566355835  0.5775687289959135  0.9616218432830554  1.0000
  O   O3        1.0  0.46990342763086074  0.5686590041690065  0.21487498599282875  1.0000
  O   O4        1.0  0.5300974018587751  0.4313395715169293  0.7851307009000055  1.0000
  O   O5        1.0  0.4381978474323275  0.3495245881334128  0.05863543376932512  1.0000
  O   O6        1.0  0.561799957704771  0.6504726445611835  0.9413661835055722  1.0000
