data_image0
_chemical_formula_structural       Th2H44C44N4O20
_chemical_formula_sum              "Th2 H44 C44 N4 O20"
_cell_length_a       9.619981023398974
_cell_length_b       9.619996860842125
_cell_length_c       13.473815983390221
_cell_angle_alpha    80.23887238193616
_cell_angle_beta     80.23868351892611
_cell_angle_gamma    74.54584298294917

_space_group_name_H-M_alt    "P 1"
_space_group_IT_number       1

loop_
  _space_group_symop_operation_xyz
  'x, y, z'

loop_
  _atom_site_type_symbol
  _atom_site_label
  _atom_site_symmetry_multiplicity
  _atom_site_fract_x
  _atom_site_fract_y
  _atom_site_fract_z
  _atom_site_occupancy
  Th  Th1       1.0  0.8746388495765629  0.1253608503555483  0.7500009110211466  1.0000
  Th  Th2       1.0  0.12536054321256523  0.8746389500194238  0.24999893751024174  1.0000
  H   H1        1.0  0.30741338791517586  0.7704589387461452  0.8943129536069707  1.0000
  H   H2        1.0  0.2295444823827779  0.692585592288914  0.6056942477291402  1.0000
  H   H3        1.0  0.6925860048739593  0.22954086162882686  0.10568689492442473  1.0000
  H   H4        1.0  0.7704559648067004  0.3074142096040759  0.3943054737417526  1.0000
  H   H5        1.0  0.5171214379888696  0.5497784784349945  0.8969303807170876  1.0000
  H   H6        1.0  0.45022082548492637  0.4828760168634572  0.6030792691043061  1.0000
  H   H7        1.0  0.48287900920061577  0.45022132345799537  0.10306934075380525  1.0000
  H   H8        1.0  0.5497785673042016  0.517123783511522  0.39692057942708203  1.0000
  H   H9        1.0  0.004036027872373909  0.572354812695245  0.8132038943536488  1.0000
  H   H10       1.0  0.4276453174965981  0.9959628239618179  0.6867949240541122  1.0000
  H   H11       1.0  0.9959633649167541  0.42764498767973436  0.1867959541777467  1.0000
  H   H12       1.0  0.5723551296928875  0.0040369779311646  0.3132047974167805  1.0000
  H   H13       1.0  0.953894582078419  0.2603736990423258  0.07617955253276423  1.0000
  H   H14       1.0  0.7396269496138286  0.046107654838543496  0.4238192899010401  1.0000
  H   H15       1.0  0.04610586511106617  0.7396261028506642  0.9238201689381287  1.0000
  H   H16       1.0  0.2603734975756565  0.9538921470544462  0.5761804315698458  1.0000
  H   H17       1.0  0.8224944714204195  0.9905758609528377  0.03178502669131693  1.0000
  H   H18       1.0  0.009423489216018793  0.17750598197121545  0.4682143593698101  1.0000
  H   H19       1.0  0.17750492136870827  0.009423939422134698  0.9682148218400715  1.0000
  H   H20       1.0  0.9905769579734665  0.8224938199217745  0.5317853621010757  1.0000
  H   H21       1.0  0.5572944474704327  0.859455229992001  0.17450590888751097  1.0000
  H   H22       1.0  0.14054580465322178  0.44270648499790605  0.32549410139143486  1.0000
  H   H23       1.0  0.44270599971905256  0.140544571900989  0.8254938125833746  1.0000
  H   H24       1.0  0.8594554283353659  0.5572944054071414  0.6745061367223358  1.0000
  H   H25       1.0  0.7370081571485937  0.8817143634265748  0.17413974659012874  1.0000
  H   H26       1.0  0.11828676474192425  0.26299302018526294  0.32586005576720123  1.0000
  H   H27       1.0  0.26299123564053417  0.11828543694840478  0.8258601019412596  1.0000
  H   H28       1.0  0.881714468246663  0.7370078702197913  0.6741401823465695  1.0000
  H   H29       1.0  0.7102765201768051  0.7058430950694969  0.16937739004423244  1.0000
  H   H30       1.0  0.29415859502434927  0.2897230483696801  0.33062237990890253  1.0000
  H   H31       1.0  0.2897228726123301  0.2941567053054754  0.8306224584871559  1.0000
  H   H32       1.0  0.7058418521651362  0.7102767535233098  0.6693773415619831  1.0000
  H   H33       1.0  0.6858505136663096  0.6563461102618999  0.9845274410930148  1.0000
  H   H34       1.0  0.3436542831563544  0.314150372555197  0.5154719503669085  1.0000
  H   H35       1.0  0.3141499343891069  0.34365369249491107  0.015471537988872807  1.0000
  H   H36       1.0  0.6563461640331311  0.6858494293377859  0.48452777110397705  1.0000
  H   H37       1.0  0.6293822794776245  0.8195380511953302  0.8998125694493669  1.0000
  H   H38       1.0  0.1804629666563926  0.37061860757131626  0.6001877222125458  1.0000
  H   H39       1.0  0.3706168447102556  0.18046283617369593  0.10018792278540903  1.0000
  H   H40       1.0  0.8195374796671542  0.6293811934578456  0.3998127416473525  1.0000
  H   H41       1.0  0.5134109048740212  0.7773165662183246  0.01565856901903832  1.0000
  H   H42       1.0  0.22268306132386326  0.48658970407399943  0.48434160888491123  1.0000
  H   H43       1.0  0.4865895414495255  0.22268323481083732  0.9843418948408599  1.0000
  H   H44       1.0  0.7773163305993334  0.5134100954371515  0.5156589820354897  1.0000
  C   C1        1.0  0.12817687451100576  0.8718277259334212  0.7500011140163495  1.0000
  C   C2        1.0  0.8718233049431628  0.12817316381744348  0.24999850876891122  1.0000
  C   C3        1.0  0.2560807585391273  0.7439245379738467  0.7500023787969569  1.0000
  C   C4        1.0  0.743919688650358  0.25607526391914354  0.24999734267393595  1.0000
  C   C5        1.0  0.3384266645514842  0.705982238358345  0.831345157493715  1.0000
  C   C6        1.0  0.29402019882119385  0.6615747367174619  0.6686625116932207  1.0000
  C   C7        1.0  0.6615737817720698  0.29401756267081675  0.1686553063661834  1.0000
  C   C8        1.0  0.7059802475023602  0.3384250643116999  0.3313379521666705  1.0000
  C   C9        1.0  0.45507226199759276  0.5839276419577927  0.8327128488957813  1.0000
  C   C10       1.0  0.41607265152822476  0.5449240132426424  0.6672954415854095  1.0000
  C   C11       1.0  0.544928452927202  0.41607107207731525  0.1672869712607365  1.0000
  C   C12       1.0  0.5839267403949722  0.45507578626850875  0.33270514933499135  1.0000
  C   C13       1.0  0.4957745169588677  0.5042249063750717  0.7500050575294354  1.0000
  C   C14       1.0  0.5042248749643361  0.4957748931360796  0.24999553339095834  1.0000
  C   C15       1.0  0.6236426876489817  0.37635540340515655  0.7500058242396508  1.0000
  C   C16       1.0  0.3763567051401465  0.6236443969698158  0.24999402429174472  1.0000
  C   C17       1.0  0.0022310546361552263  0.541874753931438  0.8949064397710702  1.0000
  C   C18       1.0  0.45812522632090924  0.9977676016157774  0.6050916475824266  1.0000
  C   C19       1.0  0.9977683390189043  0.4581250473073623  0.10509266637131286  1.0000
  C   C20       1.0  0.5418749531332593  0.0022332881350947994  0.394907975202834  1.0000
  C   C21       1.0  0.9734416557421636  0.36606908451985737  0.04433721758431371  1.0000
  C   C22       1.0  0.6339315106663078  0.026558731539367393  0.45566268751434796  1.0000
  C   C23       1.0  0.026558791447321522  0.6339307173731326  0.955662503886579  1.0000
  C   C24       1.0  0.36606893652317735  0.9734410703536228  0.544337033956538  1.0000
  C   C25       1.0  0.9752323058262601  0.40735802690950607  0.939411383286505  1.0000
  C   C26       1.0  0.5926408814459306  0.024767321305176893  0.5605892510408881  1.0000
  C   C27       1.0  0.024767086962867776  0.5926417734654663  0.06058846524488361  1.0000
  C   C28       1.0  0.40735851220913594  0.9752324799336303  0.439409855101495  1.0000
  C   C29       1.0  0.9469548153708092  0.3078236063346508  0.8761162259415515  1.0000
  C   C30       1.0  0.6921749219429428  0.05304603759176268  0.6238842309475531  1.0000
  C   C31       1.0  0.05304563268460778  0.69217619642216  0.12388275314032884  1.0000
  C   C32       1.0  0.30782446998026103  0.9469537619193882  0.3761163599728477  1.0000
  C   C33       1.0  0.7761938957328455  0.9361736327354176  0.9845687149557993  1.0000
  C   C34       1.0  0.06382713230248523  0.2238081298795009  0.5154306958983528  1.0000
  C   C35       1.0  0.22380655145663306  0.06382616915757207  0.015431006515086701  1.0000
  C   C36       1.0  0.9361741024179647  0.7761927622532028  0.48456805743740033  1.0000
  C   C37       1.0  0.6727231047214769  0.8231180357400375  0.14475903251997843  1.0000
  C   C38       1.0  0.17688224516156478  0.32727702310334905  0.3552402619386684  1.0000
  C   C39       1.0  0.32727628806765807  0.17688176463494187  0.8552408160114172  1.0000
  C   C40       1.0  0.8231182020279134  0.6727227787896338  0.6447594595322245  1.0000
  C   C41       1.0  0.6257454557772633  0.7715014138897799  0.9796622397148556  1.0000
  C   C42       1.0  0.22849820711728328  0.3742557197213969  0.5203373959928826  1.0000
  C   C43       1.0  0.3742539370118649  0.22849838648519233  0.02033760881653282  1.0000
  C   C44       1.0  0.7715022392062635  0.6257440813077579  0.47966306786700846  1.0000
  N   N1        1.0  0.6928435672744937  0.8498875910212076  0.03401127590942116  1.0000
  N   N2        1.0  0.15011299887378726  0.30715685570805107  0.46598869509259105  1.0000
  N   N3        1.0  0.30715687991499147  0.15011221087178228  0.9659884455614717  1.0000
  N   N4        1.0  0.8498877151850761  0.692841857463236  0.5340118674529322  1.0000
  O   O1        1.0  0.026007736126807318  0.8787396569543445  0.6981459117134394  1.0000
  O   O2        1.0  0.12126204280200868  0.9739977023768347  0.8018559381735673  1.0000
  O   O3        1.0  0.9739916557963895  0.12126014255680671  0.30185467920696146  1.0000
  O   O4        1.0  0.8787381366521598  0.0260031873740303  0.19814368461169352  1.0000
  O   O5        1.0  0.6528501542633479  0.2978431952017643  0.834086600543323  1.0000
  O   O6        1.0  0.7021562016935547  0.34714949155394237  0.6659216206037969  1.0000
  O   O7        1.0  0.34715029292613736  0.7021566066912256  0.16591312092756996  1.0000
  O   O8        1.0  0.2978431910955733  0.652850308821037  0.3340782279275914  1.0000
  O   O9        1.0  0.9204221670739585  0.18648614597154275  0.9176578690117057  1.0000
  O   O10       1.0  0.8135143979601906  0.07958055404942849  0.5823420198587359  1.0000
  O   O11       1.0  0.07957828011552684  0.8135136559214471  0.08234185245918015  1.0000
  O   O12       1.0  0.1864860492292947  0.9204192478435614  0.41765770161215715  1.0000
  O   O13       1.0  0.94904266641457  0.3452325534730888  0.7798140531299468  1.0000
  O   O14       1.0  0.6547665339160886  0.0509574136450439  0.7201857248112731  1.0000
  O   O15       1.0  0.050956725508626614  0.6547672460380553  0.22018653779044686  1.0000
  O   O16       1.0  0.345233914139328  0.9490423891117743  0.2798132542706142  1.0000
  O   O17       1.0  0.8024695376106834  0.9547504243597658  0.888647763137563  1.0000
  O   O18       1.0  0.04524891920731019  0.19753112793043207  0.6113519742474622  1.0000
  O   O19       1.0  0.1975298551784519  0.045249376015206594  0.11135208539383264  1.0000
  O   O20       1.0  0.954751527982175  0.8024686739625578  0.3886477472234235  1.0000
