data_image0
_chemical_formula_structural       Ag2H32C24S4N2O8
_chemical_formula_sum              "Ag2 H32 C24 S4 N2 O8"
_cell_length_a       7.50736278100419
_cell_length_b       9.413601905525878
_cell_length_c       10.972564133723138
_cell_angle_alpha    115.40326553760725
_cell_angle_beta     89.99987957280621
_cell_angle_gamma    90.0000637116021

_space_group_name_H-M_alt    "P 1"
_space_group_IT_number       1

loop_
  _space_group_symop_operation_xyz
  'x, y, z'

loop_
  _atom_site_type_symbol
  _atom_site_label
  _atom_site_symmetry_multiplicity
  _atom_site_fract_x
  _atom_site_fract_y
  _atom_site_fract_z
  _atom_site_occupancy
  Ag  Ag1       1.0  0.2569366975241891  0.16798776899322115  0.3364421573756217  1.0000
  Ag  Ag2       1.0  0.7569364739272901  0.8320094487315473  0.663555771674403  1.0000
  H   H1        1.0  0.2570836715468303  0.2744975866963343  0.09132768632540686  1.0000
  H   H2        1.0  0.7570825455527839  0.7255019872402214  0.9086720145369043  1.0000
  H   H3        1.0  0.25739707663552747  0.8165194503118511  0.09132044936853825  1.0000
  H   H4        1.0  0.757393860502482  0.18347660831087612  0.9086807011165234  1.0000
  H   H5        1.0  0.4702729892990831  0.1966041898761404  0.09493833026311187  1.0000
  H   H6        1.0  0.9702733153702069  0.8033930836907712  0.9050620467967079  1.0000
  H   H7        1.0  0.4706224705517671  0.8979786211730101  0.09490944271614399  1.0000
  H   H8        1.0  0.9706191515218806  0.1020210044473515  0.9050917929782544  1.0000
  H   H9        1.0  0.6203977669999433  0.4335435459073124  0.10146582915668736  1.0000
  H   H10       1.0  0.12039415610689731  0.5664548243303142  0.8985336284069233  1.0000
  H   H11       1.0  0.620545785405973  0.6674486070070385  0.10147703103956457  1.0000
  H   H12       1.0  0.12054051537311491  0.33255094765012666  0.8985246816848828  1.0000
  H   H13       1.0  0.478780746283718  0.34497673928415645  0.9582438988121352  1.0000
  H   H14       1.0  0.9787795223766126  0.6550228795919394  0.041755499956799606  1.0000
  H   H15       1.0  0.4790047139203679  0.6129224985842113  0.9582799277843179  1.0000
  H   H16       1.0  0.9790017833390439  0.38707477675234964  0.04172043737951728  1.0000
  H   H17       1.0  0.6695744016531721  0.30328056925815633  0.3163582596819765  1.0000
  H   H18       1.0  0.1695716334852548  0.6967201545327625  0.6836401641720542  1.0000
  H   H19       1.0  0.6699511617768863  0.0126703508239245  0.3163033327752061  1.0000
  H   H20       1.0  0.1699487998917064  0.9873339136152027  0.6836991179385095  1.0000
  H   H21       1.0  0.5887948846680546  0.43682359302702883  0.4758644251607791  1.0000
  H   H22       1.0  0.08879108798325322  0.5631771185883211  0.5241350216710216  1.0000
  H   H23       1.0  0.5891702375853144  0.0387193531583989  0.4758151940143662  1.0000
  H   H24       1.0  0.08916566551707208  0.9612801993378992  0.524187474366826  1.0000
  H   H25       1.0  0.47451669960601345  0.7026801273925967  0.4055716362594309  1.0000
  H   H26       1.0  0.974519936736911  0.29732185100079533  0.5944304532323912  1.0000
  H   H27       1.0  0.9511394236111099  0.4222928708375164  0.3040975684117909  1.0000
  H   H28       1.0  0.4511391153549908  0.5777102620118341  0.6959013308769356  1.0000
  H   H29       1.0  0.9514367862527635  0.8810791662931551  0.3040455332095248  1.0000
  H   H30       1.0  0.45143450413356595  0.118916927463772  0.6959544399648863  1.0000
  H   H31       1.0  0.11428915455826433  0.6386048398282894  0.27799209032205846  1.0000
  H   H32       1.0  0.614282764978462  0.3613970529461525  0.7220077513261387  1.0000
  C   C1        1.0  0.39431425195650854  0.3065228456033254  0.12741279210852235  1.0000
  C   C2        1.0  0.8943118600619044  0.6934755843583174  0.8725872051081465  1.0000
  C   C3        1.0  0.39460499301920043  0.8205915204242443  0.12743251701249378  1.0000
  C   C4        1.0  0.8946018821922835  0.17940809398596969  0.8725697351698969  1.0000
  C   C5        1.0  0.47983578981095587  0.4098306008620868  0.0695260999383365  1.0000
  C   C6        1.0  0.9798330754978367  0.5901678422362338  0.9304728678398034  1.0000
  C   C7        1.0  0.47998381911607874  0.6593466015715207  0.069548913265919  1.0000
  C   C8        1.0  0.9799780918391221  0.34065184995471753  0.9304518801198115  1.0000
  C   C9        1.0  0.6020460249199858  0.4165442393564902  0.36981486849315104  1.0000
  C   C10       1.0  0.10204326265088072  0.5834564749450594  0.6301845602814069  1.0000
  C   C11       1.0  0.6023993868831354  0.9528648103212736  0.36974836255073745  1.0000
  C   C12       1.0  0.1023972063213066  0.047134732259586094  0.6302515490913834  1.0000
  C   C13       1.0  0.7019467302628684  0.5487671410046248  0.35742826857433124  1.0000
  C   C14       1.0  0.20194374499116213  0.45123358934837654  0.6425701111679915  1.0000
  C   C15       1.0  0.7021040908126467  0.8081831917781344  0.35735890728563646  1.0000
  C   C16       1.0  0.2021034065486091  0.1918175512043234  0.6426422109515642  1.0000
  C   C17       1.0  0.6155862418613085  0.689625400396892  0.3796054870492256  1.0000
  C   C18       1.0  0.1155857917974217  0.310372968865721  0.6203939770686091  1.0000
  C   C19       1.0  0.8825175075976049  0.5313128031825015  0.320616490264392  1.0000
  C   C20       1.0  0.3825144335854489  0.4686867919810638  0.6793821267743779  1.0000
  C   C21       1.0  0.8826828587643191  0.7886428626837656  0.3205981212594793  1.0000
  C   C22       1.0  0.3826807568122917  0.2113543805304374  0.6793996364449981  1.0000
  C   C23       1.0  0.9732805137197715  0.6521577753194238  0.3050490487331743  1.0000
  C   C24       1.0  0.47327589081573507  0.34784301003466567  0.6949489612798345  1.0000
  S   S1        1.0  0.3720372356851697  0.3967597075113929  0.3108562571705207  1.0000
  S   S2        1.0  0.8720352814496766  0.6032398897269712  0.689143287051948  1.0000
  S   S3        1.0  0.37236527555254645  0.9137739102535462  0.3108591619927806  1.0000
  S   S4        1.0  0.8723599341604286  0.08622569964829552  0.6891431204958707  1.0000
  N   N1        1.0  0.9111186582944982  0.09500279589117612  0.19018980064764432  1.0000
  N   N2        1.0  0.4111144615916801  0.9050003246461813  0.8098082402740374  1.0000
  O   O1        1.0  0.3864035516254631  0.5549570038323565  0.11021018047238576  1.0000
  O   O2        1.0  0.8863980953328864  0.4450414329236381  0.889791653333063  1.0000
  O   O3        1.0  0.047282779204159915  0.057099720924249184  0.11466406398392338  1.0000
  O   O4        1.0  0.5472767009019036  0.9429092058182889  0.8853366204873935  1.0000
  O   O5        1.0  0.9327599257925386  0.1598218075997977  0.3196880950212133  1.0000
  O   O6        1.0  0.4327600325540857  0.8401778019476962  0.6803113664566496  1.0000
  O   O7        1.0  0.756066929876049  0.07125639884252172  0.1425550110481311  1.0000
  O   O8        1.0  0.2560626199687306  0.928744329883557  0.8574405562378473  1.0000
