data_image0
_chemical_formula_structural       Cu4H32C16S8I4
_chemical_formula_sum              "Cu4 H32 C16 S8 I4"
_cell_length_a       6.571231340494943
_cell_length_b       7.522344676116408
_cell_length_c       16.0795392161471
_cell_angle_alpha    89.99986700208356
_cell_angle_beta     89.99955068548873
_cell_angle_gamma    98.14671505807745

_space_group_name_H-M_alt    "P 1"
_space_group_IT_number       1

loop_
  _space_group_symop_operation_xyz
  'x, y, z'

loop_
  _atom_site_type_symbol
  _atom_site_label
  _atom_site_symmetry_multiplicity
  _atom_site_fract_x
  _atom_site_fract_y
  _atom_site_fract_z
  _atom_site_occupancy
  Cu  Cu1       1.0  0.6984866614456422  0.0377539954730324  0.983649536155234  1.0000
  Cu  Cu2       1.0  0.30150825356459177  0.4622409316537883  0.4836530801843113  1.0000
  Cu  Cu3       1.0  0.30150668701043776  0.9622403936299122  0.016350283256038302  1.0000
  Cu  Cu4       1.0  0.6984828222843406  0.5377587870496895  0.5163498487701121  1.0000
  H   H1        1.0  0.6430605674523947  0.608609586686427  0.9056042211401948  1.0000
  H   H2        1.0  0.3569535446650818  0.8913894995259997  0.4056107570635846  1.0000
  H   H3        1.0  0.3569369970288037  0.39139290047921094  0.09438937917680333  1.0000
  H   H4        1.0  0.6430464866246837  0.10860900074764156  0.5943934156934321  1.0000
  H   H5        1.0  0.5883122885511938  0.7453412210216258  0.8199512969761786  1.0000
  H   H6        1.0  0.4116811912068883  0.7546408473329081  0.3199540458998485  1.0000
  H   H7        1.0  0.41167823409442417  0.2546651908118989  0.18004479098406995  1.0000
  H   H8        1.0  0.5883249399442008  0.2453577358342969  0.6800501268471211  1.0000
  H   H9        1.0  0.7175280552768939  0.4749382952820441  0.7679223535241707  1.0000
  H   H10       1.0  0.2824789478673466  0.025038417325234305  0.2679188939919045  1.0000
  H   H11       1.0  0.2824796307146329  0.5250710300593937  0.23206875913962935  1.0000
  H   H12       1.0  0.7175269889513061  0.9749588230794971  0.7320846568476257  1.0000
  H   H13       1.0  0.8878378998833724  0.6688516932019937  0.7415257072051991  1.0000
  H   H14       1.0  0.1121557931076964  0.8311216236014334  0.24152252888059425  1.0000
  H   H15       1.0  0.11217303030262833  0.3311590163204415  0.2584728683530742  1.0000
  H   H16       1.0  0.8878531936790496  0.16887565826548476  0.7584772905036987  1.0000
  H   H17       1.0  0.0830368988069168  0.4324428881429654  0.7844008763719831  1.0000
  H   H18       1.0  0.9169805078951185  0.06755527618793171  0.28440338037271573  1.0000
  H   H19       1.0  0.9169730597044108  0.5675611075619785  0.21559583346582664  1.0000
  H   H20       1.0  0.08303003360104101  0.932452747799289  0.715596439004152  1.0000
  H   H21       1.0  0.9406120659621067  0.39271342538590664  0.8774208092472126  1.0000
  H   H22       1.0  0.0594074959809561  0.10729072588458882  0.37742484829351514  1.0000
  H   H23       1.0  0.059379981673799924  0.6072930071812908  0.12257279107704733  1.0000
  H   H24       1.0  0.940595585258187  0.8927078158435363  0.6225774587333748  1.0000
  H   H25       1.0  0.2474032201069676  0.7322441729804937  0.8371855652254043  1.0000
  H   H26       1.0  0.7525929935896231  0.7677485158887691  0.3371828298815488  1.0000
  H   H27       1.0  0.7525897693347474  0.2677582519559039  0.16282233899159598  1.0000
  H   H28       1.0  0.24740684342386032  0.23224864164551923  0.6628151237927115  1.0000
  H   H29       1.0  0.2843123692103333  0.553131318700423  0.906497895520552  1.0000
  H   H30       1.0  0.7157015306998602  0.9468664173910142  0.4064982282515644  1.0000
  H   H31       1.0  0.7156796485629471  0.4468643924210554  0.09350752106762172  1.0000
  H   H32       1.0  0.2843013562318006  0.0531307815849189  0.5935009692344126  1.0000
  C   C1        1.0  0.7112509308064006  0.6894641449082854  0.8530011969951591  1.0000
  C   C2        1.0  0.2887483447549783  0.8105096975398851  0.352991238653381  1.0000
  C   C3        1.0  0.288752344790133  0.3105357395925807  0.14699924430569675  1.0000
  C   C4        1.0  0.7112532115188371  0.18948882346484913  0.6470110683760241  1.0000
  C   C5        1.0  0.8296325307961753  0.5830818977010781  0.7940889150579908  1.0000
  C   C6        1.0  0.170382323556062  0.9169288102765522  0.2940960402123026  1.0000
  C   C7        1.0  0.17036924963527164  0.4169286874964231  0.20590592906514626  1.0000
  C   C8        1.0  0.8296314621844872  0.08308059791221473  0.7059062667920843  1.0000
  C   C9        1.0  0.00469829414510771  0.4985491549505738  0.8337058703934093  1.0000
  C   C10       1.0  0.9952969087184087  0.0014282120114756968  0.333699470588826  1.0000
  C   C11       1.0  0.9952929760175521  0.5014519065076686  0.16629954619355666  1.0000
  C   C12       1.0  0.00470558951094091  0.9985663014241056  0.6663022145324791  1.0000
  C   C13       1.0  0.16908209789431794  0.6272195443781002  0.878270252074316  1.0000
  C   C14       1.0  0.8309307084987338  0.8727985041464521  0.3782771148070412  1.0000
  C   C15       1.0  0.8309078416915981  0.3727828391423388  0.12173018924728755  1.0000
  C   C16       1.0  0.1690746750978889  0.1272054293806235  0.6217214607634107  1.0000
  S   S1        1.0  0.8760691006723321  0.8838628133585403  0.8948845011545787  1.0000
  S   S2        1.0  0.12393358011020444  0.6161295025215028  0.3948876984336423  1.0000
  S   S3        1.0  0.12392463646734342  0.11613426127705402  0.10511469634646893  1.0000
  S   S4        1.0  0.8760721623760048  0.383866395120755  0.6051152304984486  1.0000
  S   S5        1.0  0.0641354112572827  0.7402637527007556  0.9650999756000478  1.0000
  S   S6        1.0  0.9358626462254024  0.7597373204152973  0.46509913359832233  1.0000
  S   S7        1.0  0.9358428818592232  0.2597317719230645  0.034902331468892114  1.0000
  S   S8        1.0  0.06413929875695601  0.24026388613236097  0.5349000638873846  1.0000
  I   I1        1.0  0.5648936757458215  0.8283801836060862  0.11138310761761265  1.0000
  I   I2        1.0  0.43510872811244644  0.6715942909615509  0.611399585779367  1.0000
  I   I3        1.0  0.4351022745939304  0.17159011866854712  0.8886048955413205  1.0000
  I   I4        1.0  0.5648947417853378  0.3284069362889426  0.3886045869707645  1.0000
