data_image0
_chemical_formula_structural       Zn16H32C112S8Cl24O52
_chemical_formula_sum              "Zn16 H32 C112 S8 Cl24 O52"
_cell_length_a       18.407587973389756
_cell_length_b       19.63582882118528
_cell_length_c       32.677256092384894
_cell_angle_alpha    86.07618524414363
_cell_angle_beta     73.64573199104045
_cell_angle_gamma    62.00911987624859

_space_group_name_H-M_alt    "P 1"
_space_group_IT_number       1

loop_
  _space_group_symop_operation_xyz
  'x, y, z'

loop_
  _atom_site_type_symbol
  _atom_site_label
  _atom_site_symmetry_multiplicity
  _atom_site_fract_x
  _atom_site_fract_y
  _atom_site_fract_z
  _atom_site_occupancy
  Zn  Zn1       1.0  0.8741367976025816  0.547790907044437  0.5180756450345925  1.0000
  Zn  Zn2       1.0  0.046806695760487696  0.4790843309945459  0.43873692575051854  1.0000
  Zn  Zn3       1.0  0.0515242386240047  0.3998372064445804  0.5246833693349444  1.0000
  Zn  Zn4       1.0  0.04115302789264068  0.5681074203641359  0.5156697894645321  1.0000
  Zn  Zn5       1.0  0.6246398907631628  0.18519628209984526  0.7381960895880155  1.0000
  Zn  Zn6       1.0  0.4763192853379652  0.3504098472232969  0.726374671839615  1.0000
  Zn  Zn7       1.0  0.4459747977159411  0.26741393846958783  0.8127274740439036  1.0000
  Zn  Zn8       1.0  0.4522154862078979  0.19981827714380532  0.7242700181065231  1.0000
  Zn  Zn9       1.0  0.46940987194766154  0.7515700643563151  0.3139734088820347  1.0000
  Zn  Zn10      1.0  0.46335375018284014  0.6858766537674584  0.22764024727130316  1.0000
  Zn  Zn11      1.0  0.6254796589154454  0.7019226952510494  0.22715556017602273  1.0000
  Zn  Zn12      1.0  0.4453885460154226  0.8520358824452646  0.230787194667343  1.0000
  Zn  Zn13      1.0  0.022448069902857474  0.9032798252257097  0.02771293138161471  1.0000
  Zn  Zn14      1.0  0.06805284061532288  0.045868392428609205  0.014286884673723006  1.0000
  Zn  Zn15      1.0  0.877653231968623  0.0702125304973649  0.023964693099216512  1.0000
  Zn  Zn16      1.0  0.024911255860971253  0.9857885772037561  0.9391363934077219  1.0000
  H   H1        1.0  0.5649783192082013  0.4529733126705438  0.6234269268679284  1.0000
  H   H2        1.0  0.5671007324428602  0.5008539323833574  0.667059547490517  1.0000
  H   H3        1.0  0.6607325506936307  0.549393549058941  0.6157534097684804  1.0000
  H   H4        1.0  0.6583829777075323  0.5018632602743198  0.5719922612576553  1.0000
  H   H5        1.0  0.3620223018981151  0.6620777010653002  0.4234458298471965  1.0000
  H   H6        1.0  0.2755034226376837  0.7549422201190625  0.421754346062599  1.0000
  H   H7        1.0  0.17123539656373057  0.7157624090182468  0.47162299377712463  1.0000
  H   H8        1.0  0.25821209327057215  0.6234690292541459  0.4739857093946611  1.0000
  H   H9        1.0  0.55882180218579  0.7528318845837134  0.4233941734864146  1.0000
  H   H10       1.0  0.5579761642638489  0.6624848196513612  0.42350009026186086  1.0000
  H   H11       1.0  0.6538903002378473  0.6138565494894979  0.4724087171309179  1.0000
  H   H12       1.0  0.6552957341317411  0.7040176846468357  0.47216730907612  1.0000
  H   H13       1.0  0.3320886888319309  0.20169230212537312  0.6313338047251591  1.0000
  H   H14       1.0  0.2423561332849644  0.2452240137545658  0.6773548806238523  1.0000
  H   H15       1.0  0.1429089010247964  0.2952078595066894  0.6301295314529725  1.0000
  H   H16       1.0  0.2325599679847343  0.2513202621291273  0.5841497898243375  1.0000
  H   H17       1.0  0.9305705841761455  0.0961398404520963  0.8321388984322482  1.0000
  H   H18       1.0  0.9329281952141956  0.004397691023477498  0.8316977552574939  1.0000
  H   H19       1.0  0.8353061888959561  0.051282538229322897  0.7838065683074831  1.0000
  H   H20       1.0  0.8308632480136355  0.14373653064927794  0.7850028379532432  1.0000
  H   H21       1.0  0.17090339338530924  0.19682841657444783  0.9677649850988176  1.0000
  H   H22       1.0  0.2645092172209687  0.1070849715785656  0.9654264464574424  1.0000
  H   H23       1.0  0.3557228990722906  0.16134975718209432  0.9174010778087975  1.0000
  H   H24       1.0  0.2620121881539674  0.25069937478533433  0.9191678170915125  1.0000
  H   H25       1.0  0.26119387443896613  0.013273405694278002  0.07174123921996059  1.0000
  H   H26       1.0  0.16737063282516834  0.059887000663565025  0.1155992573790527  1.0000
  H   H27       1.0  0.2585209046015038  0.014522717122361002  0.16675254887347532  1.0000
  H   H28       1.0  0.35252154981100886  0.970256492854922  0.12268934519170221  1.0000
  H   H29       1.0  0.9280929261236326  0.7487578968108296  0.08590772931478334  1.0000
  H   H30       1.0  0.9302719832239607  0.7941985821608598  0.13059786074797583  1.0000
  H   H31       1.0  0.8317950921760516  0.7486594758789026  0.18026001140111694  1.0000
  H   H32       1.0  0.8306876641956721  0.7022205620076466  0.13568493670440768  1.0000
  C   C1        1.0  0.8740085707951551  0.5639256390739221  0.4281794897674446  1.0000
  C   C2        1.0  0.13264989243756992  0.3116989327490102  0.4417668438014958  1.0000
  C   C3        1.0  0.8788898897624761  0.41554987113713787  0.5673450948239919  1.0000
  C   C4        1.0  0.14087499917621935  0.44981333478254737  0.5664088719879388  1.0000
  C   C5        1.0  0.8629323030177859  0.6813700834894691  0.5612383161062625  1.0000
  C   C6        1.0  0.13406460500356596  0.5720963398280433  0.4300321267474986  1.0000
  C   C7        1.0  0.659776217193439  0.30293885489505373  0.6875576761867849  1.0000
  C   C8        1.0  0.3778473476388698  0.4370240166595707  0.8105814044381318  1.0000
  C   C9        1.0  0.6152086398159755  0.1797858310278286  0.8298915941908265  1.0000
  C   C10       1.0  0.35264176701181776  0.18191201943552227  0.809176114852292  1.0000
  C   C11       1.0  0.621818737161732  0.06840107577016143  0.686455022975224  1.0000
  C   C12       1.0  0.37059183904695203  0.3351319176676668  0.6776357665643078  1.0000
  C   C13       1.0  0.366397807796396  0.6740100398437366  0.3138828124555388  1.0000
  C   C14       1.0  0.6391812130097779  0.5682383116619292  0.18557926842753855  1.0000
  C   C15       1.0  0.6492099954890593  0.6776423184173269  0.3143885683861498  1.0000
  C   C16       1.0  0.6135006864957263  0.8384746834154414  0.1812573515652929  1.0000
  C   C17       1.0  0.37411832579018534  0.9218021982561241  0.32039817347755684  1.0000
  C   C18       1.0  0.3598590065614432  0.8112285695791783  0.18292338178670065  1.0000
  C   C19       1.0  0.1339905766539289  0.9215806428666938  0.07017966185865282  1.0000
  C   C20       1.0  0.9147229192485684  0.18112279070578555  0.061955545788791255  1.0000
  C   C21       1.0  0.8412522062426009  0.9500953896281106  0.06892590126504672  1.0000
  C   C22       1.0  0.8446130709330152  0.0766161087934876  0.9411564733029464  1.0000
  C   C23       1.0  0.11795451561175707  0.8162582674987534  0.9433097380501536  1.0000
  C   C24       1.0  0.1338239735877877  0.06167448848317751  0.9225155029020371  1.0000
  C   C25       1.0  0.7238571518093336  0.8066449190800997  0.5983887761360054  1.0000
  C   C26       1.0  0.7575715979261807  0.9416634948309336  0.6504597148194691  1.0000
  C   C27       1.0  0.8117176306883279  0.7565647011284257  0.5863849714957041  1.0000
  C   C28       1.0  0.6699473512754965  0.9926436519099512  0.6620021920065825  1.0000
  C   C29       1.0  0.7769789122728172  0.8742070161656629  0.6271047856511344  1.0000
  C   C30       1.0  0.7038553155032973  0.8746027128490611  0.6216068194831692  1.0000
  C   C31       1.0  0.2029609744276543  0.2174358755432664  0.3743133703764983  1.0000
  C   C32       1.0  0.3025885684344516  0.013315265227298301  0.3902241209664511  1.0000
  C   C33       1.0  0.17983932092551674  0.23549041200347898  0.41811336773414354  1.0000
  C   C34       1.0  0.3264566298475915  0.9960837293220878  0.3462934737945886  1.0000
  C   C35       1.0  0.2579891176503892  0.09431398997267593  0.4006347783339805  1.0000
  C   C36       1.0  0.2482449256429149  0.13652427892515112  0.3643520543837582  1.0000
  C   C37       1.0  0.7220211567758882  0.325572945798129  0.6578771436476814  1.0000
  C   C38       1.0  0.8297881184690115  0.3816836632290546  0.5983629550856265  1.0000
  C   C39       1.0  0.6890698126661903  0.3955857301498398  0.6390713553513551  1.0000
  C   C40       1.0  0.8657601424668118  0.31015684603689664  0.6172892594164665  1.0000
  C   C41       1.0  0.7404681898869256  0.42232408319967624  0.6107203701944287  1.0000
  C   C42       1.0  0.81312161655363  0.2826905998590803  0.6462051142081293  1.0000
  C   C43       1.0  0.6063460428713868  0.4654413518575141  0.6367672727099319  1.0000
  C   C44       1.0  0.6647706703948586  0.4958739675809555  0.6046465085727633  1.0000
  C   C45       1.0  0.3043256894219369  0.6485835923442665  0.3406535308763026  1.0000
  C   C46       1.0  0.18652770725918816  0.6017822452442162  0.39841984078469045  1.0000
  C   C47       1.0  0.2810032986623342  0.6608621363005227  0.3850247646704049  1.0000
  C   C48       1.0  0.2064568954879676  0.5906713862704578  0.353351506189334  1.0000
  C   C49       1.0  0.22404643121096524  0.6390579762218921  0.4127319202422157  1.0000
  C   C50       1.0  0.2646253976171522  0.6127607086273416  0.3249924766747371  1.0000
  C   C51       1.0  0.2959890214317868  0.6926046309449703  0.42108301002603804  1.0000
  C   C52       1.0  0.23105306610607815  0.6679743040580848  0.4525521477629724  1.0000
  C   C53       1.0  0.711796528217832  0.6487504579064379  0.34033258219781  1.0000
  C   C54       1.0  0.8226168748618293  0.5910136925787981  0.3966967318819101  1.0000
  C   C55       1.0  0.6805354715464067  0.6575526511101374  0.38481581029931516  1.0000
  C   C56       1.0  0.8569087758238608  0.5809033580638286  0.3513703305759677  1.0000
  C   C57       1.0  0.733416433562795  0.6301817806544747  0.411707302649738  1.0000
  C   C58       1.0  0.8028742625962694  0.6101525083792937  0.32383727598329415  1.0000
  C   C59       1.0  0.5988540235365535  0.6898564669038125  0.42153405602635985  1.0000
  C   C60       1.0  0.6589888149078365  0.6592087765931823  0.4520897896428907  1.0000
  C   C61       1.0  0.3117922803846511  0.3709059026640987  0.6498718845957256  1.0000
  C   C62       1.0  0.19753327930382622  0.4279743433133021  0.5952301396444923  1.0000
  C   C63       1.0  0.27533456032114867  0.3292361842906716  0.6387633179015779  1.0000
  C   C64       1.0  0.23214802584509198  0.4728427281851708  0.606611390016198  1.0000
  C   C65       1.0  0.22076064744168628  0.356512748566793  0.6127211766660283  1.0000
  C   C66       1.0  0.28814006323540303  0.4449127894563034  0.6331712670858067  1.0000
  C   C67       1.0  0.27093006220825094  0.2538895716791744  0.6443836545164814  1.0000
  C   C68       1.0  0.20883477357924826  0.2849694733807766  0.6148444701449804  1.0000
  C   C69       1.0  0.3018623977474135  0.5867355546616582  0.8222325543420866  1.0000
  C   C70       1.0  0.1989531613813824  0.6663188056377153  0.9319759177673318  1.0000
  C   C71       1.0  0.3284435637617734  0.5120836208919358  0.8356856349525332  1.0000
  C   C72       1.0  0.17093526857059538  0.7409969781670612  0.9184663793326209  1.0000
  C   C73       1.0  0.24640257201986773  0.6100550028545229  0.8968174679537597  1.0000
  C   C74       1.0  0.25430625552931463  0.6430085556172856  0.857373911607489  1.0000
  C   C75       1.0  0.7807713301572861  0.10378103360368131  0.9159910779574788  1.0000
  C   C76       1.0  0.6670226978226453  0.15487421750810884  0.8612450304003403  1.0000
  C   C77       1.0  0.8105221285576577  0.09600633026058601  0.8715380680477623  1.0000
  C   C78       1.0  0.634626925101401  0.16236355709648362  0.9066487315232833  1.0000
  C   C79       1.0  0.756155127301426  0.12104253460113058  0.8453899507344218  1.0000
  C   C80       1.0  0.6902455552645465  0.13780151587786804  0.9333335158363808  1.0000
  C   C81       1.0  0.891202361553276  0.06714921859511243  0.834283423776192  1.0000
  C   C82       1.0  0.8294372133837271  0.09633397987651901  0.8045509680596936  1.0000
  C   C83       1.0  0.18902628748252687  0.08910247581621183  0.8907128627324211  1.0000
  C   C84       1.0  0.2955186888108373  0.15015266932763183  0.8347753374764154  1.0000
  C   C85       1.0  0.22504211010357264  0.12709516920729413  0.9059128201877157  1.0000
  C   C86       1.0  0.2597837131990489  0.11159540044119613  0.8181236170667034  1.0000
  C   C87       1.0  0.27545117969547317  0.15662322321512082  0.8792645117016563  1.0000
  C   C88       1.0  0.20825901312635153  0.08140390295741182  0.8453971803076853  1.0000
  C   C89       1.0  0.23180849974244216  0.15388019561449076  0.946426405022038  1.0000
  C   C90       1.0  0.28896900469324294  0.1875418242235156  0.9161926422865393  1.0000
  C   C91       1.0  0.670768175835576  0.44094244525622633  0.14936575511721636  1.0000
  C   C92       1.0  0.8928606292331622  0.3067514542967091  0.09897250503459536  1.0000
  C   C93       1.0  0.6942995710415334  0.4925717269634689  0.16153079751426702  1.0000
  C   C94       1.0  0.8675570224926619  0.2565548666589734  0.08669734041998117  1.0000
  C   C95       1.0  0.8210285382104204  0.37482587752303703  0.12187696743242782  1.0000
  C   C96       1.0  0.743309146042279  0.37386854991947877  0.12657420958679916  1.0000
  C   C97       1.0  0.19073463768416596  0.888396806492189  0.09901233090786121  1.0000
  C   C98       1.0  0.29968625317002323  0.8355651982751627  0.15593892065651002  1.0000
  C   C99       1.0  0.2247796307704703  0.9317315592476024  0.11071407530953083  1.0000
  C   C100      1.0  0.26577621178812905  0.7899568077963155  0.1448261894408915  1.0000
  C   C101      1.0  0.2760052048335881  0.9069170573793033  0.13843777346424702  1.0000
  C   C102      1.0  0.21280551239850362  0.8155836198269101  0.11687842118603703  1.0000
  C   C103      1.0  0.228955497840353  0.007155483574599901  0.104526419812089  1.0000
  C   C104      1.0  0.2866071978156699  0.9792471041730124  0.13631772242073484  1.0000
  C   C105      1.0  0.7773598683297823  0.9266088253954197  0.09572177176240604  1.0000
  C   C106      1.0  0.6644518416666472  0.8723475577208363  0.1518365017654943  1.0000
  C   C107      1.0  0.8076491596242976  0.8554131500318435  0.11347358514225189  1.0000
  C   C108      1.0  0.6313132956824534  0.9446614890196869  0.1334795185825257  1.0000
  C   C109      1.0  0.7537118278072088  0.8298799795529207  0.14062714863860745  1.0000
  C   C110      1.0  0.686505494975258  0.9712511269108571  0.10623249381091422  1.0000
  C   C111      1.0  0.8886500875637964  0.7839505740374123  0.11625580061824081  1.0000
  C   C112      1.0  0.8273842946586998  0.7550908356834967  0.14726653123527467  1.0000
  S   S1        1.0  0.8696949778662385  0.7921583874144248  0.6036831493789665  1.0000
  S   S2        1.0  0.6115708269416302  0.9578979666435431  0.6443257009751662  1.0000
  S   S3        1.0  0.2134283516386475  0.1535469190725252  0.4469281503032293  1.0000
  S   S4        1.0  0.2942985472325432  0.07834281612409201  0.3178021398618682  1.0000
  S   S5        1.0  0.29557273782893406  0.510782093123787  0.8911222062591193  1.0000
  S   S6        1.0  0.20312630551292457  0.7423327159232471  0.8630020436182874  1.0000
  S   S7        1.0  0.805068412296933  0.45881992359694834  0.14499993212513118  1.0000
  S   S8        1.0  0.7567679752623705  0.2918092455835719  0.10322406249185431  1.0000
  Cl  Cl1       1.0  0.6469066450002504  0.7917440122371106  0.5872791592059698  1.0000
  Cl  Cl2       1.0  0.8355967342742545  0.9551959004936278  0.6612006247019977  1.0000
  Cl  Cl3       1.0  0.18332787319290844  0.2808664285355463  0.3355352299688691  1.0000
  Cl  Cl4       1.0  0.3230271188674153  0.9480614880442106  0.42821036341806734  1.0000
  Cl  Cl5       1.0  0.32020458381829553  0.6117756684256151  0.7707095395012474  1.0000
  Cl  Cl6       1.0  0.18038276371238046  0.6413341686858303  0.9834786644579195  1.0000
  Cl  Cl7       1.0  0.569524983814823  0.4526975657621719  0.15859074279475743  1.0000
  Cl  Cl8       1.0  0.9960398123257407  0.29104863166206485  0.08843875469642634  1.0000
  Cl  Cl9       1.0  0.9750934669937339  0.25411435594778453  0.6067734261757495  1.0000
  Cl  Cl10      1.0  0.863554250990383  0.19553127421777114  0.6670731044388207  1.0000
  Cl  Cl11      1.0  0.1562551510147687  0.5532183339069404  0.3319001355690574  1.0000
  Cl  Cl12      1.0  0.28654087406511775  0.5928263879978245  0.2711739105214406  1.0000
  Cl  Cl13      1.0  0.9656379634631452  0.530140695954657  0.32770760436495294  1.0000
  Cl  Cl14      1.0  0.8522070162843819  0.5974327419309801  0.2697059742909858  1.0000
  Cl  Cl15      1.0  0.20580455440572373  0.5640680845410699  0.5893396990355911  1.0000
  Cl  Cl16      1.0  0.3257634033641352  0.504469212200462  0.64482375533202  1.0000
  Cl  Cl17      1.0  0.5263870509555204  0.20003723284487054  0.9313496389733871  1.0000
  Cl  Cl18      1.0  0.6454262107108307  0.14672965692818712  0.987741131158046  1.0000
  Cl  Cl19      1.0  0.27594737702749944  0.10151309398354871  0.7638931818151775  1.0000
  Cl  Cl20      1.0  0.17167519603534492  0.0328379696276642  0.8216465751576081  1.0000
  Cl  Cl21      1.0  0.28494056486420066  0.7031491378121758  0.16684341469868263  1.0000
  Cl  Cl22      1.0  0.178709148810164  0.7541138614445161  0.10389585138342029  1.0000
  Cl  Cl23      1.0  0.5224782761040316  0.0036852727388919  0.1440166811183374  1.0000
  Cl  Cl24      1.0  0.6397064547864205  0.05879589382977462  0.08516626248825793  1.0000
  O   O1        1.0  0.9997331658152508  0.5000948382835517  0.5010249425328935  1.0000
  O   O2        1.0  0.8325635872346455  0.562414122320604  0.46670436163872614  1.0000
  O   O3        1.0  0.09664144968113678  0.3698573548787962  0.4212031793517852  1.0000
  O   O4        1.0  0.9591145754313006  0.3740557721615048  0.551693033018843  1.0000
  O   O5        1.0  0.9530252085746796  0.546211932931385  0.41499500660942357  1.0000
  O   O6        1.0  0.8339413075492744  0.485049531191308  0.5587454145988744  1.0000
  O   O7        1.0  0.13138590559555743  0.31293435607342  0.48111907921797586  1.0000
  O   O8        1.0  0.10829784389868286  0.4048544202209783  0.5659711834075267  1.0000
  O   O9        1.0  0.9440670255371377  0.6532109385735083  0.555016819782857  1.0000
  O   O10       1.0  0.13039746783103123  0.5078970720674006  0.5444199538008547  1.0000
  O   O11       1.0  0.8246039795496003  0.6514119782009685  0.5480825809784875  1.0000
  O   O12       1.0  0.1381555702184869  0.50884644638505  0.4196543836745974  1.0000
  O   O13       1.0  0.09205138885543825  0.6110681998630697  0.4662661790251121  1.0000
  O   O14       1.0  0.49989708529203364  0.2504798402265466  0.7506020359868302  1.0000
  O   O15       1.0  0.6868186221901666  0.23778702721182304  0.7035573411522905  1.0000
  O   O16       1.0  0.40958340350977107  0.4368287630007402  0.770504992602014  1.0000
  O   O17       1.0  0.5342323749782736  0.22054400128534726  0.8432185462019177  1.0000
  O   O18       1.0  0.5811920100284169  0.3540080624816044  0.6940701841543842  1.0000
  O   O19       1.0  0.6595649930890132  0.15748619080815734  0.7908401535512297  1.0000
  O   O20       1.0  0.3843842245063486  0.3781913846816708  0.8319369449857277  1.0000
  O   O21       1.0  0.3641072066495569  0.22617519934480873  0.8308408425097512  1.0000
  O   O22       1.0  0.5421969758313521  0.10598275599880223  0.6879946882278958  1.0000
  O   O23       1.0  0.3862902869186869  0.16244989809067087  0.769392233864096  1.0000
  O   O24       1.0  0.6624145315559107  0.08963114766721962  0.703927964683679  1.0000
  O   O25       1.0  0.40901620304715175  0.36963773469872063  0.6858080243921096  1.0000
  O   O26       1.0  0.3773968640613604  0.2700196129316765  0.6908778386245372  1.0000
  O   O27       1.0  0.5009015713280506  0.7490447555118181  0.2513563359998159  1.0000
  O   O28       1.0  0.4043731636965546  0.693676893150176  0.33445133399319354  1.0000
  O   O29       1.0  0.5602618541655248  0.5864304759586858  0.20209378706410766  1.0000
  O   O30       1.0  0.6777458837911468  0.6651699221855836  0.274036173987085  1.0000
  O   O31       1.0  0.3761412456366602  0.6754323797215279  0.27381496814931683  1.0000
  O   O32       1.0  0.5700338399587397  0.712337770795571  0.3360374144458333  1.0000
  O   O33       1.0  0.675623766814887  0.609045083932088  0.18803361529317192  1.0000
  O   O34       1.0  0.6588631498911114  0.7765961154152168  0.19695488877410852  1.0000
  O   O35       1.0  0.3894491911853634  0.9284722892035406  0.2799439934071088  1.0000
  O   O36       1.0  0.5325450317416058  0.8708644388924399  0.18831724336124006  1.0000
  O   O37       1.0  0.39537988316766365  0.859444681531528  0.3394001688990969  1.0000
  O   O38       1.0  0.41092461757288135  0.739553523365622  0.18251649569758396  1.0000
  O   O39       1.0  0.3571663224966387  0.8661682340587832  0.20328285179041936  1.0000
  O   O40       1.0  0.0006537713958963003  0.0012249922953131006  0.0011146099831123002  1.0000
  O   O41       1.0  0.08079450094140152  0.8971896802722555  0.0707196077474492  1.0000
  O   O42       1.0  0.9962291084072278  0.14854932984604122  0.047352686101255925  1.0000
  O   O43       1.0  0.8171967910375387  0.021233892943655505  0.06304557130243178  1.0000
  O   O44       1.0  0.1428873863412718  0.9747602817211461  0.04782909295948912  1.0000
  O   O45       1.0  0.9176267582868152  0.8946724939467573  0.054819143086113825  1.0000
  O   O46       1.0  0.8649735919348983  0.15513918735581467  0.05754080679653132  1.0000
  O   O47       1.0  0.8224645689886502  0.10962156200462662  0.9779912641728216  1.0000
  O   O48       1.0  0.09883151398511805  0.8752571755411084  0.9209417151880714  1.0000
  O   O49       1.0  0.918874260431082  0.0222429233517474  0.9220865689108917  1.0000
  O   O50       1.0  0.09585830511875323  0.8163777126066095  0.9839232343551955  1.0000
  O   O51       1.0  0.14065363818454563  0.059679074645245606  0.9605396185858623  1.0000
  O   O52       1.0  0.08415608251221583  0.0445248272147936  0.9103781976979377  1.0000
