data_image0
_chemical_formula_structural       Cd2H36C48I4N8
_chemical_formula_sum              "Cd2 H36 C48 I4 N8"
_cell_length_a       9.050846153148076
_cell_length_b       10.228007622736763
_cell_length_c       13.328034602995675
_cell_angle_alpha    69.67913454248398
_cell_angle_beta     78.13993153942899
_cell_angle_gamma    87.49716914804115

_space_group_name_H-M_alt    "P 1"
_space_group_IT_number       1

loop_
  _space_group_symop_operation_xyz
  'x, y, z'

loop_
  _atom_site_type_symbol
  _atom_site_label
  _atom_site_symmetry_multiplicity
  _atom_site_fract_x
  _atom_site_fract_y
  _atom_site_fract_z
  _atom_site_occupancy
  Cd  Cd1       1.0  0.3622745858688461  0.33339972407003415  0.23630597822501906  1.0000
  Cd  Cd2       1.0  0.6377258384255667  0.6666002292484947  0.763692956285773  1.0000
  H   H1        1.0  0.9561944750640308  0.6437856104169483  0.8549784435654219  1.0000
  H   H2        1.0  0.04379921582825829  0.35621641770278245  0.1450178999699148  1.0000
  H   H3        1.0  0.052683388025535294  0.6775775544458538  0.007208983228366624  1.0000
  H   H4        1.0  0.9473136901867388  0.3224244880729045  0.9927868751970196  1.0000
  H   H5        1.0  0.883486684393091  0.7820374210899316  0.13141819007471878  1.0000
  H   H6        1.0  0.1165103567312329  0.217962513455376  0.8685819804187106  1.0000
  H   H7        1.0  0.5482641625625817  0.8198983106593473  0.9350897375369415  1.0000
  H   H8        1.0  0.4517305666608137  0.1800995238099574  0.06491206494037981  1.0000
  H   H9        1.0  0.7702553797830161  0.984222990927918  0.14541196761570782  1.0000
  H   H10       1.0  0.22974602902430516  0.015771751934145994  0.8545881994531682  1.0000
  H   H11       1.0  0.600222083226356  0.05252218741138389  0.28683045382180694  1.0000
  H   H12       1.0  0.3997828327258617  0.9474767376804181  0.7131688636007001  1.0000
  H   H13       1.0  0.22453092602825817  0.8526283703962603  0.23671859624480632  1.0000
  H   H14       1.0  0.775470755497544  0.14737574680426493  0.7632813137716282  1.0000
  H   H15       1.0  0.39550020413464887  0.7780721019951429  0.09972957601520704  1.0000
  H   H16       1.0  0.6044945457076877  0.22192678427379062  0.900270445864436  1.0000
  H   H17       1.0  0.22572651651283587  0.30066239094538355  0.4926226142124009  1.0000
  H   H18       1.0  0.7742773034013837  0.6993375680237789  0.5073773369338355  1.0000
  H   H19       1.0  0.0698747750939219  0.21734954747218174  0.6834129559222006  1.0000
  H   H20       1.0  0.9301268485943763  0.7826524836258884  0.3165875117987938  1.0000
  H   H21       1.0  0.9858614139504738  0.9688050791845696  0.77507236525436  1.0000
  H   H22       1.0  0.014137922605740998  0.031195899262925805  0.2249287047255493  1.0000
  H   H23       1.0  0.0472495694329282  0.7971705966926805  0.6787454779757952  1.0000
  H   H24       1.0  0.9527509251487061  0.202831429605709  0.3212551514485184  1.0000
  H   H25       1.0  0.2103055319500484  0.7243409922173568  0.4018727242486194  1.0000
  H   H26       1.0  0.7896971588575069  0.275658961952125  0.5981273886009292  1.0000
  H   H27       1.0  0.08118897297104159  0.7146128958778561  0.522455257238555  1.0000
  H   H28       1.0  0.9188125887298496  0.2853870534919522  0.4775450173143129  1.0000
  H   H29       1.0  0.4419217743403863  0.8040949351222437  0.5601395129279823  1.0000
  H   H30       1.0  0.5580786376349066  0.19590395764826948  0.43986270392586857  1.0000
  H   H31       1.0  0.5667887741302948  0.40129883048361137  0.7105766632906452  1.0000
  H   H32       1.0  0.433209375481752  0.5987000570617482  0.28942512609714305  1.0000
  H   H33       1.0  0.3593012542444285  0.2990834701751837  0.6588920281525432  1.0000
  H   H34       1.0  0.6406991824997023  0.7009164700207506  0.3411091589763373  1.0000
  H   H35       1.0  0.18512023814425047  0.4645174737124762  0.552142614714171  1.0000
  H   H36       1.0  0.8148813483254784  0.5354835230827604  0.44785663011371907  1.0000
  C   C1        1.0  0.8881444691382754  0.6946005127203918  0.9078057424125135  1.0000
  C   C2        1.0  0.11185142627974899  0.30539943452203017  0.09219158629344554  1.0000
  C   C3        1.0  0.9409271719835387  0.7130013721311739  0.9932204673518472  1.0000
  C   C4        1.0  0.0590687771220715  0.2870006655879038  0.006775552776858297  1.0000
  C   C5        1.0  0.8470816741165734  0.7727760174463613  0.06095557276027109  1.0000
  C   C6        1.0  0.15291301373834898  0.22722078709431057  0.9390442559512452  1.0000
  C   C7        1.0  0.7025822469808887  0.8142275608464472  0.04165036860320739  1.0000
  C   C8        1.0  0.2974203570704148  0.18576926416935177  0.9583505808031916  1.0000
  C   C9        1.0  0.6600001152871188  0.7920949772851955  0.9533223134690234  1.0000
  C   C10       1.0  0.33999575536206084  0.2079039225318056  0.046676044961920106  1.0000
  C   C11       1.0  0.5970530373319249  0.8717892164637464  0.1146304779101541  1.0000
  C   C12       1.0  0.4029439954925778  0.12821072682996262  0.8853681908378874  1.0000
  C   C13       1.0  0.6511655853507463  0.9527121352628855  0.1664344662646825  1.0000
  C   C14       1.0  0.34883591021282  0.0472857367528619  0.8335648642473501  1.0000
  C   C15       1.0  0.5552220923473214  0.9924628816529624  0.2459260218877403  1.0000
  C   C16       1.0  0.4447806810665753  0.007540206044410501  0.7540725035322708  1.0000
  C   C17       1.0  0.4012051435682409  0.9529406108750323  0.2751433995758815  1.0000
  C   C18       1.0  0.5987975761580627  0.0470603863456844  0.7248564344213902  1.0000
  C   C19       1.0  0.34448650643481926  0.8800201524053647  0.21844979299023495  1.0000
  C   C20       1.0  0.6555128879589062  0.11998291214458588  0.7815507192851143  1.0000
  C   C21       1.0  0.44103815826527887  0.8400335336727237  0.13922657228620497  1.0000
  C   C22       1.0  0.5589599499782949  0.15996432394400267  0.8607732433357782  1.0000
  C   C23       1.0  0.30875024711690463  0.9868398828034587  0.3663424526052452  1.0000
  C   C24       1.0  0.6912535769472185  0.013160071791503499  0.6336582494136848  1.0000
  C   C25       1.0  0.22399326166842565  0.0958181208696018  0.4806414379856818  1.0000
  C   C26       1.0  0.776011687352458  0.9041818428992343  0.5193583514572425  1.0000
  C   C27       1.0  0.18748917252641206  0.19234590885498187  0.534102676969546  1.0000
  C   C28       1.0  0.8125135513498023  0.8076550839915341  0.4658979079004198  1.0000
  C   C29       1.0  0.10117504491053349  0.1440389351016478  0.63994577175135  1.0000
  C   C30       1.0  0.8988254455211901  0.8559630955709424  0.3600541068002697  1.0000
  C   C31       1.0  0.051880337938712294  0.0032247333622023987  0.6917355968164146  1.0000
  C   C32       1.0  0.9481190233863542  0.996777292510714  0.30826444343851733  1.0000
  C   C33       1.0  0.085635642497401  0.9059620201330316  0.6391172566789295  1.0000
  C   C34       1.0  0.9143636857589996  0.0940389670628576  0.36088231155559214  1.0000
  C   C35       1.0  0.171340832739304  0.9555159456059384  0.5328349053837372  1.0000
  C   C36       1.0  0.8286607289615872  0.044484003763869906  0.46716536916913043  1.0000
  C   C37       1.0  0.19939802935012096  0.7421288633934892  0.47960116021156557  1.0000
  C   C38       1.0  0.800603557119615  0.2578721334017473  0.5203980846163248  1.0000
  C   C39       1.0  0.30220631101114037  0.6467032287235952  0.5460442812810696  1.0000
  C   C40       1.0  0.6977952342207273  0.353295664472398  0.4539585247421627  1.0000
  C   C41       1.0  0.41960993072197533  0.6931170988766127  0.5793393547044801  1.0000
  C   C42       1.0  0.5803905143219765  0.30688283257093474  0.42066333416978813  1.0000
  C   C43       1.0  0.4889506712631758  0.46775592649726877  0.6638830694558777  1.0000
  C   C44       1.0  0.5110474288111888  0.5322408661972416  0.336120779381865  1.0000
  C   C45       1.0  0.3735883874857037  0.41168116213543726  0.6349022474604311  1.0000
  C   C46       1.0  0.6264097373575126  0.5883166779845013  0.36510057165233417  1.0000
  C   C47       1.0  0.2782403755310199  0.5026446970161373  0.5760294820330074  1.0000
  C   C48       1.0  0.721757774081034  0.49735419052922936  0.4239723073547808  1.0000
  I   I1        1.0  0.6516275982002568  0.3739268713811228  0.10422502992239661  1.0000
  I   I2        1.0  0.3483738189068788  0.6260678627325474  0.8957766388918743  1.0000
  I   I3        1.0  0.12464081369930821  0.5148481078892786  0.27532134696919297  1.0000
  I   I4        1.0  0.8753641641097117  0.4851539726013884  0.7246726286603007  1.0000
  N   N1        1.0  0.750189505471802  0.7342184155942632  0.8880250856487069  1.0000
  N   N2        1.0  0.2498064271647847  0.2657825659509924  0.11197346595037057  1.0000
  N   N3        1.0  0.3088023108760183  0.11199505623599038  0.37730856326719925  1.0000
  N   N4        1.0  0.6912004130001961  0.8880059366105258  0.6226920216027664  1.0000
  N   N5        1.0  0.22459702988113148  0.8895573249349129  0.45796198784127984  1.0000
  N   N6        1.0  0.7754067652642432  0.11044158660882177  0.5420389930299337  1.0000
  N   N7        1.0  0.5108372317305551  0.6052794710537837  0.6374332998446306  1.0000
  N   N8        1.0  0.48916095510006824  0.39472045079441637  0.36256971243626884  1.0000
