data_image0
_chemical_formula_structural       Cd2H32C30N12O8
_chemical_formula_sum              "Cd2 H32 C30 N12 O8"
_cell_length_a       8.125710314579022
_cell_length_b       9.788749309879755
_cell_length_c       10.616796001914347
_cell_angle_alpha    101.79978872047677
_cell_angle_beta     98.68079248333343
_cell_angle_gamma    94.43806194398373

_space_group_name_H-M_alt    "P 1"
_space_group_IT_number       1

loop_
  _space_group_symop_operation_xyz
  'x, y, z'

loop_
  _atom_site_type_symbol
  _atom_site_label
  _atom_site_symmetry_multiplicity
  _atom_site_fract_x
  _atom_site_fract_y
  _atom_site_fract_z
  _atom_site_occupancy
  Cd  Cd1       1.0  0.1512403429606408  0.1342044806078206  0.12155654037319152  1.0000
  Cd  Cd2       1.0  0.8487608350038799  0.8657965417781026  0.8784442550004955  1.0000
  H   H1        1.0  0.9224224035810878  0.629628966004489  0.21072147431443267  1.0000
  H   H2        1.0  0.07757614365883819  0.370371006936871  0.7892778779730777  1.0000
  H   H3        1.0  0.0656748448748701  0.1418706739867233  0.6317487578056815  1.0000
  H   H4        1.0  0.9343238437139832  0.8581303518862101  0.36825174880429773  1.0000
  H   H5        1.0  0.02295195685425707  0.9678632282834128  0.6521116061090312  1.0000
  H   H6        1.0  0.9770478350735061  0.03213674291444588  0.34788789056032954  1.0000
  H   H7        1.0  0.3279621538042647  0.9573281919389913  0.721913945723671  1.0000
  H   H8        1.0  0.6720376372621361  0.042671781968806485  0.2780864932572911  1.0000
  H   H9        1.0  0.28709451969071154  0.9985340627373415  0.5657479693533604  1.0000
  H   H10       1.0  0.7129052722370517  0.0014659084605171003  0.4342515273160005  1.0000
  H   H11       1.0  0.42027990320080016  0.21059938076111703  0.8240411940130487  1.0000
  H   H12       1.0  0.5797211342761557  0.7894005859833013  0.1759575047265685  1.0000
  H   H13       1.0  0.36234742943506865  0.25600974826564027  0.6732201120472113  1.0000
  H   H14       1.0  0.6376525047029772  0.7439912731538525  0.326779596633017  1.0000
  H   H15       1.0  0.6665660262020411  0.25060430175089005  0.7169692465358538  1.0000
  H   H16       1.0  0.3334337657257224  0.7493956694469687  0.28303025013350697  1.0000
  H   H17       1.0  0.578459648128103  0.11650829567327041  0.5795632599018248  1.0000
  H   H18       1.0  0.4215402851485806  0.8834927284561618  0.4204373910900047  1.0000
  H   H19       1.0  0.2879568480619028  0.26840048853960496  0.42426131835839004  1.0000
  H   H20       1.0  0.7120439049944878  0.7315973777615381  0.5757369563594921  1.0000
  H   H21       1.0  0.4173404277991679  0.4602782024839271  0.6149143080161039  1.0000
  H   H22       1.0  0.5826604666061428  0.539720716748789  0.38508512102424675  1.0000
  H   H23       1.0  0.3344545800281082  0.7004745633663985  0.6376618703156041  1.0000
  H   H24       1.0  0.665547700413967  0.29952540705438924  0.36233885742906585  1.0000
  H   H25       1.0  0.11700010206609326  0.7590066287329262  0.47187788257864594  1.0000
  H   H26       1.0  0.8830010758984276  0.24099439365299694  0.5281229127950411  1.0000
  H   H27       1.0  0.8131921721013528  0.44576798123941325  0.9895847335300233  1.0000
  H   H28       1.0  0.1868088645142407  0.554231988214937  0.010414907521194979  1.0000
  H   H29       1.0  0.8302163938920586  0.2649902782896233  0.9913149173330141  1.0000
  H   H30       1.0  0.169784784072462  0.7350107440963072  0.008685878040672916  1.0000
  H   H31       1.0  0.5752095567594536  0.13186930633064967  0.0536326465336074  1.0000
  H   H32       1.0  0.4247914807175023  0.8681306604137685  0.9463660522060097  1.0000
  C   C1        1.0  0.09866934496248088  0.12037398885335188  0.8307130690496296  1.0000
  C   C2        1.0  0.9013304469652825  0.8796259823445072  0.16928642761973126  1.0000
  C   C3        1.0  0.1081575370455141  0.0651275230406938  0.6882306459609995  1.0000
  C   C4        1.0  0.8918422548822492  0.9348724481571647  0.31176885070836147  1.0000
  C   C5        1.0  0.2878851538237015  0.039255277710836395  0.670453172023926  1.0000
  C   C6        1.0  0.7121132512059419  0.9607436450088895  0.3295459682527166  1.0000
  C   C7        1.0  0.41095318759243343  0.17220557271124898  0.7181687604415714  1.0000
  C   C8        1.0  0.5890452174372101  0.8277933500084771  0.2818303798350713  1.0000
  C   C9        1.0  0.5849572379200295  0.15032134977255396  0.6854786460635154  1.0000
  C   C10       1.0  0.4150413093198966  0.8496786231688059  0.31452070622399486  1.0000
  C   C11       1.0  0.6704774886968322  0.045329534850260686  0.7521820182654296  1.0000
  C   C12       1.0  0.32952230323093096  0.954670436347598  0.24781747840393112  1.0000
  C   C13       1.0  0.13067141071421423  0.4076612159306023  0.33999035838876074  1.0000
  C   C14       1.0  0.8693285234238317  0.5923398054888906  0.6600093502914675  1.0000
  C   C15       1.0  0.2507967010360659  0.37418843065795204  0.4347014635736812  1.0000
  C   C16       1.0  0.7492017022708666  0.6258104974816446  0.5652995613261638  1.0000
  C   C17       1.0  0.3210581419910739  0.4817187284752649  0.5408585163125823  1.0000
  C   C18       1.0  0.678942893763164  0.5182812436890243  0.45914206705023736  1.0000
  C   C19       1.0  0.2742504607024117  0.6189139758547313  0.5537839711448882  1.0000
  C   C20       1.0  0.7257466961939657  0.3810849594482447  0.44621879399630887  1.0000
  C   C21       1.0  0.15384286149456727  0.6532624362532073  0.461126409056952  1.0000
  C   C22       1.0  0.8461583173313159  0.34673858342277697  0.5388734440051266  1.0000
  C   C23       1.0  0.08387630002048503  0.5458097495092176  0.3536589122039331  1.0000
  C   C24       1.0  0.9161234910459228  0.45419022439858026  0.6463415267770359  1.0000
  C   C25       1.0  0.9438734366820327  0.4100410806276427  0.17017804379906926  1.0000
  C   C26       1.0  0.056126498317375706  0.5899599380819109  0.8298207225695579  1.0000
  C   C27       1.0  0.8131820308222117  0.3671617675360535  0.05007681541278684  1.0000
  C   C28       1.0  0.18681790245447874  0.6328392565933709  0.9499238355790425  1.0000
  C   C29       1.0  0.5449908175398194  0.2380156370779359  0.0851975087549803  1.0000
  C   C30       1.0  0.45501021907578115  0.7619843323764144  0.9148021322962381  1.0000
  N   N1        1.0  0.0406625707802348  0.3250416434573467  0.22363168138712552  1.0000
  N   N2        1.0  0.9593386080456483  0.6749593762186378  0.7763681716749533  1.0000
  N   N3        1.0  0.9656631527461954  0.5426181704038128  0.24464052037821196  1.0000
  N   N4        1.0  0.0343366383202124  0.45738180350397767  0.7553599186027568  1.0000
  N   N5        1.0  0.6450476222451158  0.3539924985300971  0.08493292375345622  1.0000
  N   N6        1.0  0.3549521696826474  0.6460074726677546  0.9150665729159043  1.0000
  N   N7        1.0  0.5669359983669509  0.468325093628728  0.12576830958104776  1.0000
  N   N8        1.0  0.433065039110005  0.5316748731156904  0.8742303891585621  1.0000
  N   N9        1.0  0.42290589834512105  0.42236188739608593  0.148678949783779  1.0000
  N   N10       1.0  0.5770951382704792  0.5776380820582714  0.8513206912674393  1.0000
  N   N11       1.0  0.4056739024447041  0.27903962716007397  0.12449756792739212  1.0000
  N   N12       1.0  0.594326031693342  0.7209613942594186  0.8755021407528361  1.0000
  O   O1        1.0  0.10123425785785402  0.029156954914576292  0.9038363788428045  1.0000
  O   O2        1.0  0.8987656762801919  0.9708440665049165  0.09616332983742384  1.0000
  O   O3        1.0  0.0957060352994858  0.24927426801087182  0.8770202144318378  1.0000
  O   O4        1.0  0.9042937566282775  0.7507257031869867  0.12297928223752308  1.0000
  O   O5        1.0  0.6755705656449961  0.05812561948665969  0.875201959636307  1.0000
  O   O6        1.0  0.3244304709705972  0.9418743499676903  0.12479768141491114  1.0000
  O   O7        1.0  0.7386108374813035  0.9486967215475135  0.6856651198037583  1.0000
  O   O8        1.0  0.2613877097586226  0.05130325139384689  0.3143342324837448  1.0000
