data_image0
_chemical_formula_structural       Ni4H32C44O22
_chemical_formula_sum              "Ni4 H32 C44 O22"
_cell_length_a       10.372532329926887
_cell_length_b       11.29606889859753
_cell_length_c       12.127603877436943
_cell_angle_alpha    90.67182138212675
_cell_angle_beta     110.61690851329946
_cell_angle_gamma    109.96894167480974

_space_group_name_H-M_alt    "P 1"
_space_group_IT_number       1

loop_
  _space_group_symop_operation_xyz
  'x, y, z'

loop_
  _atom_site_type_symbol
  _atom_site_label
  _atom_site_symmetry_multiplicity
  _atom_site_fract_x
  _atom_site_fract_y
  _atom_site_fract_z
  _atom_site_occupancy
  Ni  Ni1       1.0  0.7960590700503049  0.5209215854769697  0.7005851418269059  1.0000
  Ni  Ni2       1.0  0.20394033070736836  0.4790762705977655  0.29941773222101636  1.0000
  Ni  Ni3       1.0  0.4999992761208033  0.5000003691967123  0.5000005275537376  1.0000
  Ni  Ni4       1.0  0.999998435366841  0.4999983642035346  0.9999973203578066  1.0000
  H   H1        1.0  0.6780190158882319  0.39320840819033964  0.48890564450579893  1.0000
  H   H2        1.0  0.8051678832754021  0.5445267364616272  0.5062344015834057  1.0000
  H   H3        1.0  0.9143212924267132  0.6738817909092347  0.8954008165700031  1.0000
  H   H4        1.0  0.7570878845140284  0.5521311069003757  0.8857859219208636  1.0000
  H   H5        1.0  0.972895332955872  0.9390770556520065  0.6849291592002302  1.0000
  H   H6        1.0  0.6065014970067181  0.10355088433385622  0.7285408195987202  1.0000
  H   H7        1.0  0.2567360062133659  0.5777296474252368  0.9693730803820486  1.0000
  H   H8        1.0  0.13051210412372427  0.5932546812500094  0.8526541172142503  1.0000
  H   H9        1.0  0.5535637198335766  0.7336286536709481  0.8007695977513195  1.0000
  H   H10       1.0  0.3921525650526902  0.9525605450477245  0.533861509881774  1.0000
  H   H11       1.0  0.14027502848822593  0.29946949781000143  0.9076790343886216  1.0000
  H   H12       1.0  0.0742610373435184  0.1066010696820427  0.5728348972125588  1.0000
  H   H13       1.0  0.29518953929802194  0.6011848291706344  0.7718672756009326  1.0000
  H   H14       1.0  0.13299570286370252  0.8147558142413517  0.5015121070612594  1.0000
  H   H15       1.0  0.3919038128843937  0.43882460056088485  0.9271754754019811  1.0000
  H   H16       1.0  0.3252282378087515  0.25000336861310773  0.5904229475657347  1.0000
  H   H17       1.0  0.3219846834506157  0.6067923242410487  0.5110968973886899  1.0000
  H   H18       1.0  0.19483209814742247  0.45547496440129714  0.4937662669341806  1.0000
  H   H19       1.0  0.0856754026016944  0.3261122890733361  0.10459870259610682  1.0000
  H   H20       1.0  0.2429127314088646  0.4478648636731962  0.11421560427154281  1.0000
  H   H21       1.0  0.027103164098050993  0.0609237380007457  0.3150677578261352  1.0000
  H   H22       1.0  0.393498632206871  0.8964537308109543  0.27145584448715715  1.0000
  H   H23       1.0  0.7432621290337877  0.4222653839749668  0.030626879810398626  1.0000
  H   H24       1.0  0.8694858012275117  0.40674227866643514  0.14734417772621813  1.0000
  H   H25       1.0  0.4464364756052319  0.2663758951626463  0.1992320320318939  1.0000
  H   H26       1.0  0.6078436701838825  0.04743739196730701  0.466134678780378  1.0000
  H   H27       1.0  0.8597259320087431  0.7005274916848236  0.09231766977539015  1.0000
  H   H28       1.0  0.9257397215277554  0.8934025806084452  0.4271627481780059  1.0000
  H   H29       1.0  0.7048111000527086  0.3988206391174032  0.22813698069987964  1.0000
  H   H30       1.0  0.8670036930515793  0.1852468072684204  0.4984908906165303  1.0000
  H   H31       1.0  0.6081019329030468  0.5611666207193551  0.0728257587151262  1.0000
  H   H32       1.0  0.6747760739550941  0.7499916556326627  0.409578796771129  1.0000
  C   C1        1.0  0.7158152162024081  0.7514141715755825  0.6433852549798617  1.0000
  C   C2        1.0  0.7505855088631819  0.8904636596746444  0.6760731145744145  1.0000
  C   C3        1.0  0.8928476265696477  0.9767021721442932  0.6943442242146319  1.0000
  C   C4        1.0  0.6440965266988526  0.9357638170886488  0.6871154046270078  1.0000
  C   C5        1.0  0.9365028901981916  0.1085220224993861  0.7259644792801653  1.0000
  C   C6        1.0  0.6870762223647802  0.06683149018113  0.7187360117703818  1.0000
  C   C7        1.0  0.49079362231475426  0.8528720161420225  0.6696566411320576  1.0000
  C   C8        1.0  0.08772787903918562  0.19368855058781526  0.7384652238159788  1.0000
  C   C9        1.0  0.8302934512392283  0.1526582764655942  0.7403220464260727  1.0000
  C   C10       1.0  0.4617042628540844  0.7531028566534984  0.7362825792712117  1.0000
  C   C11       1.0  0.37120579922618174  0.8762285037114663  0.5868877434725377  1.0000
  C   C12       1.0  0.1802834829127278  0.2885954297976525  0.8380428510242128  1.0000
  C   C13       1.0  0.14347012623226618  0.1798146411694574  0.6507511866087513  1.0000
  C   C14       1.0  0.855871851693081  0.28924666701500007  0.7771548410370599  1.0000
  C   C15       1.0  0.31668267438706016  0.6794646960586946  0.7210886885740708  1.0000
  C   C16       1.0  0.2260509151262937  0.7999172296348647  0.5687267405984714  1.0000
  C   C17       1.0  0.3211143524981779  0.3676843674888843  0.8481824113183551  1.0000
  C   C18       1.0  0.2836968239764914  0.2604488289676965  0.6594339030160159  1.0000
  C   C19       1.0  0.19758109778517513  0.7020019847726291  0.6367250064546824  1.0000
  C   C20       1.0  0.37363729981563426  0.3559470856772222  0.7581783692874711  1.0000
  C   C21       1.0  0.041029243329752794  0.62607302360761  0.6188930048587622  1.0000
  C   C22       1.0  0.5261792549107724  0.44023203020140045  0.7734036058630167  1.0000
  C   C23       1.0  0.2841870760303067  0.24858557628256508  0.3566193287369614  1.0000
  C   C24       1.0  0.24941754978044628  0.10953804866293385  0.3239276183991606  1.0000
  C   C25       1.0  0.10715208080710431  0.023301501442333002  0.3056514685860918  1.0000
  C   C26       1.0  0.35590262208782514  0.064235989606054  0.31288414893649025  1.0000
  C   C27       1.0  0.06349679510348234  0.8914816731909809  0.274029558288106  1.0000
  C   C28       1.0  0.3129241036321133  0.9331712296030474  0.28125983471881005  1.0000
  C   C29       1.0  0.5092030630288776  0.14713159471061496  0.3303431252937871  1.0000
  C   C30       1.0  0.9122716363966462  0.8063122529244069  0.2615311629515632  1.0000
  C   C31       1.0  0.16970436096932676  0.8473435373008231  0.25966975121448144  1.0000
  C   C32       1.0  0.5382965401673374  0.2469007494295141  0.2637183765842508  1.0000
  C   C33       1.0  0.6287919044993657  0.12377511700064052  0.4131114926944904  1.0000
  C   C34       1.0  0.8197175106968544  0.7114015265415646  0.1619563359884637  1.0000
  C   C35       1.0  0.8565300188612498  0.8201851974884492  0.34924618146347824  1.0000
  C   C36       1.0  0.1441255779863937  0.7107589264208016  0.22283941941309857  1.0000
  C   C37       1.0  0.6833165026698395  0.32053984291544424  0.2789134714679662  1.0000
  C   C38       1.0  0.7739468217118598  0.20008635792163432  0.4312749784172211  1.0000
  C   C39       1.0  0.6788901891615851  0.6323087282406519  0.1518209982704875  1.0000
  C   C40       1.0  0.7163064473303679  0.7395462075223451  0.3405667163472189  1.0000
  C   C41       1.0  0.8024191528413239  0.2980025088016234  0.3632807614096407  1.0000
  C   C42       1.0  0.6263654190963024  0.6440488383040589  0.2418270620846316  1.0000
  C   C43       1.0  0.9589677050224096  0.3739286255731926  0.3811109096677257  1.0000
  C   C44       1.0  0.47382671593020126  0.5597620279976498  0.22659941713594386  1.0000
  O   O1        1.0  0.5905228220313887  0.6876158253613129  0.5617957929480468  1.0000
  O   O2        1.0  0.6977984782220901  0.48267099101701666  0.5126835636369833  1.0000
  O   O3        1.0  0.5657982966861327  0.45618226290513075  0.6839081822813854  1.0000
  O   O4        1.0  0.8166878080869536  0.70981475345679  0.6993103352913438  1.0000
  O   O5        1.0  0.868229960832835  0.5811102733039278  0.883999407320083  1.0000
  O   O6        1.0  0.7834464526014387  0.33945673041634444  0.6974850498981979  1.0000
  O   O7        1.0  0.014887379599869612  0.5788237821018926  0.7079910803685723  1.0000
  O   O8        1.0  0.17173715757122215  0.6041865050622948  0.9417487391191773  1.0000
  O   O9        1.0  0.9380482325217941  0.3365685558170881  0.8848678587609629  1.0000
  O   O10       1.0  0.941577907151995  0.6154589844006183  0.516702972916093  1.0000
  O   O11       1.0  0.6164250107373164  0.4932144813732436  0.8800359912010196  1.0000
  O   O12       1.0  0.409480313875001  0.3123858056131894  0.4382107333390907  1.0000
  O   O13       1.0  0.3022004344735266  0.5173259898107505  0.48731337342844233  1.0000
  O   O14       1.0  0.4341998827111765  0.543812724287605  0.3160950883759526  1.0000
  O   O15       1.0  0.1833144351532212  0.2901898040438624  0.3006910615904559  1.0000
  O   O16       1.0  0.13176632959142154  0.4188876084517618  0.11600091942317903  1.0000
  O   O17       1.0  0.21654954170167423  0.6605431461667804  0.3025086458957489  1.0000
  O   O18       1.0  0.9851128096437947  0.42117601234853913  0.292009598168548  1.0000
  O   O19       1.0  0.8282607698550919  0.3958104327504087  0.05825121105373652  1.0000
  O   O20       1.0  0.06194937186590721  0.6634351643618288  0.11512392886006503  1.0000
  O   O21       1.0  0.05841945199946955  0.38454361739022846  0.4833010852793365  1.0000
  O   O22       1.0  0.383579733900902  0.5067814733788368  0.11996755203722392  1.0000
