data_image0
_chemical_formula_structural       Cu3H34C36N4O12
_chemical_formula_sum              "Cu3 H34 C36 N4 O12"
_cell_length_a       5.561420136519831
_cell_length_b       8.979538305365242
_cell_length_c       18.569410877197118
_cell_angle_alpha    77.10433481957277
_cell_angle_beta     81.57041184579563
_cell_angle_gamma    82.79502787504946

_space_group_name_H-M_alt    "P 1"
_space_group_IT_number       1

loop_
  _space_group_symop_operation_xyz
  'x, y, z'

loop_
  _atom_site_type_symbol
  _atom_site_label
  _atom_site_symmetry_multiplicity
  _atom_site_fract_x
  _atom_site_fract_y
  _atom_site_fract_z
  _atom_site_occupancy
  Cu  Cu1       1.0  0.9813200661821926  0.583789678277675  0.4182034767871343  1.0000
  Cu  Cu2       1.0  0.015953443520110997  0.4165279062235855  0.5814930603368893  1.0000
  Cu  Cu3       1.0  0.5005172463830477  0.4991697682740581  0.5003466502771658  1.0000
  H   H1        1.0  0.9112505689475301  0.7606018637880114  0.26874886012051746  1.0000
  H   H2        1.0  0.0887141245512808  0.23935885055026063  0.7307736141057716  1.0000
  H   H3        1.0  0.12196665666325399  0.7892178998081932  0.13991849916089896  1.0000
  H   H4        1.0  0.8794578085867786  0.21127786308633031  0.85979087786842  1.0000
  H   H5        1.0  0.7183544664152921  0.4779854119755456  0.2300146137641192  1.0000
  H   H6        1.0  0.28183725253654757  0.5219863828761291  0.7700991249624209  1.0000
  H   H7        1.0  0.4786285854229818  0.45443988038596234  0.3534257923731444  1.0000
  H   H8        1.0  0.5201134777157393  0.5451416066219681  0.6465096482178934  1.0000
  H   H9        1.0  0.1939895037187611  0.33098898057175324  0.46303875687818413  1.0000
  H   H10       1.0  0.8063989749470295  0.6707926992331963  0.5369122252448406  1.0000
  H   H11       1.0  0.466233145476359  0.7080683246733841  0.9334648012069379  1.0000
  H   H12       1.0  0.534694087680414  0.29184851236868076  0.06659351581267  1.0000
  H   H13       1.0  0.7540059182862536  0.713373252890058  0.9646618439749942  1.0000
  H   H14       1.0  0.24692562649094904  0.2866779324007425  0.0353865399943913  1.0000
  H   H15       1.0  0.8574322960783719  0.4357457886228886  0.9675577993569674  1.0000
  H   H16       1.0  0.14359011486486392  0.5643079712869083  0.032530944427406894  1.0000
  H   H17       1.0  0.7587789319357013  0.5233275487317713  0.8800995583621402  1.0000
  H   H18       1.0  0.24247314007392629  0.4766507610259582  0.11994511648565259  1.0000
  H   H19       1.0  0.2680873319839066  0.9162394931624008  0.32948862452111166  1.0000
  H   H20       1.0  0.7305989896824769  0.08457563626547682  0.67059377555708  1.0000
  H   H21       1.0  0.3264913515258386  0.0088638686831359  0.397801689307677  1.0000
  H   H22       1.0  0.673359224183173  0.9912693412359703  0.602378150750141  1.0000
  H   H23       1.0  0.4787408414399296  0.9608670314986159  0.20816871503183879  1.0000
  H   H24       1.0  0.5202595704648872  0.039434458908175415  0.7920076644312601  1.0000
  H   H25       1.0  0.806321405448209  0.07543937679991333  0.113779380037748  1.0000
  H   H26       1.0  0.19280821289249422  0.924452240775025  0.8863377211526995  1.0000
  H   H27       1.0  0.11143390069834423  0.21527010250785855  0.15320735881820716  1.0000
  H   H28       1.0  0.8881174786275141  0.7845118305770385  0.8467999585509104  1.0000
  H   H29       1.0  0.08401940660238692  0.23826872735771343  0.2840286240611433  1.0000
  H   H30       1.0  0.9162220495922854  0.7611965545073148  0.7160188759779871  1.0000
  H   H31       1.0  0.839675035857468  0.0028376856413388  0.4329065717204016  1.0000
  H   H32       1.0  0.16303496629372213  0.9963425106477644  0.5669151617630702  1.0000
  H   H33       1.0  0.5754339760296433  0.13571420725514122  0.4278667532529922  1.0000
  H   H34       1.0  0.4259802456584083  0.8624544971146764  0.5726353466472601  1.0000
  C   C1        1.0  0.08868926857380191  0.6986688629467322  0.25726584404892344  1.0000
  C   C2        1.0  0.9112902629925588  0.3012852971015363  0.7423821548365124  1.0000
  C   C3        1.0  0.21097468092050775  0.7163339792259081  0.18556398304321678  1.0000
  C   C4        1.0  0.7898764216420134  0.2839827863009746  0.8142012052319173  1.0000
  C   C5        1.0  0.4421077080025455  0.6374911034208921  0.1739943078296804  1.0000
  C   C6        1.0  0.558705996312348  0.362724914613402  0.8259288905006485  1.0000
  C   C7        1.0  0.5397025199592137  0.5427957969711913  0.23541555536192496  1.0000
  C   C8        1.0  0.4604204675213453  0.45716635072371775  0.7645655156700639  1.0000
  C   C9        1.0  0.4035034029387107  0.5286131425416444  0.3053799848472352  1.0000
  C   C10       1.0  0.5957938286603268  0.4711473013837164  0.6944977688123684  1.0000
  C   C11       1.0  0.584315098791933  0.6626122066921881  0.09771103125673618  1.0000
  C   C12       1.0  0.4167312204664597  0.33753898135261556  0.9022820568502539  1.0000
  C   C13       1.0  0.6051321200303335  0.6420342718938272  0.9678457687001154  1.0000
  C   C14       1.0  0.3958538937187511  0.35794812844354607  0.032207651246523  1.0000
  C   C15       1.0  0.6991433752416043  0.4950308656622582  0.9399798294955628  1.0000
  C   C16       1.0  0.30192026027238933  0.5049780882317876  0.06006831787810539  1.0000
  C   C17       1.0  0.5341443078861445  0.7923466614186195  0.3968064330140563  1.0000
  C   C18       1.0  0.4641882670577147  0.20743382584183223  0.603122456762911  1.0000
  C   C19       1.0  0.4167863311750608  0.9439153377062299  0.3558032801546175  1.0000
  C   C20       1.0  0.5823792943889075  0.056370128744575324  0.6442619105565013  1.0000
  C   C21       1.0  0.5969435240673207  0.032409147451538396  0.29930198818773585  1.0000
  C   C22       1.0  0.40248950907188435  0.9676817612177973  0.7008224675686775  1.0000
  C   C23       1.0  0.6104039914489051  0.02393794293288211  0.22435947802285483  1.0000
  C   C24       1.0  0.38877605661862447  0.9762707707673782  0.7757721011327305  1.0000
  C   C25       1.0  0.7930228463475901  0.08948712623484312  0.17115757190194356  1.0000
  C   C26       1.0  0.20620296070833183  0.9105091440690033  0.8289422551129775  1.0000
  C   C27       1.0  0.9628839608377149  0.16699608651948952  0.1931487791596354  1.0000
  C   C28       1.0  0.03661121238635452  0.8328685345627846  0.8069048454236238  1.0000
  C   C29       1.0  0.9482999579418492  0.17878119780813506  0.2674219165963478  1.0000
  C   C30       1.0  0.05153253204245799  0.8208820385389972  0.7326605890704058  1.0000
  C   C31       1.0  0.767934197391199  0.11172737342879911  0.3215342061691828  1.0000
  C   C32       1.0  0.23200271959727564  0.8879683411751673  0.6785961158040336  1.0000
  C   C33       1.0  0.7651787871221958  0.1150706965041834  0.40278288359981923  1.0000
  C   C34       1.0  0.23606780257625115  0.8840557651729384  0.5973776840732441  1.0000
  C   C35       1.0  0.9062834219452467  0.2404415498446398  0.41490985026229765  1.0000
  C   C36       1.0  0.09357712761471505  0.7592877836801222  0.5854108687756749  1.0000
  N   N1        1.0  0.182115386287542  0.6062210353378177  0.316427756444071  1.0000
  N   N2        1.0  0.8170045940518166  0.393384755924238  0.6832797598329208  1.0000
  N   N3        1.0  0.49565626609377494  0.6073920394334422  0.04519376086802399  1.0000
  N   N4        1.0  0.5054328037491087  0.3925813218199324  0.9548371898783541  1.0000
  O   O1        1.0  0.3933741406093604  0.7066958858728611  0.4435888633416525  1.0000
  O   O2        1.0  0.6057409590310883  0.2936004092294056  0.5567186659754313  1.0000
  O   O3        1.0  0.7629233914254813  0.7624269502743958  0.3799771518858818  1.0000
  O   O4        1.0  0.2352180117267224  0.23683076442761572  0.6190660066201943  1.0000
  O   O5        1.0  0.8105053530393604  0.3780430237174954  0.39821531537270966  1.0000
  O   O6        1.0  0.18754493121370794  0.6213444910573641  0.602322449925566  1.0000
  O   O7        1.0  0.11200289904021332  0.20018561284770442  0.4401395913546722  1.0000
  O   O8        1.0  0.8881109615835499  0.8006511702156092  0.5601330419300367  1.0000
  O   O9        1.0  0.7669375059870305  0.735959780244457  0.08423772687925178  1.0000
  O   O10       1.0  0.23408794687386356  0.2642623843314738  0.9156801943288642  1.0000
  O   O11       1.0  0.2057350521456627  0.43538689831424904  0.47866942771256055  1.0000
  O   O12       1.0  0.7945417416629681  0.5672130415594054  0.5206742539579634  1.0000
