data_image0
_chemical_formula_structural       Mn6H28C16N72O8
_chemical_formula_sum              "Mn6 H28 C16 N72 O8"
_cell_length_a       9.409168985348549
_cell_length_b       11.675936820893927
_cell_length_c       14.954291902938254
_cell_angle_alpha    112.9951564620897
_cell_angle_beta     108.33795570808466
_cell_angle_gamma    89.99621122698119

_space_group_name_H-M_alt    "P 1"
_space_group_IT_number       1

loop_
  _space_group_symop_operation_xyz
  'x, y, z'

loop_
  _atom_site_type_symbol
  _atom_site_label
  _atom_site_symmetry_multiplicity
  _atom_site_fract_x
  _atom_site_fract_y
  _atom_site_fract_z
  _atom_site_occupancy
  Mn  Mn1       1.0  0.9999993758782892  0.499999888806677  0.9999989250207334  1.0000
  Mn  Mn2       1.0  0.4999997942065947  8.274412480001994e-07  1.9164217022273535e-06  1.0000
  Mn  Mn3       1.0  0.6876816787345065  0.6878290682005072  0.3755233034251049  1.0000
  Mn  Mn4       1.0  0.8123686405223866  0.8120104451211104  0.6244273632982525  1.0000
  Mn  Mn5       1.0  0.3123163026981146  0.31217008754602915  0.6244762617079899  1.0000
  Mn  Mn6       1.0  0.1876315786595555  0.18798870863988526  0.3755719740532157  1.0000
  H   H1        1.0  0.40010987361872447  0.2753039874922009  0.21132249031978736  1.0000
  H   H2        1.0  0.8110479505735881  0.9362532616081154  0.2113344429679173  1.0000
  H   H3        1.0  0.09973142092525218  0.5639000336707766  0.7888405116153833  1.0000
  H   H4        1.0  0.688919200939793  0.224610319190667  0.7886059002862992  1.0000
  H   H5        1.0  0.5998884235552707  0.7246970533295992  0.788678372926519  1.0000
  H   H6        1.0  0.1889514578764206  0.0637477584084394  0.7886639584189368  1.0000
  H   H7        1.0  0.9002726198085611  0.4361019220819741  0.21115774784074404  1.0000
  H   H8        1.0  0.31107990913719163  0.7753888610362764  0.21139656977280188  1.0000
  H   H9        1.0  0.5872450875740611  0.2359368843143272  0.3554215436556731  1.0000
  H   H10       1.0  0.7680351836363499  0.1197902433143696  0.3556702697193614  1.0000
  H   H11       1.0  0.9125773699471221  0.380336404270281  0.6446477284814378  1.0000
  H   H12       1.0  0.7319809773935759  0.26385702613004  0.6444497092459684  1.0000
  H   H13       1.0  0.41275640618219  0.7640632053308208  0.6445776580134036  1.0000
  H   H14       1.0  0.23196743442217374  0.8802098594897668  0.6443304951793607  1.0000
  H   H15       1.0  0.08742605884334145  0.6196618322782965  0.3553539723818985  1.0000
  H   H16       1.0  0.26801732195146133  0.7361440203524622  0.3555518248485257  1.0000
  H   H17       1.0  0.5112304532914109  0.7503072586987257  0.5001196238174543  1.0000
  H   H18       1.0  0.9888376543757289  0.7498811935064466  0.49987265418612736  1.0000
  H   H19       1.0  0.4887718555388717  0.24969097601227472  0.49988185551259795  1.0000
  H   H20       1.0  0.011157711269781597  0.25012918609144913  0.5001244216186009  1.0000
  H   H21       1.0  0.8383523387910117  0.2718436233095716  0.9997221081809613  1.0000
  H   H22       1.0  0.1616427582122313  0.7281517246470556  0.0002703925700444812  1.0000
  H   H23       1.0  0.6616751830003054  0.7722138457815078  0.0003301232905527981  1.0000
  H   H24       1.0  0.3383260029451591  0.22779101415161312  0.9996791460342109  1.0000
  H   H25       1.0  0.006807173116101203  0.263596142845536  9.787088624340994e-05  1.0000
  H   H26       1.0  0.9931877584177968  0.7363982427609912  0.999891632839514  1.0000
  H   H27       1.0  0.4931581988158626  0.76346105295228  0.9998090155243486  1.0000
  H   H28       1.0  0.506841549256997  0.23654191440729724  0.00019806330573861856  1.0000
  C   C1        1.0  0.3936447302778348  0.44927269473609494  0.2037182419261824  1.0000
  C   C2        1.0  0.8098393953094031  0.7545958119559583  0.2035735004807364  1.0000
  C   C3        1.0  0.1062547962164473  0.7454887084995504  0.7964645318963618  1.0000
  C   C4        1.0  0.6901292200652663  0.050712957980770995  0.7963188313082411  1.0000
  C   C5        1.0  0.606355647860326  0.5507274043928871  0.7962820799059783  1.0000
  C   C6        1.0  0.1901555332998583  0.24540520071027316  0.7964240147730095  1.0000
  C   C7        1.0  0.8937465385835992  0.25451043577761107  0.20353368529201535  1.0000
  C   C8        1.0  0.30987324989227005  0.9492862277589109  0.2036843033506911  1.0000
  C   C9        1.0  0.5992599109418961  0.3868249759978397  0.3105947888017582  1.0000
  C   C10       1.0  0.7112686713646922  0.923958072639685  0.3106161524648669  1.0000
  C   C11       1.0  0.9006694307089023  0.5761075269949528  0.6895185576964734  1.0000
  C   C12       1.0  0.7887579032702093  0.1130182213230526  0.6893518986187245  1.0000
  C   C13       1.0  0.4007380661486408  0.6131741684272922  0.6894034346349683  1.0000
  C   C14       1.0  0.2887272225906372  0.07604200781755567  0.6893819415378175  1.0000
  C   C15       1.0  0.0993333441347843  0.4238935155164612  0.31048252083476774  1.0000
  C   C16       1.0  0.21124360134125908  0.8869818966256273  0.3106506572912621  1.0000
  N   N1        1.0  0.4451705379016673  0.5721436330518443  0.23855506997395545  1.0000
  N   N2        1.0  0.7933905991308876  0.6665854488189921  0.23846812578970136  1.0000
  N   N3        1.0  0.054786766146463606  0.8334738579743332  0.7615740385442605  1.0000
  N   N4        1.0  0.7066519567667485  0.927799932226442  0.7614511124727272  1.0000
  N   N5        1.0  0.5548288770614676  0.4278574039468238  0.7614453439574475  1.0000
  N   N6        1.0  0.2066097768362241  0.33341464464928083  0.7615315251942789  1.0000
  N   N7        1.0  0.945217276758399  0.16652810343912713  0.23842489176004736  1.0000
  N   N8        1.0  0.2933471533102363  0.0721992480004943  0.23855135758637405  1.0000
  N   N9        1.0  0.33429907099422  0.6147164452257384  0.1818877141041355  1.0000
  N   N10       1.0  0.8474683212565425  0.5673146357217718  0.18168150729205484  1.0000
  N   N11       1.0  0.1657054800331821  0.9327135545490819  0.8182260463154661  1.0000
  N   N12       1.0  0.6526004393180714  0.8853433944726061  0.8182396930371922  1.0000
  N   N13       1.0  0.6656990693946125  0.3852836558887842  0.8181128355096587  1.0000
  N   N14       1.0  0.15253317249970882  0.43268545392337643  0.818317694377022  1.0000
  N   N15       1.0  0.834296488420655  0.06728936553930959  0.18177543794752885  1.0000
  N   N16       1.0  0.3473988275440761  0.11465672546161439  0.18176309065442814  1.0000
  N   N17       1.0  0.22433591605798137  0.5209008311320884  0.11739571993528128  1.0000
  N   N18       1.0  0.892637769536357  0.596588386924722  0.1170714352108675  1.0000
  N   N19       1.0  0.27563344939449047  0.9034327894884908  0.8827483496251175  1.0000
  N   N20       1.0  0.6073726295124544  0.9792495195886772  0.8828307980142327  1.0000
  N   N21       1.0  0.7756643031239676  0.47909832262890717  0.88260361741618  1.0000
  N   N22       1.0  0.10736020538313079  0.40341075183970077  0.8829261173776713  1.0000
  N   N23       1.0  0.7243662834810607  0.09657013824615028  0.11725403326769167  1.0000
  N   N24       1.0  0.39262775948092354  0.020750607843822905  0.1171728780588452  1.0000
  N   N25       1.0  0.2581892565736013  0.4141768055787764  0.1279727233993526  1.0000
  N   N26       1.0  0.8692695931557141  0.7138989085945723  0.12768492177834637  1.0000
  N   N27       1.0  0.24171484730960907  0.7861601390780492  0.8722104623907966  1.0000
  N   N28       1.0  0.6306820063519254  0.08593457175146568  0.8722052795371411  1.0000
  N   N29       1.0  0.7418143159757663  0.5858223367128444  0.872025266007398  1.0000
  N   N30       1.0  0.13072598288719917  0.28609928112670957  0.8723112032629459  1.0000
  N   N31       1.0  0.7582848855659421  0.2138427886565849  0.12779192050201257  1.0000
  N   N32       1.0  0.3693217403509621  0.9140655555330778  0.1277983902875944  1.0000
  N   N33       1.0  0.4612488770279839  0.3646850841776795  0.2394095618409935  1.0000
  N   N34       1.0  0.7779920653975195  0.8749359902025089  0.23938162965527707  1.0000
  N   N35       1.0  0.03860354076124392  0.6251832045387431  0.760766496920489  1.0000
  N   N36       1.0  0.7219690652193763  0.1352267381204868  0.7605410072226916  1.0000
  N   N37       1.0  0.5387526210703513  0.6353150167888797  0.7605909815244515  1.0000
  N   N38       1.0  0.22200528021026142  0.12505938407210238  0.7606139975550192  1.0000
  N   N39       1.0  0.9613981054380789  0.3748178134922711  0.23923167668473874  1.0000
  N   N40       1.0  0.2780313194319106  0.864773377990609  0.23946132715401805  1.0000
  N   N41       1.0  0.6500339837843185  0.30388293622304724  0.35156992514968266  1.0000
  N   N42       1.0  0.7013940064382496  0.047911934039745994  0.3516961268193909  1.0000
  N   N43       1.0  0.8498268661992938  0.4521365412074302  0.6484731745732261  1.0000
  N   N44       1.0  0.7986284051545098  0.19594237212700696  0.6483484664925285  1.0000
  N   N45       1.0  0.34996608078350994  0.6961152834913803  0.6484297694174471  1.0000
  N   N46       1.0  0.298604156414612  0.9520815909614128  0.6483024489000542  1.0000
  N   N47       1.0  0.1501768696483694  0.5478635577735886  0.35152714101059246  1.0000
  N   N48       1.0  0.20136958062020233  0.8040567949409407  0.3516524403369274  1.0000
  N   N49       1.0  0.7974880675672864  0.3461958046276905  0.41410560877520913  1.0000
  N   N50       1.0  0.6165776635198696  0.0680149793075913  0.4142872973635079  1.0000
  N   N51       1.0  0.7024500199598904  0.4319297545389773  0.5858001627822133  1.0000
  N   N52       1.0  0.8834985482828516  0.15352619843145726  0.5857893145223586  1.0000
  N   N53       1.0  0.20251230622878322  0.6538042831798733  0.5858933713605907  1.0000
  N   N54       1.0  0.38342305282369443  0.9319804287832909  0.5857123486875294  1.0000
  N   N55       1.0  0.29755244131347064  0.568069408557882  0.41420028848398965  1.0000
  N   N56       1.0  0.11650071423720479  0.8464739101813521  0.41421212747289365  1.0000
  N   N57       1.0  0.8324793716584297  0.45121006254489515  0.4112449743266994  1.0000
  N   N58       1.0  0.5788334156731523  0.9600727224638563  0.4113561072132014  1.0000
  N   N59       1.0  0.6675505913598484  0.539827843725895  0.5886473278584532  1.0000
  N   N60       1.0  0.9212894881718443  0.048503487451924295  0.5886701851837587  1.0000
  N   N61       1.0  0.1675206863962657  0.5487881401874121  0.5887527076958889  1.0000
  N   N62       1.0  0.4211653721493249  0.039924555705709984  0.5886430521881322  1.0000
  N   N63       1.0  0.3324505888260703  0.46017036650470533  0.4113512465455925  1.0000
  N   N64       1.0  0.07870753876993318  0.9514966288071348  0.4113321554413075  1.0000
  N   N65       1.0  0.7115396720780185  0.4815386108366583  0.348479560300092  1.0000
  N   N66       1.0  0.6369925666062032  0.867046814920613  0.34851135162314517  1.0000
  N   N67       1.0  0.788480175063775  0.6329276164634549  0.6515194955525273  1.0000
  N   N68       1.0  0.8630994828011965  0.018251375319899  0.6514520063275739  1.0000
  N   N69       1.0  0.2884618238492749  0.5184614844691919  0.6515203122171727  1.0000
  N   N70       1.0  0.3630047855147183  0.13294857633611196  0.651486288131693  1.0000
  N   N71       1.0  0.2115198851619624  0.3670705919295614  0.3484788573182414  1.0000
  N   N72       1.0  0.1368967334086406  0.9817506071947194  0.3485493983328851  1.0000
  O   O1        1.0  0.6141855118039388  0.7499841304032981  0.5000403556301833  1.0000
  O   O2        1.0  0.8858620338365526  0.7498319600024387  0.49991074199170527  1.0000
  O   O3        1.0  0.3858126307559361  0.2500159763719267  0.49996086483179164  1.0000
  O   O4        1.0  0.1141397959540598  0.2501634329439071  0.5000871130480603  1.0000
  O   O5        1.0  0.9266119815200115  0.3163881218778215  0.9999274164414514  1.0000
  O   O6        1.0  0.0733887167016078  0.6836138736478219  7.554520029628795e-05  1.0000
  O   O7        1.0  0.5733543209949374  0.8164808715201207  4.090682598705159e-05  1.0000
  O   O8        1.0  0.4266401372588362  0.1835173220242865  0.9999556675302087  1.0000
