data_image0
_chemical_formula_structural       Co4H44C72N8O20
_chemical_formula_sum              "Co4 H44 C72 N8 O20"
_cell_length_a       9.039186782380208
_cell_length_b       13.866580833016448
_cell_length_c       13.9611
_cell_angle_alpha    76.05439718168894
_cell_angle_beta     77.22862008936009
_cell_angle_gamma    77.60799304617461

_space_group_name_H-M_alt    "P 1"
_space_group_IT_number       1

loop_
  _space_group_symop_operation_xyz
  'x, y, z'

loop_
  _atom_site_type_symbol
  _atom_site_label
  _atom_site_symmetry_multiplicity
  _atom_site_fract_x
  _atom_site_fract_y
  _atom_site_fract_z
  _atom_site_occupancy
  Co  Co1       1.0  0.7062474766203124  0.8416161729784832  0.5176495637429922  1.0000
  Co  Co2       1.0  0.7941619583820058  0.4823809752490646  0.16059099001309105  1.0000
  Co  Co3       1.0  0.29375161553524987  0.1583853342287682  0.4823474119395641  1.0000
  Co  Co4       1.0  0.2058365880455142  0.5176182696768308  0.8394137680573904  1.0000
  H   H1        1.0  0.5125165485345988  0.4060478317708274  0.8551818391226504  1.0000
  H   H2        1.0  0.9867311354360812  0.1436103746815292  0.5929657504876857  1.0000
  H   H3        1.0  0.4874803178065292  0.5939491508737049  0.14482799858967607  1.0000
  H   H4        1.0  0.013264903162365735  0.8563941489008612  0.4070330890435939  1.0000
  H   H5        1.0  0.7593042269987863  0.44306554162712075  0.8847473731653536  1.0000
  H   H6        1.0  0.7386029422907114  0.1157730025748478  0.5566549949447932  1.0000
  H   H7        1.0  0.24069416612089617  0.5569299328298456  0.11526189076058564  1.0000
  H   H8        1.0  0.2613936420357775  0.8842337832888987  0.44334250868200803  1.0000
  H   H9        1.0  0.34326651423477017  0.7770446302790077  0.0014712305177937042  1.0000
  H   H10       1.0  0.15700081695443666  0.9979737490169498  0.2242270342238157  1.0000
  H   H11       1.0  0.6567327741308944  0.2229561228344537  0.9985266138643283  1.0000
  H   H12       1.0  0.8430039898951449  0.0020232336275825  0.7757730716734628  1.0000
  H   H13       1.0  0.0739070404687965  0.0574031271706588  0.8744608213523222  1.0000
  H   H14       1.0  0.42463975398132453  0.125006880983257  0.9424811604212238  1.0000
  H   H15       1.0  0.9260987045290322  0.9425946095676636  0.1255368209358424  1.0000
  H   H16       1.0  0.5753569161497085  0.8749908557550654  0.05751778072841051  1.0000
  H   H17       1.0  0.3168908555422831  0.7098646771740889  0.8143326692180182  1.0000
  H   H18       1.0  0.1847605760501381  0.183966457728026  0.2905952684891417  1.0000
  H   H19       1.0  0.6831103520221405  0.2901330595642264  0.1856684876046373  1.0000
  H   H20       1.0  0.8152391476379964  0.8160282626351502  0.7094010925358488  1.0000
  H   H21       1.0  0.11467279465018272  0.9125175789168407  0.019951048303106216  1.0000
  H   H22       1.0  0.3851102875074304  0.9796274012996662  0.08826776524094972  1.0000
  H   H23       1.0  0.8853289586422831  0.0874824201028375  0.9800466237872598  1.0000
  H   H24       1.0  0.6148920544153499  0.020370335438649096  0.9117310803962013  1.0000
  H   H25       1.0  0.7817331421254963  0.62223370059543  0.8746993380276677  1.0000
  H   H26       1.0  0.7169340809349195  0.126098054691461  0.37857549025519427  1.0000
  H   H27       1.0  0.2182680654389344  0.3777640361428922  0.12530253507092226  1.0000
  H   H28       1.0  0.2830614119354919  0.8739042066095735  0.6214239689046224  1.0000
  H   H29       1.0  0.49896156978809364  0.6297753925482681  0.3506285387352648  1.0000
  H   H30       1.0  0.002268641984152  0.6504858242843596  0.37086534096379603  1.0000
  H   H31       1.0  0.5010435436771488  0.37022913103412947  0.649363271727033  1.0000
  H   H32       1.0  0.9977285309726441  0.3495186992980308  0.6291397826932368  1.0000
  H   H33       1.0  0.5919810940117145  0.4895207352140076  0.6500582096805799  1.0000
  H   H34       1.0  0.9068895226624177  0.348937292989099  0.5103288612035115  1.0000
  H   H35       1.0  0.4080159256372511  0.5104800178994537  0.34993709431315523  1.0000
  H   H36       1.0  0.0931059702079935  0.6510649683119354  0.48967776071568636  1.0000
  H   H37       1.0  0.6948680599733379  0.6400272975676415  0.6481528271450471  1.0000
  H   H38       1.0  0.8047352816809409  0.3507493803566319  0.36107775672214604  1.0000
  H   H39       1.0  0.3051297016137725  0.3599749637333929  0.35184773985126583  1.0000
  H   H40       1.0  0.1952740196997668  0.6492521268506195  0.6389234879487589  1.0000
  H   H41       1.0  0.6034192255360794  0.7736044544277121  0.3622103925764009  1.0000
  H   H42       1.0  0.8976226287711028  0.6388788127317113  0.22843237875292033  1.0000
  H   H43       1.0  0.39658095807556043  0.2264015773422585  0.6377853438490889  1.0000
  H   H44       1.0  0.1023865193017741  0.3611189240066111  0.7715697903937553  1.0000
  C   C1        1.0  0.5291482377830548  0.4825612036638915  0.8518497084992801  1.0000
  C   C2        1.0  0.9703199408203392  0.1471651727882914  0.5169354576724245  1.0000
  C   C3        1.0  0.4708499591265323  0.5174350248868578  0.14816011927897685  1.0000
  C   C4        1.0  0.02967821318697622  0.852835580325177  0.48306183279144216  1.0000
  C   C5        1.0  0.6651839742527558  0.5041064172209815  0.8663235245126016  1.0000
  C   C6        1.0  0.8335188354687448  0.1337407952116081  0.4957766901420867  1.0000
  C   C7        1.0  0.3348138302366266  0.4958913195173338  0.13368313331466908  1.0000
  C   C8        1.0  0.1664739962647559  0.8662629742769994  0.5042220726099201  1.0000
  C   C9        1.0  0.23550306147250671  0.0823802215474032  0.6905409729262502  1.0000
  C   C10       1.0  0.26234665532545154  0.3090479939960815  0.9167308953593222  1.0000
  C   C11       1.0  0.7644924313979048  0.9176220397536311  0.3094599187854428  1.0000
  C   C12       1.0  0.7376505605336163  0.6909520050235968  0.0832710075414695  1.0000
  C   C13       1.0  0.5501992201933915  0.6788834880739713  0.8443592671829093  1.0000
  C   C14       1.0  0.9500378438304438  0.1551163376668683  0.32187320314251616  1.0000
  C   C15       1.0  0.449802925519286  0.321115002758134  0.15564014230656648  1.0000
  C   C16       1.0  0.04995921872078672  0.844879890883881  0.6781260428543588  1.0000
  C   C17       1.0  0.5330482434656643  0.9321089354746519  0.6764992034819315  1.0000
  C   C18       1.0  0.9663128542630804  0.3232196785145973  0.06913754535072059  1.0000
  C   C19       1.0  0.4669542517649461  0.0678925717325995  0.3234994339553907  1.0000
  C   C20       1.0  0.03368697983061963  0.6767833368802272  0.9308625445066098  1.0000
  C   C21       1.0  0.4095272481867839  0.928475711614162  0.7689649267610575  1.0000
  C   C22       1.0  0.08988402509952921  0.2306976496405539  0.0723234221905074  1.0000
  C   C23       1.0  0.5904745051056821  0.0715242874055164  0.23103274532930834  1.0000
  C   C24       1.0  0.9101164405267568  0.7692985789101954  0.9276782018370682  1.0000
  C   C25       1.0  0.429350478873715  0.8483087553283895  0.8500771017776643  1.0000
  C   C26       1.0  0.0706475839309064  0.1495466009641788  0.1528366698510126  1.0000
  C   C27       1.0  0.5706499438502989  0.151691997785079  0.1499205802467642  1.0000
  C   C28       1.0  0.9293526854852774  0.8504503816803606  0.847164801752939  1.0000
  C   C29       1.0  0.32483181759076263  0.8414118135625017  0.94029917089712  1.0000
  C   C30       1.0  0.17517004715571724  0.0592604601653406  0.1597010821767171  1.0000
  C   C31       1.0  0.6751657906885101  0.1585866772696036  0.05969873919527655  1.0000
  C   C32       1.0  0.8248328833973633  0.9407350142916187  0.8402982207312918  1.0000
  C   C33       1.0  0.277050097887809  0.0029816868294715994  0.7788476535940063  1.0000
  C   C34       1.0  0.2217616327185468  0.220694595570528  0.9972390042397521  1.0000
  C   C35       1.0  0.7229525935529041  0.9970190662839968  0.22115256881880901  1.0000
  C   C36       1.0  0.7782359755607259  0.7793038952615774  0.0027617709564040417  1.0000
  C   C37       1.0  0.17390534309982542  0.9977807010077626  0.8698177298387789  1.0000
  C   C38       1.0  0.3250752164700899  0.1297139343948785  0.002498713984422823  1.0000
  C   C39       1.0  0.826093945265839  0.0022200521057059  0.13018083081927762  1.0000
  C   C40       1.0  0.6749259910943408  0.8702838023434438  0.9974988614585385  1.0000
  C   C41       1.0  0.41740499512263807  0.6529630223710612  0.8287081955940606  1.0000
  C   C42       1.0  0.08349276538393015  0.1699946080627726  0.34732767066243747  1.0000
  C   C43       1.0  0.5825962124417856  0.3470347143672612  0.17129511005641262  1.0000
  C   C44       1.0  0.9165067620941088  0.8300008663941867  0.652670686766747  1.0000
  C   C45       1.0  0.5311886745813794  0.54453941783364  0.5010822636451522  1.0000
  C   C46       1.0  0.968985101284908  0.4989506780067501  0.4557290698251819  1.0000
  C   C47       1.0  0.4688156969457253  0.4554635975611845  0.4989078651942407  1.0000
  C   C48       1.0  0.031011525943846187  0.5010515832942843  0.5442716595288175  1.0000
  C   C49       1.0  0.19698759042886146  0.9173739428980666  0.9499299239616831  1.0000
  C   C50       1.0  0.302670382209115  0.04965330533291729  0.08339997601721899  1.0000
  C   C51       1.0  0.8030154934320566  0.0826253020278216  0.05006917074648949  1.0000
  C   C52       1.0  0.6973313710833509  0.9503466936867611  0.9165991286250232  1.0000
  C   C53       1.0  0.6770188055408255  0.6035329287987707  0.8625718557454859  1.0000
  C   C54       1.0  0.8220982856591377  0.1376507714915221  0.39700969786117213  1.0000
  C   C55       1.0  0.3229801333069062  0.3964648079395516  0.1374332071722222  1.0000
  C   C56       1.0  0.1778979920516832  0.8623484734343663  0.6029889384412357  1.0000
  C   C57       1.0  0.5368661198707658  0.6275259307849126  0.4200031533607812  1.0000
  C   C58       1.0  0.9639562519780539  0.5805647402676755  0.3732417616399245  1.0000
  C   C59       1.0  0.46313731350809206  0.3724763305161218  0.5799908716396162  1.0000
  C   C60       1.0  0.036046831882863714  0.41943450465821286  0.6267644958276293  1.0000
  C   C61       1.0  0.5899913104165933  0.5504258739264145  0.5843907432201904  1.0000
  C   C62       1.0  0.9096225675295457  0.4150939408265444  0.44987180055274933  1.0000
  C   C63       1.0  0.41001020376349834  0.449579403749766  0.41560426699528824  1.0000
  C   C64       1.0  0.09037820471240822  0.5849098286620631  0.5501322721789067  1.0000
  C   C65       1.0  0.6488024133998351  0.6348150013194669  0.5840710426892385  1.0000
  C   C66       1.0  0.8511136464176374  0.4153375131193897  0.3661426832739139  1.0000
  C   C67       1.0  0.3511926870503643  0.3651887681691406  0.4159238139677086  1.0000
  C   C68       1.0  0.14889244809812407  0.5846632399940717  0.633862782273347  1.0000
  C   C69       1.0  0.5972000553181402  0.7096067770993102  0.42501834704901853  1.0000
  C   C70       1.0  0.9036476517666047  0.5755266396840497  0.2918446042640284  1.0000
  C   C71       1.0  0.40280377048092214  0.2903939760141512  0.5749774153504817  1.0000
  C   C72       1.0  0.09635805032895214  0.4244756216169918  0.7081569750563119  1.0000
  N   N1        1.0  0.4078035551798039  0.5562052487015876  0.8332584168720201  1.0000
  N   N2        1.0  0.09267716578279561  0.1651224081120404  0.44353139202043224  1.0000
  N   N3        1.0  0.5921980448048315  0.4437909798491617  0.1667473424534975  1.0000
  N   N4        1.0  0.9073161012731816  0.8348753286262749  0.5564687524781958  1.0000
  N   N5        1.0  0.6527940516245181  0.7141486839718141  0.5058001517077599  1.0000
  N   N6        1.0  0.8476985783603723  0.4941237236831739  0.2873052010770039  1.0000
  N   N7        1.0  0.3472057824691817  0.2858543314230033  0.4941970730458252  1.0000
  N   N8        1.0  0.15230884672384087  0.5058762753365045  0.7126930917768206  1.0000
  O   O1        1.0  0.3120471132479637  0.0630588305649482  0.6042517690183756  1.0000
  O   O2        1.0  0.18667052385913507  0.3958871720995489  0.9356787810084626  1.0000
  O   O3        1.0  0.6879561239207846  0.9369441848298763  0.39574640121402643  1.0000
  O   O4        1.0  0.8133289607166322  0.6041128269201295  0.06432494600477405  1.0000
  O   O5        1.0  0.6223285180538484  0.9935562676191196  0.6558060491744229  1.0000
  O   O6        1.0  0.8768106628290795  0.3433969659440592  0.0087644424255231  1.0000
  O   O7        1.0  0.3776696359534668  0.0064444854943417  0.3441926738413201  1.0000
  O   O8        1.0  0.1231850691537062  0.6566000167004802  0.9912355297813563  1.0000
  O   O9        1.0  0.5639205965526912  0.7761253899539894  0.8407860173081046  1.0000
  O   O10       1.0  0.9363810371950195  0.15875333199628727  0.22533316917837704  1.0000
  O   O11       1.0  0.4360790842331853  0.2238738549718988  0.15921284819718548  1.0000
  O   O12       1.0  0.06361622156631346  0.8412421424606719  0.7746662292421147  1.0000
  O   O13       1.0  0.5407787856023206  0.8606804179799424  0.6281581982350773  1.0000
  O   O14       1.0  0.9590597428991362  0.3719522353349234  0.14000418092985706  1.0000
  O   O15       1.0  0.4592212447014816  0.1393218433210919  0.3718377463902485  1.0000
  O   O16       1.0  0.04094072272715011  0.6280439932158258  0.8599960105458351  1.0000
  O   O17       1.0  0.13252783444639252  0.1574163237138819  0.7001803956868144  1.0000
  O   O18       1.0  0.36380881662131515  0.2990140220808328  0.8410541117639809  1.0000
  O   O19       1.0  0.8674737226359711  0.8425844293995864  0.2998178402558692  1.0000
  O   O20       1.0  0.6361812006674512  0.7009874851264186  0.15894559533192876  1.0000
