data_image0
_chemical_formula_structural       Mn4H32C4S4N16O24
_chemical_formula_sum              "Mn4 H32 C4 S4 N16 O24"
_cell_length_a       7.10684233318318
_cell_length_b       7.843656993076305
_cell_length_c       14.038929094814772
_cell_angle_alpha    90.00007445330948
_cell_angle_beta     90.90730261197854
_cell_angle_gamma    89.9994877557419

_space_group_name_H-M_alt    "P 1"
_space_group_IT_number       1

loop_
  _space_group_symop_operation_xyz
  'x, y, z'

loop_
  _atom_site_type_symbol
  _atom_site_label
  _atom_site_symmetry_multiplicity
  _atom_site_fract_x
  _atom_site_fract_y
  _atom_site_fract_z
  _atom_site_occupancy
  Mn  Mn1       1.0  0.5523412422307031  0.5916561792228092  0.6203671902691212  1.0000
  Mn  Mn2       1.0  0.9476528804306243  0.09165085032354629  0.8796304243773675  1.0000
  Mn  Mn3       1.0  0.44766158442998716  0.40834258587887007  0.37963001468360597  1.0000
  Mn  Mn4       1.0  0.052344367158333696  0.9083491897246246  0.12037315779221558  1.0000
  H   H1        1.0  0.3520227515173175  0.8605085392229836  0.5380109219911375  1.0000
  H   H2        1.0  0.14797304323089117  0.36051099187246644  0.961992171609758  1.0000
  H   H3        1.0  0.6479744683015696  0.1394927757363931  0.4619890984587797  1.0000
  H   H4        1.0  0.8520228026629867  0.6394864983513385  0.0380121144331653  1.0000
  H   H5        1.0  0.46143564889491273  0.9372211417060754  0.6293174058935875  1.0000
  H   H6        1.0  0.03856644781863851  0.43721789777397646  0.8706864884470278  1.0000
  H   H7        1.0  0.5385658093566548  0.0627814481539843  0.37068477699845187  1.0000
  H   H8        1.0  0.9614307831365636  0.5627770426095465  0.1293149566889937  1.0000
  H   H9        1.0  0.8382941440046919  0.8652174279659446  0.6073321242522383  1.0000
  H   H10       1.0  0.6617044152178692  0.3652183202044695  0.8926706833629794  1.0000
  H   H11       1.0  0.16170307026141728  0.13478388699257948  0.3926671838536748  1.0000
  H   H12       1.0  0.33829704306444336  0.6347778950780096  0.10733149952714169  1.0000
  H   H13       1.0  0.940898642716583  0.6788766685429052  0.6408384150337056  1.0000
  H   H14       1.0  0.5590988937408525  0.17887832591991776  0.8591635514440624  1.0000
  H   H15       1.0  0.05909996215747531  0.3211233714917156  0.3591587645096936  1.0000
  H   H16       1.0  0.4409025589579373  0.821124263939275  0.1408379191039657  1.0000
  H   H17       1.0  0.0261577029593667  0.7810634497272915  0.4766229579774972  1.0000
  H   H18       1.0  0.4738424455702201  0.2810608452242462  0.023380808088823802  1.0000
  H   H19       1.0  0.9738380984692013  0.21894296489823967  0.5233756293160283  1.0000
  H   H20       1.0  0.5261688690859998  0.7189353700184496  0.9766221464346287  1.0000
  H   H21       1.0  0.9427918495053191  0.6822994065476279  0.31650844435731057  1.0000
  H   H22       1.0  0.5572106320958952  0.18228661964871407  0.1834921157636131  1.0000
  H   H23       1.0  0.05720676084159491  0.31771720738955617  0.6834894475350737  1.0000
  H   H24       1.0  0.4427992475300968  0.8177108705109999  0.8165072685702768  1.0000
  H   H25       1.0  0.6331836521693859  0.6175297924369686  0.2471271946135616  1.0000
  H   H26       1.0  0.8668208613763682  0.1175248173584649  0.2528733351006665  1.0000
  H   H27       1.0  0.3668149471149959  0.38247789708988467  0.7528692725881215  1.0000
  H   H28       1.0  0.1331848020096302  0.8824752226505623  0.7471267361682905  1.0000
  H   H29       1.0  0.7722860262593086  0.4483453767252712  0.2455560348920756  1.0000
  H   H30       1.0  0.7277152964711532  0.948340664013251  0.2544446933992859  1.0000
  H   H31       1.0  0.22771680592957472  0.5516584880393294  0.7544418824061907  1.0000
  H   H32       1.0  0.2722861673516448  0.051658101101118285  0.7455582018356068  1.0000
  C   C1        1.0  0.7914716598266124  0.6316133689705623  0.43990584406995475  1.0000
  C   C2        1.0  0.708524263220653  0.1316066744308273  0.0600932185901968  1.0000
  C   C3        1.0  0.20852413606761644  0.3683892209075594  0.5600920308784154  1.0000
  C   C4        1.0  0.29146733312882833  0.8683908158060943  0.939907480322965  1.0000
  S   S1        1.0  0.7230414793312718  0.18602585123152685  0.6589994663740839  1.0000
  S   S2        1.0  0.7769644095147681  0.6860285956171095  0.8409997058387972  1.0000
  S   S3        1.0  0.27696136952825867  0.8139754637046296  0.341000587955449  1.0000
  S   S4        1.0  0.22303983552394874  0.31396761964945347  0.1589989322710892  1.0000
  N   N1        1.0  0.8488148007859806  0.7365605437575197  0.5941350288605208  1.0000
  N   N2        1.0  0.651183586550559  0.23656283063068873  0.9058669807129645  1.0000
  N   N3        1.0  0.1511796045187381  0.26343949629796265  0.4058649746492121  1.0000
  N   N4        1.0  0.3488206806869911  0.7634359344703442  0.0941345067737274  1.0000
  N   N5        1.0  0.9094742286932914  0.7157204070035306  0.4998262013952512  1.0000
  N   N6        1.0  0.5905279416185466  0.21571581426024974  0.0001758034776103002  1.0000
  N   N7        1.0  0.090521572741423  0.28428473270648874  0.5001723858978977  1.0000
  N   N8        1.0  0.4094791234809776  0.7842829508265865  0.9998235639168555  1.0000
  N   N9        1.0  0.8362754366480444  0.6133766771323863  0.3471213810356275  1.0000
  N   N10       1.0  0.6637249118451577  0.11336930826723088  0.15288125780722336  1.0000
  N   N11       1.0  0.16372176648174994  0.38663101240199177  0.6528765023841743  1.0000
  N   N12       1.0  0.3362793498457605  0.8866281819174305  0.8471195173350663  1.0000
  N   N13       1.0  0.7015136306713927  0.5298140998361376  0.2892442096266166  1.0000
  N   N14       1.0  0.7984847037083823  0.029812135029750695  0.21075764977435088  1.0000
  N   N15       1.0  0.29847933960309797  0.470187215136363  0.7107522236935466  1.0000
  N   N16       1.0  0.20151674900885297  0.9701866300828994  0.7892438207725334  1.0000
  O   O1        1.0  0.6412962652936615  0.5664046488019563  0.47042055458512516  1.0000
  O   O2        1.0  0.8587003255745175  0.06639918684246028  0.029583455340940597  1.0000
  O   O3        1.0  0.3587023617976826  0.43359411632058437  0.5295794743339286  1.0000
  O   O4        1.0  0.14128704903137657  0.9335906539187845  0.9704172181602218  1.0000
  O   O5        1.0  0.4019827338976256  0.8325533408481218  0.6030292987101546  1.0000
  O   O6        1.0  0.098014743335348  0.3325483957237906  0.8969744989218995  1.0000
  O   O7        1.0  0.598018713248379  0.16744924901021108  0.39697145949386237  1.0000
  O   O8        1.0  0.9019797008573037  0.6674478195911674  0.1030304909947404  1.0000
  O   O9        1.0  0.718436325550357  0.37241850053371905  0.6443879636104055  1.0000
  O   O10       1.0  0.7815621363568113  0.8724390919459849  0.8556112866132253  1.0000
  O   O11       1.0  0.28156229046001613  0.6275751649250338  0.3556106406190978  1.0000
  O   O12       1.0  0.2184406347821906  0.12755839823157797  0.1443787948990263  1.0000
  O   O13       1.0  0.8847929725949228  0.1488933508414192  0.7256095623942471  1.0000
  O   O14       1.0  0.6151949300976014  0.6488857930457995  0.7743830663213699  1.0000
  O   O15       1.0  0.1151972108985788  0.851113063809059  0.2743904157076784  1.0000
  O   O16       1.0  0.3848037248130041  0.3511014978414054  0.2256205243142873  1.0000
  O   O17       1.0  0.5423481097229583  0.1211704175206947  0.6965348071898633  1.0000
  O   O18       1.0  0.9576752862927195  0.6211626504504577  0.8034637153842326  1.0000
  O   O19       1.0  0.45766319377235476  0.8788372719599237  0.3034667226490129  1.0000
  O   O20       1.0  0.042326138691336695  0.37882974008031306  0.1965341934406837  1.0000
  O   O21       1.0  0.7646144809327211  0.09874484805109768  0.5661905493117061  1.0000
  O   O22       1.0  0.7353839006164264  0.598744341690839  0.9338206295371947  1.0000
  O   O23       1.0  0.2353912324221881  0.9012564668811861  0.4338159330537152  1.0000
  O   O24       1.0  0.2646231977690618  0.4012607979787504  0.0661830119232363  1.0000
