data_image0
_chemical_formula_structural       Zn2H32C40N2O12
_chemical_formula_sum              "Zn2 H32 C40 N2 O12"
_cell_length_a       14.834761295749
_cell_length_b       16.012854872697815
_cell_length_c       16.161498996877686
_cell_angle_alpha    90.34037492763247
_cell_angle_beta     89.75672986095188
_cell_angle_gamma    90.22349716773377

_space_group_name_H-M_alt    "P 1"
_space_group_IT_number       1

loop_
  _space_group_symop_operation_xyz
  'x, y, z'

loop_
  _atom_site_type_symbol
  _atom_site_label
  _atom_site_symmetry_multiplicity
  _atom_site_fract_x
  _atom_site_fract_y
  _atom_site_fract_z
  _atom_site_occupancy
  Zn  Zn1       1.0  0.5939389485861356  0.5002139549262025  0.4998372640454536  1.0000
  Zn  Zn2       1.0  0.4048698977501388  0.4987525758564503  0.499340380738147  1.0000
  H   H1        1.0  0.91512423288534  0.38333523863826713  0.4316816452981201  1.0000
  H   H2        1.0  0.9151836214055606  0.6168898961527346  0.5675005652919439  1.0000
  H   H3        1.0  0.5888139085248056  0.08970539087360407  0.6804499569820733  1.0000
  H   H4        1.0  0.6985451470193241  0.07363012430578658  0.640077737137375  1.0000
  H   H5        1.0  0.6357014825092622  0.16225687127098345  0.6099536794997961  1.0000
  H   H6        1.0  0.45527952441409525  0.06266801849091048  0.6917469749540573  1.0000
  H   H7        1.0  0.41605040260139964  0.1555599336939864  0.6449190010973923  1.0000
  H   H8        1.0  0.3392387911032698  0.0748203282594133  0.671283754330389  1.0000
  H   H9        1.0  0.552598134246459  0.9565037733058758  0.6920942284176944  1.0000
  H   H10       1.0  0.5768415324702687  0.8545090309663621  0.6542587799820724  1.0000
  H   H11       1.0  0.6648396271913626  0.9276107097369746  0.6715501961985597  1.0000
  H   H12       1.0  0.08368325967383329  0.38355748725591354  0.43169941712177023  1.0000
  H   H13       1.0  0.4322819687045651  0.9252886246375736  0.6890559294224091  1.0000
  H   H14       1.0  0.3184811853078814  0.9268096052065785  0.6581466533518424  1.0000
  H   H15       1.0  0.38789917733750195  0.8413929854633082  0.6300834292197308  1.0000
  H   H16       1.0  0.2654254710089532  0.9461327480502177  0.5325732859731785  1.0000
  H   H17       1.0  0.32773937312710183  0.9628810140222511  0.44081049863223143  1.0000
  H   H18       1.0  0.32528966761033473  0.8615703238100705  0.4870369869835968  1.0000
  H   H19       1.0  0.7339673552350876  0.9368066054076819  0.546583938018614  1.0000
  H   H20       1.0  0.6738397336744697  0.8438284787700921  0.5207592954144361  1.0000
  H   H21       1.0  0.6783975731487004  0.9291686021641752  0.4504271370440804  1.0000
  H   H22       1.0  0.573476785477837  0.0588403803388786  0.3229462917404292  1.0000
  H   H23       1.0  0.3614116630564864  0.07496818275520671  0.5238573801341105  1.0000
  H   H24       1.0  0.4190300054737932  0.1325348189761542  0.3831430094563474  1.0000
  H   H25       1.0  0.6490778139206699  0.48289185423443837  0.8556168149981646  1.0000
  H   H26       1.0  0.34992357001900853  0.484923300015005  0.8581211418571258  1.0000
  H   H27       1.0  0.6437518509296466  0.0596209442815692  0.5000845256653508  1.0000
  H   H28       1.0  0.5633674572359268  0.9286888327972206  0.3930350030586567  1.0000
  H   H29       1.0  0.44489912629509115  0.9252098233808326  0.38901697223982273  1.0000
  H   H30       1.0  0.6469250168201768  0.48478338609263  0.07603937277525571  1.0000
  H   H31       1.0  0.3543701125459293  0.48730975892534895  0.07848603133442111  1.0000
  H   H32       1.0  0.083723853993078  0.6171182778072721  0.5674899292492557  1.0000
  C   C1        1.0  0.49995092390229706  0.4950365714741238  0.6615085761936967  1.0000
  C   C2        1.0  0.41740990636288444  0.4853051110259585  0.9582832022323162  1.0000
  C   C3        1.0  0.5826005645775182  0.48406645898128187  0.9568856835341394  1.0000
  C   C4        1.0  0.49976527918104097  0.4849004294689223  0.9132707000042758  1.0000
  C   C5        1.0  0.5012384125488297  0.48962270052481216  0.17398654911276884  1.0000
  C   C6        1.0  0.49835932855808807  0.6615117634307737  0.5043833046929579  1.0000
  C   C7        1.0  0.49936111087304613  0.48686740371757514  0.8263846014717089  1.0000
  C   C8        1.0  0.4993320555642598  0.4900371499555972  0.750731902564411  1.0000
  C   C9        1.0  0.5016453805196548  0.49345261067266216  0.24929536660687998  1.0000
  C   C10       1.0  0.9526808131182349  0.5663815448492356  0.5381147257385025  1.0000
  C   C11       1.0  0.0462115160199019  0.5665021028622873  0.5381214141085098  1.0000
  C   C12       1.0  0.49979547204253555  0.046599532392498595  0.4219477529872933  1.0000
  C   C13       1.0  0.9061501182516095  0.5000684881680756  0.4996585097691479  1.0000
  C   C14       1.0  0.0926839142177727  0.5002942751509848  0.4996675054347934  1.0000
  C   C15       1.0  0.9526269341014315  0.4339222092694754  0.46110639723761443  1.0000
  C   C16       1.0  0.0461576355064111  0.43404151647455075  0.4611124630461418  1.0000
  C   C17       1.0  0.8103495846217967  0.49993201972079493  0.4998916976072253  1.0000
  C   C18       1.0  0.1884779500763472  0.5000972368681147  0.49986211497341054  1.0000
  C   C19       1.0  0.501506272808335  0.49764256983936406  0.3386261646925918  1.0000
  C   C20       1.0  0.4975124917414746  0.33715269999825637  0.5005770693140974  1.0000
  C   C21       1.0  0.5895422875401833  0.9498921516791796  0.5590654813346774  1.0000
  C   C22       1.0  0.4089838652210035  0.9517982042240474  0.5552297464314649  1.0000
  C   C23       1.0  0.5019385146057617  0.9505486898473734  0.42388107885782494  1.0000
  C   C24       1.0  0.41743731263500905  0.049729520469817594  0.5602525745057322  1.0000
  C   C25       1.0  0.59461353261554  0.047445866895081706  0.5496091876464462  1.0000
  C   C26       1.0  0.49895052968337683  0.24696216059234638  0.5037228287000773  1.0000
  C   C27       1.0  0.4997717636097648  0.918074814478878  0.5143578442310357  1.0000
  C   C28       1.0  0.5041817276076515  0.08084419749386032  0.5135064815206435  1.0000
  C   C29       1.0  0.6305528751042216  0.09555957522313459  0.624734030195981  1.0000
  C   C30       1.0  0.407144339895524  0.0874879347732076  0.6470172715717978  1.0000
  C   C31       1.0  0.595236853781856  0.9208291984611847  0.6495058598713259  1.0000
  C   C32       1.0  0.3868821715634709  0.9095461276751352  0.6383873697598405  1.0000
  C   C33       1.0  0.3277398616681637  0.9291428458826019  0.4995418666466805  1.0000
  C   C34       1.0  0.5031463174080315  0.1713735375162457  0.5091704828644197  1.0000
  C   C35       1.0  0.6732286081627238  0.9122528904458774  0.5159635413459898  1.0000
  C   C36       1.0  0.4986412285227004  0.8274626294453781  0.5111025213737151  1.0000
  C   C37       1.0  0.49824294660763974  0.7515929399555362  0.5076128175348914  1.0000
  C   C38       1.0  0.5832794302697196  0.4848574195540465  0.042863625753206194  1.0000
  C   C39       1.0  0.4176502535714306  0.48623214497268197  0.04426240687016761  1.0000
  C   C40       1.0  0.5007122532377508  0.4865381412587837  0.0863273367920812  1.0000
  N   N1        1.0  0.2666435402329199  0.49959510731757467  0.5001196013565732  1.0000
  N   N2        1.0  0.732174383628454  0.49988152821680387  0.5003094700379479  1.0000
  O   O1        1.0  0.5772451169575917  0.5014903272549914  0.6275338280458059  1.0000
  O   O2        1.0  0.41992133486741784  0.07140284481454268  0.3809152272095774  1.0000
  O   O3        1.0  0.6622841804702446  0.482934162369098  0.9150441794081489  1.0000
  O   O4        1.0  0.33728643308174355  0.48543601694996846  0.9177577189971372  1.0000
  O   O5        1.0  0.4232429443306032  0.4925297094986618  0.626495828124341  1.0000
  O   O6        1.0  0.5753401213215527  0.6264699759431734  0.5000086748473863  1.0000
  O   O7        1.0  0.42165852177225827  0.6253690803634767  0.5064766158868467  1.0000
  O   O8        1.0  0.5782687138686029  0.4961917483424614  0.37375237299117003  1.0000
  O   O9        1.0  0.4244951398765124  0.502227892955133  0.373653049872992  1.0000
  O   O10       1.0  0.5738988067311439  0.3736818944124777  0.5042523712169001  1.0000
  O   O11       1.0  0.42043051378236374  0.3715123495715673  0.4950100838493725  1.0000
  O   O12       1.0  0.5760481214174575  0.08059285082507019  0.37934236670066923  1.0000
