data_image0
_chemical_formula_structural       La2H18C9O24
_chemical_formula_sum              "La2 H18 C9 O24"
_cell_length_a       9.002906099488479
_cell_length_b       9.002895014414447
_cell_length_c       9.002870674299706
_cell_angle_alpha    65.59217552479097
_cell_angle_beta     65.59253734947896
_cell_angle_gamma    65.59243163154487

_space_group_name_H-M_alt    "P 1"
_space_group_IT_number       1

loop_
  _space_group_symop_operation_xyz
  'x, y, z'

loop_
  _atom_site_type_symbol
  _atom_site_label
  _atom_site_symmetry_multiplicity
  _atom_site_fract_x
  _atom_site_fract_y
  _atom_site_fract_z
  _atom_site_occupancy
  La  La1       1.0  0.7724163599449694  0.7724125179017632  0.7724132652895503  1.0000
  La  La2       1.0  0.2275874040485988  0.22758611519753907  0.22758859554229358  1.0000
  H   H1        1.0  0.6723504051641386  0.45484828821896883  0.8144531414693857  1.0000
  H   H2        1.0  0.8144508905128446  0.6723499537487639  0.45485221609484233  1.0000
  H   H3        1.0  0.4548500425097187  0.8144506209024839  0.6723517668626398  1.0000
  H   H4        1.0  0.18555454809340688  0.5451524581347585  0.32765029238925075  1.0000
  H   H5        1.0  0.5451477236243392  0.32765109764916633  0.18555354233303942  1.0000
  H   H6        1.0  0.32764897504112855  0.18555241220192195  0.545148972807027  1.0000
  H   H7        1.0  0.7890874462380211  0.7143074903369921  0.14679670015400606  1.0000
  H   H8        1.0  0.14679729673144945  0.7890871063116623  0.7143098896889195  1.0000
  H   H9        1.0  0.714305543023471  0.1467966983771944  0.789084339224267  1.0000
  H   H10       1.0  0.8532023502029347  0.2856944580256241  0.21091706173768185  1.0000
  H   H11       1.0  0.2856967994363586  0.21091611952620326  0.8532041905481975  1.0000
  H   H12       1.0  0.2109131531007122  0.8532029620607916  0.28569885821807617  1.0000
  H   H13       1.0  0.9696500184573154  0.6272495976711739  0.030188464727430586  1.0000
  H   H14       1.0  0.030186440816315503  0.9696505343291406  0.6272508523631188  1.0000
  H   H15       1.0  0.6272495885073043  0.0301850037974987  0.9696498623425  1.0000
  H   H16       1.0  0.9698175957157816  0.372748196479357  0.030351059066987488  1.0000
  H   H17       1.0  0.3727513458710803  0.030351309250335103  0.9698165612091357  1.0000
  H   H18       1.0  0.0303519100701379  0.9698138166487098  0.3727539902764788  1.0000
  C   C1        1.0  0.4615782792418769  0.5384224726306356  3.859867449123146e-07  1.0000
  C   C2        1.0  3.3669358785008767e-06  0.461575925370056  0.5384203566071546  1.0000
  C   C3        1.0  0.5384217349599538  1.5030376374988934e-06  0.4615785277217552  1.0000
  C   C4        1.0  0.40902583641474877  0.6808349232253833  0.08514733855800231  1.0000
  C   C5        1.0  0.08514991632467435  0.4090248935297892  0.6808343253947411  1.0000
  C   C6        1.0  0.6808301358211891  0.08515174285835062  0.40902894623008734  1.0000
  C   C7        1.0  0.9148554812624143  0.31916472505717053  0.5909723734495173  1.0000
  C   C8        1.0  0.3191690988108108  0.5909756634859347  0.9148480691125868  1.0000
  C   C9        1.0  0.5909701050452226  0.9148553896810016  0.3191664540750097  1.0000
  O   O1        1.0  0.6230285599827141  0.5400253812416835  0.8824646756583617  1.0000
  O   O2        1.0  0.8824630693618902  0.623025908877885  0.5400265125899252  1.0000
  O   O3        1.0  0.5400282022350565  0.8824583187128424  0.6230284471757841  1.0000
  O   O4        1.0  0.11754232591052013  0.4599762610685049  0.37697028159687557  1.0000
  O   O5        1.0  0.45997336038328024  0.376972521717896  0.11753847413254453  1.0000
  O   O6        1.0  0.3769696675286625  0.1175374842335941  0.4599764145017389  1.0000
  O   O7        1.0  0.4822297765127315  0.7971813381274091  0.0016046244058571376  1.0000
  O   O8        1.0  0.0016087230263651052  0.4822310411279886  0.7971793570224647  1.0000
  O   O9        1.0  0.7971788384088826  0.0016088896277252998  0.4822353882524695  1.0000
  O   O10       1.0  0.9983965389013391  0.2028187914923976  0.5177649350722079  1.0000
  O   O11       1.0  0.202828164687503  0.5177663157669984  0.9983828651066345  1.0000
  O   O12       1.0  0.5177591554184744  0.9983945477146534  0.20282275405782013  1.0000
  O   O13       1.0  0.2928842193087533  0.6752814399618146  0.22609058817728564  1.0000
  O   O14       1.0  0.22609247018327489  0.2928848916277714  0.6752746380345369  1.0000
  O   O15       1.0  0.6752716869906621  0.22609348998032172  0.2928919066354965  1.0000
  O   O16       1.0  0.7739163402322901  0.3247199593062859  0.7071137285289097  1.0000
  O   O17       1.0  0.32472411468081935  0.7071237844832439  0.7739056245111086  1.0000
  O   O18       1.0  0.7071120408196164  0.7739152781837008  0.3247216538283552  1.0000
  O   O19       1.0  0.8476240434289791  0.682132543893431  0.038317076666338296  1.0000
  O   O20       1.0  0.03831567693683973  0.8476224754699473  0.6821385794703118  1.0000
  O   O21       1.0  0.6821327719300783  0.038316450446622206  0.8476208976894025  1.0000
  O   O22       1.0  0.9616858225352375  0.317863560292352  0.15238088714595208  1.0000
  O   O23       1.0  0.3178639657634434  0.1523779483173016  0.9616890604225147  1.0000
  O   O24       1.0  0.15237844936376627  0.9616816576391188  0.31787400773023916  1.0000
