data_image0
_chemical_formula_structural       Ca2H20C20N8O16
_chemical_formula_sum              "Ca2 H20 C20 N8 O16"
_cell_length_a       3.748024627484651
_cell_length_b       10.125162200338124
_cell_length_c       18.39573401974461
_cell_angle_alpha    78.9106130571502
_cell_angle_beta     84.19987121383491
_cell_angle_gamma    79.32493931467818

_space_group_name_H-M_alt    "P 1"
_space_group_IT_number       1

loop_
  _space_group_symop_operation_xyz
  'x, y, z'

loop_
  _atom_site_type_symbol
  _atom_site_label
  _atom_site_symmetry_multiplicity
  _atom_site_fract_x
  _atom_site_fract_y
  _atom_site_fract_z
  _atom_site_occupancy
  Ca  Ca1       1.0  0.9319190760063731  0.7498648029288049  0.24995560564313032  1.0000
  Ca  Ca2       1.0  0.06808985484890655  0.2501355617354477  0.7500437760721541  1.0000
  H   H1        1.0  0.6757773193076275  0.12245357356731289  0.44015925372752934  1.0000
  H   H2        1.0  0.23981782732200665  0.37730447723880195  0.06001747495813701  1.0000
  H   H3        1.0  0.32422402649942206  0.8775437401945038  0.5598413562455351  1.0000
  H   H4        1.0  0.7601749643366913  0.6226979191890151  0.939980828765727  1.0000
  H   H5        1.0  0.45511682280275756  0.15857210838520072  0.32499888711895863  1.0000
  H   H6        1.0  0.9371362602075948  0.340984398350308  0.17480285681659785  1.0000
  H   H7        1.0  0.5448808944762856  0.8414262333099178  0.6750021082439022  1.0000
  H   H8        1.0  0.06285869857795502  0.659019019890735  0.8251953994236987  1.0000
  H   H9        1.0  0.34265151222947304  0.39863434752146526  0.2496798566737724  1.0000
  H   H10       1.0  0.9880334879018735  0.1008928039027452  0.2499415450441448  1.0000
  H   H11       1.0  0.6573467468833981  0.601363986905021  0.7503205957855388  1.0000
  H   H12       1.0  0.01196726633006009  0.899111659106005  0.7500584024534123  1.0000
  H   H13       1.0  0.7178867670725776  0.5383861096607491  0.43170081476822036  1.0000
  H   H14       1.0  0.6870782696910638  0.961214618482906  0.06834952912970489  1.0000
  H   H15       1.0  0.2821144966843006  0.46161019013074867  0.5683004406070469  1.0000
  H   H16       1.0  0.312925489184877  0.03878780989086291  0.9316512212838083  1.0000
  H   H17       1.0  0.8057759459953219  0.29500118285127286  0.4999013309462443  1.0000
  H   H18       1.0  0.6019376363202581  0.20468836573971325  0.00036223962596439646  1.0000
  H   H19       1.0  0.19422323268487668  0.7049951090973111  0.5000993265103804  1.0000
  H   H20       1.0  0.39805352983694314  0.7953140524939996  0.9996376928085272  1.0000
  C   C1        1.0  0.5037502541810994  0.24806090193666114  0.34463018899847253  1.0000
  C   C2        1.0  0.0950191538669641  0.2515276073954739  0.15519769851638904  1.0000
  C   C3        1.0  0.49624792288160063  0.7519364185195059  0.6553709088630415  1.0000
  C   C4        1.0  0.9049748853512655  0.7484778533234646  0.8448003527265943  1.0000
  C   C5        1.0  0.44687777934277034  0.3781771735465825  0.30451141543665033  1.0000
  C   C6        1.0  0.1273007700304305  0.12135329857628112  0.19522355885187187  1.0000
  C   C7        1.0  0.5531187724269132  0.6218191178277195  0.6954891870048814  1.0000
  C   C8        1.0  0.8727001483018448  0.8786531923730936  0.8047750978412797  1.0000
  C   C9        1.0  0.5248152614748421  0.48947150142700485  0.3340269789046603  1.0000
  C   C10       1.0  0.3465866774145993  0.010066011359505501  0.16582106581235226  1.0000
  C   C11       1.0  0.4751880055170259  0.5105227413493267  0.665973395660828  1.0000
  C   C12       1.0  0.6534197083718494  0.9899364175885451  0.8341797396162537  1.0000
  C   C13       1.0  0.6549151408915108  0.45698898799903265  0.4067885717714363  1.0000
  C   C14       1.0  0.5175050238794227  0.042580198048966594  0.09319658123674664  1.0000
  C   C15       1.0  0.3450866646992024  0.5430073045238331  0.5932121407002813  1.0000
  C   C16       1.0  0.4824961080860034  0.9574222297505134  0.9068041141616735  1.0000
  C   C17       1.0  0.7036544971123748  0.32476320250889046  0.44465015575162453  1.0000
  C   C18       1.0  0.47308948930015754  0.17488493472256292  0.05544731355166022  1.0000
  C   C19       1.0  0.29635001743901757  0.6752341045585766  0.5553499663329833  1.0000
  C   C20       1.0  0.5269031382581983  0.8251154337646157  0.944552280976602  1.0000
  N   N1        1.0  0.815112305636276  0.8717879358054075  0.3905371469446451  1.0000
  N   N2        1.0  0.08003370701515411  0.6282587500578887  0.10920188490307231  1.0000
  N   N3        1.0  0.1848875789780991  0.12821037681517572  0.6094616768040312  1.0000
  N   N4        1.0  0.9199689684015978  0.3717426419653762  0.8907978271869159  1.0000
  N   N5        1.0  0.6316657896389158  0.22276429897138433  0.4131815871076372  1.0000
  N   N6        1.0  0.2674413181553064  0.2769128910016931  0.08683776409267102  1.0000
  N   N7        1.0  0.36833764124481394  0.7772330226333536  0.5868196207840699  1.0000
  N   N8        1.0  0.732553016746244  0.7230895205376698  0.9131616804533781  1.0000
  O   O1        1.0  0.4799870171288772  0.6129285156047573  0.2964004535828978  1.0000
  O   O2        1.0  0.3878322279985368  0.8866173039577422  0.2034594267495606  1.0000
  O   O3        1.0  0.520019960232687  0.3870667640963603  0.7036010143212157  1.0000
  O   O4        1.0  0.6121665229984143  0.1133892160661745  0.7965414015577752  1.0000
  O   O5        1.0  0.7035458261363132  0.9383235704650305  0.3285450567527094  1.0000
  O   O6        1.0  0.9756280086913163  0.5613578432212805  0.17128514489490954  1.0000
  O   O7        1.0  0.2964619392095995  0.0616747438783989  0.671453932041253  1.0000
  O   O8        1.0  0.024372581648755488  0.43864354095906316  0.8287139692764358  1.0000
  O   O9        1.0  0.9579793632758395  0.7469711661478939  0.39364321318213785  1.0000
  O   O10       1.0  0.0946838924350927  0.7536716771404458  0.10581318901998324  1.0000
  O   O11       1.0  0.042015103417156675  0.25302511738348693  0.6063567913407513  1.0000
  O   O12       1.0  0.9053281251143587  0.24632766685913773  0.8941863502090543  1.0000
  O   O13       1.0  0.7861199950854002  0.9275532783817013  0.4469595534999799  1.0000
  O   O14       1.0  0.16701719110311325  0.5721701210304745  0.052954638789252315  1.0000
  O   O15       1.0  0.2138788058613059  0.0724450487761459  0.5530403560557887  1.0000
  O   O16       1.0  0.8329780633657575  0.4278302480309862  0.9470450107541029  1.0000
