data_image0
_chemical_formula_structural       Cu2H8C12S2I2N4
_chemical_formula_sum              "Cu2 H8 C12 S2 I2 N4"
_cell_length_a       4.060155797269885
_cell_length_b       10.247419308119177
_cell_length_c       10.31443700281444
_cell_angle_alpha    69.77505688491355
_cell_angle_beta     84.70077498005851
_cell_angle_gamma    78.95868825882812

_space_group_name_H-M_alt    "P 1"
_space_group_IT_number       1

loop_
  _space_group_symop_operation_xyz
  'x, y, z'

loop_
  _atom_site_type_symbol
  _atom_site_label
  _atom_site_symmetry_multiplicity
  _atom_site_fract_x
  _atom_site_fract_y
  _atom_site_fract_z
  _atom_site_occupancy
  Cu  Cu1       1.0  0.27644364759385814  0.4770659479501092  0.9212304212384195  1.0000
  Cu  Cu2       1.0  0.7235554043738829  0.5229351886726337  0.07876699333671401  1.0000
  H   H1        1.0  0.6648951015856425  0.45235502061267874  0.6394384591186294  1.0000
  H   H2        1.0  0.3351057430289757  0.5476419090969247  0.3605651936763649  1.0000
  H   H3        1.0  0.48599987002213396  0.9666940888943287  0.6727293582455403  1.0000
  H   H4        1.0  0.5140024975834052  0.033304933157197104  0.3272686584544644  1.0000
  H   H5        1.0  0.8023307279443728  0.11259256644056849  0.47138047390726706  1.0000
  H   H6        1.0  0.1976700248088078  0.8874106865209799  0.5286190456063835  1.0000
  H   H7        1.0  0.8858214267322283  0.3490819203828153  0.45502876527907427  1.0000
  H   H8        1.0  0.11418018900791796  0.6509192246227472  0.5449724219007165  1.0000
  C   C1        1.0  0.4433787212745626  0.2679892104860216  0.758709672093694  1.0000
  C   C2        1.0  0.5566232481739702  0.7320108700429131  0.24128896221701976  1.0000
  C   C3        1.0  0.6236726898396796  0.3485549831207706  0.6449660521634044  1.0000
  C   C4        1.0  0.37632888145184035  0.651446155885573  0.35503319975801156  1.0000
  C   C5        1.0  0.38878119552201446  0.13008930704850033  0.7675689678152935  1.0000
  C   C6        1.0  0.6112121355699004  0.869907621509533  0.2324311081992292  1.0000
  C   C7        1.0  0.5213511155917914  0.07235101639808054  0.6633524973979945  1.0000
  C   C8        1.0  0.4786492419685544  0.9276469597904935  0.3366479024909594  1.0000
  C   C9        1.0  0.6959857041329724  0.1533636776865848  0.5536632824753623  1.0000
  C   C10       1.0  0.3040163319885065  0.846636411841175  0.44633825472291727  1.0000
  C   C11       1.0  0.7448532150167394  0.29027479899338726  0.5442671220502647  1.0000
  C   C12       1.0  0.2551541912363506  0.7097242278253333  0.4557345693422972  1.0000
  S   S1        1.0  0.1239400149454539  0.17352262100399682  0.970716423670538  1.0000
  S   S2        1.0  0.876061158189053  0.8264795764797483  0.029283445861594277  1.0000
  I   I1        1.0  0.7139312884722671  0.6417238229854333  0.8039288164722578  1.0000
  I   I2        1.0  0.28607026059493984  0.3582773130212972  0.19606946781997436  1.0000
  N   N1        1.0  0.3061416410151949  0.30394196903633736  0.8693609556019126  1.0000
  N   N2        1.0  0.6938520630452486  0.6960602332950574  0.13063727240812278  1.0000
  N   N3        1.0  0.20815128202737293  0.06807392369050551  0.8816632970445397  1.0000
  N   N4        1.0  0.7918453395138555  0.9319272225470815  0.11833615070106861  1.0000
