data_image0
_chemical_formula_structural       Fe2H28C40N8O4
_chemical_formula_sum              "Fe2 H28 C40 N8 O4"
_cell_length_a       7.736435466673746
_cell_length_b       8.102476897659379
_cell_length_c       13.056571655430092
_cell_angle_alpha    89.99924882723973
_cell_angle_beta     90.00126246158378
_cell_angle_gamma    96.23442800023678

_space_group_name_H-M_alt    "P 1"
_space_group_IT_number       1

loop_
  _space_group_symop_operation_xyz
  'x, y, z'

loop_
  _atom_site_type_symbol
  _atom_site_label
  _atom_site_symmetry_multiplicity
  _atom_site_fract_x
  _atom_site_fract_y
  _atom_site_fract_z
  _atom_site_occupancy
  Fe  Fe1       1.0  0.9999987020467457  0.9999985980291656  0.5000007666604559  1.0000
  Fe  Fe2       1.0  0.49999884649718496  0.500003088233413  0.9999997138841931  1.0000
  H   H1        1.0  0.34949144550645883  0.27183373688856  0.4217183056316641  1.0000
  H   H2        1.0  0.1504810575609028  0.2281485021510932  0.9217276143235933  1.0000
  H   H3        1.0  0.6505039968278298  0.7281554153646467  0.5782820147479553  1.0000
  H   H4        1.0  0.8495219083749745  0.7718579204381727  0.07827194015239768  1.0000
  H   H5        1.0  0.38304096574876917  0.573541646041292  0.518010175942585  1.0000
  H   H6        1.0  0.11697357675664928  0.9264490632820853  0.018049571312822397  1.0000
  H   H7        1.0  0.6169652976411584  0.42645101575705985  0.48199014448657335  1.0000
  H   H8        1.0  0.8830279309083406  0.07355614482715112  0.981950749056345  1.0000
  H   H9        1.0  0.11921558080312876  0.5653714127937021  0.6540161304379879  1.0000
  H   H10       1.0  0.38080517465537866  0.9346496318104369  0.15405989287256716  1.0000
  H   H11       1.0  0.8807924790296368  0.43462494592749584  0.3459872535822939  1.0000
  H   H12       1.0  0.6191974531706849  0.0653543082993124  0.8459388957104748  1.0000
  H   H13       1.0  0.5394168966089339  0.25072677815394667  0.6472709513763915  1.0000
  H   H14       1.0  0.9606139224128611  0.24935082185636048  0.14723923466999614  1.0000
  H   H15       1.0  0.46058118735731307  0.7492722772713593  0.35273013488861676  1.0000
  H   H16       1.0  0.039392404130481375  0.7506517966610673  0.8527618516303334  1.0000
  H   H17       1.0  0.39164541060346636  0.3617165381140667  0.7974179877653922  1.0000
  H   H18       1.0  0.1083675725201658  0.13835611186743785  0.2973791990958928  1.0000
  H   H19       1.0  0.608355589904562  0.6382849462713053  0.20258156671327035  1.0000
  H   H20       1.0  0.89163258276767  0.8616391662870342  0.7026211212928287  1.0000
  H   H21       1.0  0.8583513157671233  0.4784674398445716  0.9501073133576126  1.0000
  H   H22       1.0  0.6416820225426322  0.02158816991127571  0.4500978598974256  1.0000
  H   H23       1.0  0.14164581702307544  0.5215341248612547  0.04989224109971959  1.0000
  H   H24       1.0  0.35830927708634863  0.9784085369202913  0.5499009286434172  1.0000
  H   H25       1.0  0.027940305999692293  0.38154028135452484  0.8037706034358647  1.0000
  H   H26       1.0  0.4721111058021492  0.11852768890521052  0.3037803144443032  1.0000
  H   H27       1.0  0.972058285107991  0.6184624978038116  0.19623048282181085  1.0000
  H   H28       1.0  0.5278887744360787  0.8814750635438671  0.6962154105356148  1.0000
  C   C1        1.0  0.2678245659485157  0.31417896910485876  0.4819579077080717  1.0000
  C   C2        1.0  0.23216177198700197  0.18581901650156143  0.9819798260340062  1.0000
  C   C3        1.0  0.732172503750398  0.6858126388451993  0.5180439444694398  1.0000
  C   C4        1.0  0.7678386155013894  0.8141874596163275  0.018021260223442  1.0000
  C   C5        1.0  0.2850938060054702  0.47040991776802343  0.5332558835276158  1.0000
  C   C6        1.0  0.21490931172937167  0.029599336507793297  0.0332946715814089  1.0000
  C   C7        1.0  0.7149027565830723  0.5295779664306437  0.4667475004529108  1.0000
  C   C8        1.0  0.7850936542065056  0.9704070860814723  0.9667048828945894  1.0000
  C   C9        1.0  0.15028313978464067  0.46628661670041543  0.6039145958161283  1.0000
  C   C10       1.0  0.34972233630386995  0.033717221142112015  0.10393491963633747  1.0000
  C   C11       1.0  0.8497181356953265  0.5337073934362238  0.39608572458215  1.0000
  C   C12       1.0  0.6502819188402212  0.9662891746920154  0.8960631030510908  1.0000
  C   C13       1.0  0.05397263053395559  0.30773707186743593  0.5934354860880118  1.0000
  C   C14       1.0  0.4460378520580477  0.19225943593906436  0.09343685352980907  1.0000
  C   C15       1.0  0.9460289830713647  0.6922594207395462  0.40656636610105307  1.0000
  C   C16       1.0  0.5539646066121405  0.80774326299057  0.9065565737708139  1.0000
  C   C17       1.0  0.8945030970670372  0.23144187265648233  0.6309026411806469  1.0000
  C   C18       1.0  0.6055165349444703  0.2685778342494131  0.13089911189698  1.0000
  C   C19       1.0  0.10549335961224669  0.7685547270260927  0.3691007427756573  1.0000
  C   C20       1.0  0.3944888403917516  0.7314272935668811  0.869098910799998  1.0000
  C   C21       1.0  0.797766586682556  0.30381209744943766  0.7133653712291093  1.0000
  C   C22       1.0  0.7022709932215392  0.1962464073526178  0.21336329045588084  1.0000
  C   C23       1.0  0.2022327865229698  0.6961869312023765  0.2866357150430047  1.0000
  C   C24       1.0  0.2977316346200567  0.8037575327479587  0.7866362640249986  1.0000
  C   C25       1.0  0.6159149781591678  0.29967693453486527  0.7126980588759364  1.0000
  C   C26       1.0  0.884126969603031  0.20041385878673168  0.21268109075494823  1.0000
  C   C27       1.0  0.3840847330474517  0.7003245766606979  0.2872984320042632  1.0000
  C   C28       1.0  0.1158766093990806  0.7995875720424906  0.7873192296357628  1.0000
  C   C29       1.0  0.5321424606577096  0.3609796762278917  0.7962277853864561  1.0000
  C   C30       1.0  0.9678836218061876  0.13907217306707048  0.2962028734804391  1.0000
  C   C31       1.0  0.4678551792428535  0.639025612229318  0.20377023726786792  1.0000
  C   C32       1.0  0.03211653348164837  0.8609231050874014  0.7037974469082825  1.0000
  C   C33       1.0  0.7939717415974029  0.4288934819910181  0.8808806545130564  1.0000
  C   C34       1.0  0.7060740702526188  0.0711335949863354  0.3808647418566196  1.0000
  C   C35       1.0  0.20602522217671285  0.5711068414521135  0.1191204317423953  1.0000
  C   C36       1.0  0.29392564101613067  0.9288679161725283  0.6191348126149379  1.0000
  C   C37       1.0  0.8867544092868442  0.37387508448293966  0.7994204160854819  1.0000
  C   C38       1.0  0.6132945654379681  0.1261824391162278  0.29941851010055126  1.0000
  C   C39       1.0  0.11324350560119706  0.6261227297163714  0.20057913838629557  1.0000
  C   C40       1.0  0.3867048077209602  0.8738165895631127  0.7005802784780569  1.0000
  N   N1        1.0  0.12923868097657729  0.2173703519920238  0.5179523146812527  1.0000
  N   N2        1.0  0.37076470329303385  0.28262680340842655  0.017953136172550895  1.0000
  N   N3        1.0  0.8707561483846716  0.7826237919661664  0.4820518351706652  1.0000
  N   N4        1.0  0.6292393828039095  0.7173783511813597  0.9820448865173145  1.0000
  N   N5        1.0  0.6183501068932531  0.4222962648440712  0.8807617656906712  1.0000
  N   N6        1.0  0.8816854287038751  0.07771235712763058  0.3807316502843249  1.0000
  N   N7        1.0  0.3816471949285543  0.577706541115276  0.11923702286637897  1.0000
  N   N8        1.0  0.11831085886613117  0.9222830013472958  0.6192686700830732  1.0000
  O   O1        1.0  0.8326651251439403  0.09011991571594537  0.5916243823517319  1.0000
  O   O2        1.0  0.667371407150604  0.4098941244216974  0.0916222931929056  1.0000
  O   O3        1.0  0.1673340790610354  0.9098778716640012  0.40837900161634616  1.0000
  O   O4        1.0  0.3326318968950942  0.5901147806470844  0.9083780271760344  1.0000
