data_image0
_chemical_formula_structural       Zn4H56C40S4N8O28
_chemical_formula_sum              "Zn4 H56 C40 S4 N8 O28"
_cell_length_a       6.733550024585101
_cell_length_b       11.749062836019176
_cell_length_c       19.54473426783323
_cell_angle_alpha    90.00024705779173
_cell_angle_beta     98.11058490569359
_cell_angle_gamma    90.00072543894804

_space_group_name_H-M_alt    "P 1"
_space_group_IT_number       1

loop_
  _space_group_symop_operation_xyz
  'x, y, z'

loop_
  _atom_site_type_symbol
  _atom_site_label
  _atom_site_symmetry_multiplicity
  _atom_site_fract_x
  _atom_site_fract_y
  _atom_site_fract_z
  _atom_site_occupancy
  Zn  Zn1       1.0  0.46548684445443195  0.7465723530677905  0.2451727746491059  1.0000
  Zn  Zn2       1.0  0.034512031288812785  0.2465760433966508  0.2548274394555108  1.0000
  Zn  Zn3       1.0  0.5345172723151775  0.25342449714272414  0.7548214603476211  1.0000
  Zn  Zn4       1.0  0.9654780064657801  0.7534199558976693  0.745180372448992  1.0000
  H   H1        1.0  0.08083973957845811  0.7279504206626513  0.24312272166979912  1.0000
  H   H2        1.0  0.4191539664277927  0.22795500529905144  0.25687426710056366  1.0000
  H   H3        1.0  0.9191642737207034  0.27204557845659844  0.7568740662907416  1.0000
  H   H4        1.0  0.5808302165815532  0.7720537609094577  0.7431296507719338  1.0000
  H   H5        1.0  0.14784917842205658  0.6398531418949956  0.1870337095966761  1.0000
  H   H6        1.0  0.35214975035577817  0.13985865664122338  0.3129646391048624  1.0000
  H   H7        1.0  0.8521487728099046  0.3601360481899078  0.8129642902969748  1.0000
  H   H8        1.0  0.6478509734423455  0.8601415982474234  0.6870391372112437  1.0000
  H   H9        1.0  0.6114302454579104  0.549840229601898  0.2020283431285677  1.0000
  H   H10       1.0  0.8885438923939546  0.0498444158784466  0.2979631949802126  1.0000
  H   H11       1.0  0.3885837405225203  0.4501770474373074  0.7979449267318586  1.0000
  H   H12       1.0  0.11141260875626809  0.950176266419021  0.7020561330539365  1.0000
  H   H13       1.0  0.7709936220835517  0.6459233836781877  0.23999334280897952  1.0000
  H   H14       1.0  0.7289861331808823  0.14592382247187163  0.2599973616273203  1.0000
  H   H15       1.0  0.2290214293598751  0.35409389353215204  0.7599907294565611  1.0000
  H   H16       1.0  0.2709707610155121  0.8540934551450119  0.7400122651582635  1.0000
  H   H17       1.0  0.24728552495342626  0.971970512233895  0.3368272730408179  1.0000
  H   H18       1.0  0.2527081478585771  0.4719670299863878  0.1631666005941881  1.0000
  H   H19       1.0  0.7527015751286753  0.028033998350849708  0.6631788471394202  1.0000
  H   H20       1.0  0.747299341300945  0.5280315223443708  0.8368186036648594  1.0000
  H   H21       1.0  0.4839350851739256  0.9660525477703175  0.3343682714121101  1.0000
  H   H22       1.0  0.016056731801342004  0.4660449012027001  0.1656281000539153  1.0000
  H   H23       1.0  0.5160477216707519  0.03394004688583859  0.6656325029752707  1.0000
  H   H24       1.0  0.9839504259297559  0.5339357774915  0.8343652737211115  1.0000
  H   H25       1.0  0.4529345110150799  0.4974289766048798  0.292501945795955  1.0000
  H   H26       1.0  0.04706579199264381  0.9974266695127199  0.20750337393396023  1.0000
  H   H27       1.0  0.5471388933224901  0.5025499997826798  0.7074888193160405  1.0000
  H   H28       1.0  0.9528216060799509  0.002531029021966399  0.7925148288228597  1.0000
  H   H29       1.0  0.48496268408765536  0.38470335833652286  0.3979938812820478  1.0000
  H   H30       1.0  0.015046332827203903  0.8847011146045105  0.1020121204015396  1.0000
  H   H31       1.0  0.5150956378977156  0.6152773203345845  0.601998126550022  1.0000
  H   H32       1.0  0.984871147460119  0.11526594637116715  0.8980056392579598  1.0000
  H   H33       1.0  0.47751904447963506  0.7014691548147668  0.5121119320864053  1.0000
  H   H34       1.0  0.022508637028415986  0.201462357729504  0.9878939417853517  1.0000
  H   H35       1.0  0.5224821753088804  0.29850386366482695  0.4878795900690847  1.0000
  H   H36       1.0  0.9775799629458175  0.7984953408883723  0.012129870303397178  1.0000
  H   H37       1.0  0.45212281799278026  0.8014498436868533  0.4013874148311629  1.0000
  H   H38       1.0  0.04789919003764  0.30144517846311203  0.09861879451762688  1.0000
  H   H39       1.0  0.5478813397222666  0.19852657934632134  0.5986057990235949  1.0000
  H   H40       1.0  0.9521758688009712  0.6985082645013562  0.9014053190834871  1.0000
  H   H41       1.0  0.43607042561290404  0.7030797206100697  0.0964769061369211  1.0000
  H   H42       1.0  0.0639312610921152  0.20308386565842798  0.4035196455655026  1.0000
  H   H43       1.0  0.5638840893901146  0.2969384078933572  0.9035172429455116  1.0000
  H   H44       1.0  0.9360920453795957  0.7969385186408147  0.5964832878035153  1.0000
  H   H45       1.0  0.4461697233900778  0.7993738310230751  0.9857997814958636  1.0000
  H   H46       1.0  0.053817403053464795  0.29938266182523415  0.5141966450104221  1.0000
  H   H47       1.0  0.5537907295192355  0.20065025543152604  0.014196219209672704  1.0000
  H   H48       1.0  0.9462060279239211  0.7006567450597599  0.48580322476845345  1.0000
  H   H49       1.0  0.5468832875589412  0.11565677325509678  0.10140594831917579  1.0000
  H   H50       1.0  0.953143031388741  0.6156681590050113  0.3985910160713999  1.0000
  H   H51       1.0  0.4530951233944053  0.8843613553083782  0.8985920331588276  1.0000
  H   H52       1.0  0.0468957096266251  0.38437380116601355  0.6014019944620088  1.0000
  H   H53       1.0  0.5334799266253754  0.0035712062394707995  0.20682967758830983  1.0000
  H   H54       1.0  0.9665416751464662  0.5035783992575631  0.2931662252137812  1.0000
  H   H55       1.0  0.466513483845752  0.9964418155459638  0.7931691035463828  1.0000
  H   H56       1.0  0.0334714005625756  0.4964439849279286  0.7068295107017804  1.0000
  C   C1        1.0  0.4590889324311647  0.5403872330647985  0.3422248894287279  1.0000
  C   C2        1.0  0.040919130634137  0.04038529414007999  0.1577776597668574  1.0000
  C   C3        1.0  0.5409587863269607  0.45959174337475855  0.6577691116167657  1.0000
  C   C4        1.0  0.9590209730544642  0.959573255488273  0.8422382358250147  1.0000
  C   C5        1.0  0.47860095699755334  0.476902277019505  0.4027575712952185  1.0000
  C   C6        1.0  0.0213970121993512  0.9768998819424011  0.0972467333914935  1.0000
  C   C7        1.0  0.5214376586230146  0.5230809551117375  0.5972385029158005  1.0000
  C   C8        1.0  0.9785492777355032  0.023067178935186  0.9027648867092636  1.0000
  C   C9        1.0  0.487844011647418  0.5319298100286076  0.46692808891100407  1.0000
  C   C10       1.0  0.0121636079964844  0.031925623242535985  0.0330765381363776  1.0000
  C   C11       1.0  0.5121586254689348  0.4680491664065725  0.5330655555662104  1.0000
  C   C12       1.0  0.9878426390458871  0.9680405865685059  0.966939301734847  1.0000
  C   C13       1.0  0.4730526312811776  0.6511648245317403  0.46516949631804744  1.0000
  C   C14       1.0  0.026967489360338  0.15115813927393157  0.03483707275652391  1.0000
  C   C15       1.0  0.5269546503749396  0.3488056405333354  0.5348208139239645  1.0000
  C   C16       1.0  0.9730790081525598  0.848797005954971  0.9651870532908973  1.0000
  C   C17       1.0  0.45672081284167376  0.708832261887643  0.4025334222918531  1.0000
  C   C18       1.0  0.0432897670106485  0.20882841173111896  0.0974722651548845  1.0000
  C   C19       1.0  0.543304468457137  0.2911424588507003  0.5974578475164022  1.0000
  C   C20       1.0  0.9567356275544938  0.791125882389373  0.9025532943519962  1.0000
  C   C21       1.0  0.460384008687214  0.7947389259123696  0.09524450540641989  1.0000
  C   C22       1.0  0.0396260033355702  0.29474226028710854  0.4047539440663002  1.0000
  C   C23       1.0  0.539582464690639  0.2052817560121767  0.9047513045722438  1.0000
  C   C24       1.0  0.9603853241434307  0.705280975125966  0.5952478389917459  1.0000
  C   C25       1.0  0.46686415760849087  0.8502266192366432  0.0329198910178548  1.0000
  C   C26       1.0  0.033130345012352784  0.3502344823420102  0.46707430255430893  1.0000
  C   C27       1.0  0.5331112742007136  0.14979576497486843  0.9670774199296233  1.0000
  C   C28       1.0  0.9668751897201986  0.6497981154341232  0.5329220547016646  1.0000
  C   C29       1.0  0.4978442127182845  0.9684803003349458  0.0325974788131091  1.0000
  C   C30       1.0  0.002167290434478295  0.46849072882136483  0.4673978796011368  1.0000
  C   C31       1.0  0.5021295328052419  0.031536977157863084  0.9674043475121437  1.0000
  C   C32       1.0  0.9978700953607245  0.5315469756332333  0.5325914768297579  1.0000
  C   C33       1.0  0.5230006302517438  0.024333669945065094  0.0966412242653689  1.0000
  C   C34       1.0  0.9770143363705656  0.5243443541891607  0.4033547022038134  1.0000
  C   C35       1.0  0.47696561547660826  0.9756844586733423  0.9033602022351133  1.0000
  C   C36       1.0  0.023012466905996096  0.4756924991575033  0.596636136846314  1.0000
  C   C37       1.0  0.5148512477317767  0.9621745270690453  0.1565725432770648  1.0000
  C   C38       1.0  0.9851567020703625  0.4621801484500168  0.3434247824681194  1.0000
  C   C39       1.0  0.4851270803690042  0.037839345868221096  0.8434274805794857  1.0000
  C   C40       1.0  0.014856415092182797  0.5378456402461537  0.6565699322554934  1.0000
  S   S1        1.0  0.86784203250717  0.8350701447944926  0.3324592508888031  1.0000
  S   S2        1.0  0.6321486634798319  0.3350710634276695  0.1675338835915454  1.0000
  S   S3        1.0  0.13213927473775303  0.16493947249473703  0.6675414434982798  1.0000
  S   S4        1.0  0.3678585775756177  0.6649360003173327  0.8324574477585216  1.0000
  N   N1        1.0  0.45102917264515696  0.6550899855436539  0.3413844644211395  1.0000
  N   N2        1.0  0.0489775950339677  0.15508466832938686  0.1586218790962164  1.0000
  N   N3        1.0  0.5489976293430772  0.344886437451258  0.6586063747557347  1.0000
  N   N4        1.0  0.9510073832829279  0.8448687745939695  0.8413994789987101  1.0000
  N   N5        1.0  0.4838559445759927  0.8492029630571022  0.1564950030699848  1.0000
  N   N6        1.0  0.016156431213254097  0.3492120179259003  0.3435021967385339  1.0000
  N   N7        1.0  0.5161104872757748  0.1508109098299073  0.8435018281077689  1.0000
  N   N8        1.0  0.9838714993436497  0.6508129197236201  0.6564979129644826  1.0000
  O   O1        1.0  0.17163024534575302  0.7195951360187391  0.2069489623351615  1.0000
  O   O2        1.0  0.3283735007510701  0.21960257442776762  0.2930511741924278  1.0000
  O   O3        1.0  0.8283736849375317  0.28038894728887  0.7930498680199989  1.0000
  O   O4        1.0  0.6716211197622287  0.7803985316281512  0.706954835225531  1.0000
  O   O5        1.0  0.6494127687652949  0.6327115816525294  0.20597693847562934  1.0000
  O   O6        1.0  0.8505692989734186  0.1327130915900057  0.2940170448633168  1.0000
  O   O7        1.0  0.35060215864423583  0.3673108023966448  0.7940101973336339  1.0000
  O   O8        1.0  0.1493890332231302  0.8673092928426693  0.7059941936533605  1.0000
  O   O9        1.0  0.3742624163483513  0.015514785784262096  0.3454929117465326  1.0000
  O   O10       1.0  0.1257314381693533  0.5155082414022444  0.1545003420421409  1.0000
  O   O11       1.0  0.6257323903246642  0.9844837668036986  0.6545085023451236  1.0000
  O   O12       1.0  0.8742667613299915  0.4844800974538542  0.8454915307444323  1.0000
  O   O13       1.0  0.6515995623932511  0.8643937245338335  0.3029638793004139  1.0000
  O   O14       1.0  0.8483934906793777  0.3643913101341881  0.1970389133997941  1.0000
  O   O15       1.0  0.3483757242742556  0.13561419049516127  0.6970370058242565  1.0000
  O   O16       1.0  0.15162106377565007  0.6356063912408914  0.8029574131245383  1.0000
  O   O17       1.0  0.8885357359787776  0.823663609856851  0.4071857420523557  1.0000
  O   O18       1.0  0.6114769939668107  0.32367322633727  0.0928081291347738  1.0000
  O   O19       1.0  0.11143355045702208  0.1763264314012289  0.5928148232514161  1.0000
  O   O20       1.0  0.3885618079041891  0.6763117079845811  0.9071833497410181  1.0000
  O   O21       1.0  0.9965958752950641  0.9284023397396552  0.3102509764577164  1.0000
  O   O22       1.0  0.5033956968357955  0.4284022671868827  0.1897441595448228  1.0000
  O   O23       1.0  0.0033698741344138972  0.07162855604865828  0.689762704233722  1.0000
  O   O24       1.0  0.496630309844882  0.5716294790931897  0.8102292394096224  1.0000
  O   O25       1.0  0.9232221901607857  0.7265877703927044  0.2990744368235951  1.0000
  O   O26       1.0  0.5767594010555256  0.22658634557269147  0.2009184022406316  1.0000
  O   O27       1.0  0.07678784420571817  0.2734329115430896  0.7009221603511548  1.0000
  O   O28       1.0  0.4232039482723806  0.7734351875296709  0.7990803113614859  1.0000
