data_image0
_chemical_formula_structural       Al2H54C60O12
_chemical_formula_sum              "Al2 H54 C60 O12"
_cell_length_a       3.945373787476455
_cell_length_b       28.683963162790317
_cell_length_c       28.68386864172268
_cell_angle_alpha    119.99866046548465
_cell_angle_beta     89.99831635478697
_cell_angle_gamma    90.00026530354236

_space_group_name_H-M_alt    "P 1"
_space_group_IT_number       1

loop_
  _space_group_symop_operation_xyz
  'x, y, z'

loop_
  _atom_site_type_symbol
  _atom_site_label
  _atom_site_symmetry_multiplicity
  _atom_site_fract_x
  _atom_site_fract_y
  _atom_site_fract_z
  _atom_site_occupancy
  Al  Al1       1.0  0.0017971869859466005  0.5000035471932663  0.4999937740930633  1.0000
  Al  Al2       1.0  0.0019222136825547006  0.16666327820883003  0.8333320553502332  1.0000
  H   H1        1.0  0.5492280140675092  0.2308305675220481  0.643755668047092  1.0000
  H   H2        1.0  0.4506452404618245  0.3754458046692832  0.7976713935901358  1.0000
  H   H3        1.0  0.4508243408512202  0.2911646213632367  0.5355753357007842  1.0000
  H   H4        1.0  0.54898591451758  0.43577160701175915  0.6895118977597293  1.0000
  H   H5        1.0  0.49130377566562106  0.38482883863913037  0.7221058507451303  1.0000
  H   H6        1.0  0.49145594554151034  0.2817854574707113  0.6111715968018601  1.0000
  H   H7        1.0  0.5491454670136381  0.9129272623446951  0.7691790660290322  1.0000
  H   H8        1.0  0.4506536006358531  0.9222257060497087  0.6245599620408768  1.0000
  H   H9        1.0  0.45085414900284354  0.7444109289020774  0.7088393606404324  1.0000
  H   H10       1.0  0.5489773662226372  0.7537500164638901  0.5642340325087857  1.0000
  H   H11       1.0  0.49131844922491325  0.8372805891906552  0.6151789758356117  1.0000
  H   H12       1.0  0.4914743749505421  0.8293862586630637  0.7182198414193265  1.0000
  H   H13       1.0  0.549179340301855  0.35624066204573523  0.08706575735823212  1.0000
  H   H14       1.0  0.45062672991509356  0.202326955651202  0.07777922120823892  1.0000
  H   H15       1.0  0.45089594478462663  0.4644228301117225  0.25557365252878134  1.0000
  H   H16       1.0  0.5490572714843511  0.31049206487103487  0.2462588892296083  1.0000
  H   H17       1.0  0.4913323417295033  0.27788973091790575  0.16272464687030916  1.0000
  H   H18       1.0  0.49152356677004877  0.38882261941628116  0.170601939486076  1.0000
  H   H19       1.0  0.7099521139199967  0.3351712745004748  0.878259211519719  1.0000
  H   H20       1.0  0.3039702378414974  0.3077120204182717  0.8743287373943999  1.0000
  H   H21       1.0  0.3453816950765259  0.3704512038377246  0.8760860748188078  1.0000
  H   H22       1.0  0.29468478453328834  0.14063465500878183  0.6712590289819005  1.0000
  H   H23       1.0  0.7040298305836007  0.14195374115769255  0.6965871847203857  1.0000
  H   H24       1.0  0.6539067086516682  0.14804323045938625  0.638105587007388  1.0000
  H   H25       1.0  0.2943429108229979  0.5259805427757273  0.6620509161944242  1.0000
  H   H26       1.0  0.7037086312124502  0.5246861140035861  0.6367336937827588  1.0000
  H   H27       1.0  0.6535472139977545  0.5185548499846532  0.69518977168115  1.0000
  H   H28       1.0  0.710094439280326  0.3314827788368079  0.45501465683571507  1.0000
  H   H29       1.0  0.30404425628826465  0.35893108792057393  0.45894347169154764  1.0000
  H   H30       1.0  0.34553242449756294  0.2961794828709543  0.4571627173692789  1.0000
  H   H31       1.0  0.7100208106339497  0.043081006004953896  0.6648271853589237  1.0000
  H   H32       1.0  0.3040364307518574  0.06661523056884283  0.6922842544830771  1.0000
  H   H33       1.0  0.3454374858058885  0.005631941658087637  0.6295476048078682  1.0000
  H   H34       1.0  0.29464205857266285  0.03062766823104816  0.8593753931150729  1.0000
  H   H35       1.0  0.7039904128366107  0.05463440813810643  0.8580470381816525  1.0000
  H   H36       1.0  0.6538655557157541  0.9900668208943703  0.8519645872243589  1.0000
  H   H37       1.0  0.29436028316153817  0.6360770065475946  0.4740179908388952  1.0000
  H   H38       1.0  0.7037226994563569  0.6120597568557643  0.4753136580279573  1.0000
  H   H39       1.0  0.6535428988881905  0.6766434783681207  0.4814433727115955  1.0000
  H   H40       1.0  0.7101245841059055  0.6235402369426167  0.6685185388801641  1.0000
  H   H41       1.0  0.3040921114503164  0.6000159201401231  0.6410738196904973  1.0000
  H   H42       1.0  0.34555265858174544  0.6609859952966489  0.7038241013636863  1.0000
  H   H43       1.0  0.7099346597516246  0.12173703599010835  0.9569156833573588  1.0000
  H   H44       1.0  0.3039833598169395  0.12567266145845932  0.9333902640830941  1.0000
  H   H45       1.0  0.34536186900447063  0.12390825635473131  0.9943665128081633  1.0000
  H   H46       1.0  0.29464049166226414  0.3287334026849535  0.9693703258230713  1.0000
  H   H47       1.0  0.7039777586162261  0.30340657887373373  0.9453604142164806  1.0000
  H   H48       1.0  0.6538471241348847  0.3618859113251034  0.009926907943245977  1.0000
  H   H49       1.0  0.2944024130434571  0.3379560002456969  0.3639365324578847  1.0000
  H   H50       1.0  0.703778446929512  0.3632746596905392  0.3879539427036676  1.0000
  H   H51       1.0  0.6536294873262708  0.30481572794315076  0.32336955334017853  1.0000
  H   H52       1.0  0.7101777845785833  0.5449862228359379  0.3764507392185763  1.0000
  H   H53       1.0  0.30409195631711583  0.5410626153554716  0.3999773340955882  1.0000
  H   H54       1.0  0.34559532843216806  0.5428425713583067  0.3389992000752642  1.0000
  C   C1        1.0  0.5014819549406796  0.4622028174519599  0.41651252239279296  1.0000
  C   C2        1.0  0.5014610055471496  0.45432390635331643  0.537805736898882  1.0000
  C   C3        1.0  0.5014371154738485  0.5834953488451333  0.545678656275193  1.0000
  C   C4        1.0  0.5016035080084366  0.2123160255385841  0.7954864464053202  1.0000
  C   C5        1.0  0.5015843021594152  0.08316758648243884  0.7876860458845059  1.0000
  C   C6        1.0  0.5015698809216006  0.20450962092800748  0.9168340522230807  1.0000
  C   C7        1.0  0.49994939664120625  0.24535932820893444  0.7685305606583057  1.0000
  C   C8        1.0  0.5208099121736682  0.21963899849235705  0.7118417419979295  1.0000
  C   C9        1.0  0.5234567340044194  0.2510953360462127  0.6874440769026934  1.0000
  C   C10       1.0  0.496881587914011  0.3074914393188309  0.7174068210195372  1.0000
  C   C11       1.0  0.47358786498886485  0.3316703758065244  0.7736387526837589  1.0000
  C   C12       1.0  0.4785396412393653  0.3018389608547381  0.7999109217363909  1.0000
  C   C13       1.0  0.4948343291226395  0.3415871341834347  0.6932166403996902  1.0000
  C   C14       1.0  0.4948753062186457  0.3250284645915044  0.6400399582602532  1.0000
  C   C15       1.0  0.47366444922282386  0.33494404002494355  0.5596219609002375  1.0000
  C   C16       1.0  0.49691637984102505  0.3591124459362973  0.6158489270926069  1.0000
  C   C17       1.0  0.5232943904255694  0.41550695446304087  0.6458200600446631  1.0000
  C   C18       1.0  0.5205855711241514  0.4469803793447511  0.6214394904567015  1.0000
  C   C19       1.0  0.49979984284710366  0.421265856822977  0.5647484910472969  1.0000
  C   C20       1.0  0.4785647169817724  0.3647875541764378  0.5333606684060898  1.0000
  C   C21       1.0  0.49992665261783764  0.023169421378526164  0.7546438022926055  1.0000
  C   C22       1.0  0.5207655947614854  0.9922026780261888  0.7803663256597133  1.0000
  C   C23       1.0  0.5234040171902951  0.9363501351122566  0.7489146366513069  1.0000
  C   C24       1.0  0.4968697397126861  0.9099162569246462  0.6925135152912392  1.0000
  C   C25       1.0  0.4735849117905247  0.9419690645184103  0.6683331462038068  1.0000
  C   C26       1.0  0.47854544323367804  0.9980702105377475  0.6981647277994939  1.0000
  C   C27       1.0  0.494832043411762  0.8516310886057925  0.6584178568319317  1.0000
  C   C28       1.0  0.49488281150221536  0.8150174298141126  0.6749811383442292  1.0000
  C   C29       1.0  0.4736675536696426  0.7246794142220594  0.6650618482114298  1.0000
  C   C30       1.0  0.4969106354654331  0.7567437766846722  0.6408941709749527  1.0000
  C   C31       1.0  0.5232838926057541  0.730320955514351  0.5844943647016123  1.0000
  C   C32       1.0  0.5205692124118145  0.6744677283101267  0.5530210662402695  1.0000
  C   C33       1.0  0.49978455780603787  0.6434894084771869  0.578731291702546  1.0000
  C   C34       1.0  0.47855399997507686  0.6685760530194358  0.6352115313565534  1.0000
  C   C35       1.0  0.4999239364874699  0.23146788074458158  0.9768343787990403  1.0000
  C   C36       1.0  0.5207661234463858  0.2881524015187154  0.007790152250542808  1.0000
  C   C37       1.0  0.5234243595631441  0.3125482903753891  0.06364119059130499  1.0000
  C   C38       1.0  0.4968708623737187  0.2825845970739707  0.0900778181582496  1.0000
  C   C39       1.0  0.47357263706970804  0.22635295700931832  0.05802847864523388  1.0000
  C   C40       1.0  0.47851823701577006  0.2000788524632924  0.0019255652460117153  1.0000
  C   C41       1.0  0.49485753507200786  0.3067886392906943  0.1483742096683045  1.0000
  C   C42       1.0  0.49493560887741966  0.3599621607165346  0.18498920564557864  1.0000
  C   C43       1.0  0.4737353084883439  0.4403751180701576  0.27530341988288143  1.0000
  C   C44       1.0  0.49699034000986614  0.38415307798612736  0.24325757114776536  1.0000
  C   C45       1.0  0.5233671902699869  0.3541807965920825  0.26968029681155764  1.0000
  C   C46       1.0  0.5206444403512762  0.37856282053035534  0.3255319706678748  1.0000
  C   C47       1.0  0.49983290180709644  0.4352516989065335  0.3565064600826133  1.0000
  C   C48       1.0  0.4786088032415707  0.4666360948356854  0.3314068777025057  1.0000
  C   C49       1.0  0.4568854327618654  0.3302751448183088  0.8603417360405317  1.0000
  C   C50       1.0  0.5461460206272694  0.15939971277879272  0.6776767222846657  1.0000
  C   C51       1.0  0.5458226147417594  0.5072252816459583  0.6556321908760765  1.0000
  C   C52       1.0  0.456986013864743  0.3363598100104356  0.4729222571046847  1.0000
  C   C53       1.0  0.45693882726544655  0.03006201449236572  0.6697242335417783  1.0000
  C   C54       1.0  0.5460978754692579  0.01827844456511952  0.8406072884673038  1.0000
  C   C55       1.0  0.5458327341748374  0.6484167159107271  0.4927729986468776  1.0000
  C   C56       1.0  0.4570061118085535  0.6365653489769088  0.6636428730629617  1.0000
  C   C57       1.0  0.45688022644613124  0.13965555419540016  0.9699394541527299  1.0000
  C   C58       1.0  0.5460980966450963  0.322317676717276  0.9817180882199638  1.0000
  C   C59       1.0  0.5458882819923192  0.34437663816947156  0.35159331999624754  1.0000
  C   C60       1.0  0.4570419040469817  0.5270728846861843  0.363417218046834  1.0000
  O   O1        1.0  0.7372283599317629  0.5580304310809866  0.5540737405836325  1.0000
  O   O2        1.0  0.7372850774722084  0.49606448403221753  0.4419691853053536  1.0000
  O   O3        1.0  0.7372672945950786  0.4459230072668772  0.5039411152737897  1.0000
  O   O4        1.0  0.26682142605095305  0.5607371433698489  0.51071583892805  1.0000
  O   O5        1.0  0.2668209382298202  0.4892789873017166  0.5500071577682277  1.0000
  O   O6        1.0  0.2668145485617402  0.4499983478417491  0.43926296665147646  1.0000
  O   O7        1.0  0.737329176092324  0.1706410816736862  0.8913722151136909  1.0000
  O   O8        1.0  0.7373773781330116  0.22072686860768442  0.8293562694851885  1.0000
  O   O9        1.0  0.7373529419349227  0.10862508567594632  0.7792751773991852  1.0000
  O   O10       1.0  0.2669433521240451  0.21669423974621782  0.8940576269898841  1.0000
  O   O11       1.0  0.2669339354847224  0.10593882330453396  0.8226436875224862  1.0000
  O   O12       1.0  0.26698258574068495  0.17735854173342602  0.7833022565454684  1.0000
