data_image0
_chemical_formula_structural       Cu16H24C72Se4O60
_chemical_formula_sum              "Cu16 H24 C72 Se4 O60"
_cell_length_a       12.415234069326635
_cell_length_b       14.285376628441867
_cell_length_c       20.376349622590592
_cell_angle_alpha    89.97717371448267
_cell_angle_beta     107.65844272044929
_cell_angle_gamma    89.96487357401533

_space_group_name_H-M_alt    "P 1"
_space_group_IT_number       1

loop_
  _space_group_symop_operation_xyz
  'x, y, z'

loop_
  _atom_site_type_symbol
  _atom_site_label
  _atom_site_symmetry_multiplicity
  _atom_site_fract_x
  _atom_site_fract_y
  _atom_site_fract_z
  _atom_site_occupancy
  Cu  Cu1       1.0  0.46495686914069273  0.9920261916179599  0.5498120718697308  1.0000
  Cu  Cu2       1.0  0.9152969035958449  0.5082283958455208  0.4501450474941535  1.0000
  Cu  Cu3       1.0  0.5349706251350383  0.0082078818845162  0.4502137924838294  1.0000
  Cu  Cu4       1.0  0.0846205737362169  0.491913302360409  0.5496779133339302  1.0000
  Cu  Cu5       1.0  0.9333100996756939  0.9447626322230818  0.8835437570989129  1.0000
  Cu  Cu6       1.0  0.0508374470408697  0.5557284745996185  0.1168093031201991  1.0000
  Cu  Cu7       1.0  0.0664091612051578  0.0556365111424526  0.11665258315174751  1.0000
  Cu  Cu8       1.0  0.9491167948863647  0.4436538385295422  0.883899442506056  1.0000
  Cu  Cu9       1.0  0.718383238094475  0.05999031710200601  0.9165992312978872  1.0000
  Cu  Cu10      1.0  0.8037684499239859  0.440386308851906  0.082639250700872  1.0000
  Cu  Cu11      1.0  0.2798440425725062  0.9406099377200832  0.08260342136890128  1.0000
  Cu  Cu12      1.0  0.19670834253406613  0.5596895536200677  0.9173846456725342  1.0000
  Cu  Cu13      1.0  0.7292183636331657  0.3049080538839917  0.9010830859812768  1.0000
  Cu  Cu14      1.0  0.8310734698586869  0.1928514080720731  0.09399593039496776  1.0000
  Cu  Cu15      1.0  0.2644276589983292  0.6928108670778813  0.0947255640800577  1.0000
  Cu  Cu16      1.0  0.16890216797222019  0.8075253062669319  0.9051361032504133  1.0000
  H   H1        1.0  0.036485748439567096  0.6993991157438019  0.6932299968533967  1.0000
  H   H2        1.0  0.3434218031601617  0.8008036008722286  0.3067061976577463  1.0000
  H   H3        1.0  0.9633690090484135  0.3007328981012592  0.30662792868835  1.0000
  H   H4        1.0  0.6578345817932885  0.19862041903365218  0.6937025927231701  1.0000
  H   H5        1.0  0.7856655108152282  0.9092689966014832  0.6891286515888879  1.0000
  H   H6        1.0  0.09687627487506491  0.5911250203764027  0.3108663367255957  1.0000
  H   H7        1.0  0.21408024634096276  0.09073151138058931  0.3107587993753569  1.0000
  H   H8        1.0  0.9040321941929504  0.40872766040349967  0.6891951636424878  1.0000
  H   H9        1.0  0.7683939320628143  0.7528656762329933  0.5052284730588283  1.0000
  H   H10       1.0  0.262930682965731  0.7472170250870748  0.49482479510055544  1.0000
  H   H11       1.0  0.23140343418749149  0.2471802572273205  0.4946361088095159  1.0000
  H   H12       1.0  0.736682614787462  0.2530851464816095  0.5052602290888188  1.0000
  H   H13       1.0  0.7956860705371084  0.6892830056768419  0.8851274232066046  1.0000
  H   H14       1.0  0.9110022065501936  0.8099538555455227  0.11507183741267818  1.0000
  H   H15       1.0  0.20483138343350762  0.3100714872616805  0.1154246505832788  1.0000
  H   H16       1.0  0.0880458706012348  0.19007514620029303  0.8851754569089678  1.0000
  H   H17       1.0  0.5127361638938694  0.532952985079632  0.9085142826301009  1.0000
  H   H18       1.0  0.6048804844136626  0.9668983609084024  0.09143379048903452  1.0000
  H   H19       1.0  0.4869670980596156  0.46679326576109764  0.09132795250644682  1.0000
  H   H20       1.0  0.3941666282343022  0.033437575643319  0.9080672630382195  1.0000
  H   H21       1.0  0.5039319667820762  0.8343940429020338  0.9048861467860405  1.0000
  H   H22       1.0  0.5993123351465712  0.6654637673471697  0.09511141870789429  1.0000
  H   H23       1.0  0.4964840238896072  0.1653546193538418  0.09505000322624109  1.0000
  H   H24       1.0  0.3993388742721109  0.334872881541493  0.9046044987688758  1.0000
  C   C1        1.0  0.9439620000298916  0.6377219301472792  0.5615248007911546  1.0000
  C   C2        1.0  0.3824675569895247  0.8623364017960782  0.43856807808535336  1.0000
  C   C3        1.0  0.05590638886738471  0.3623708619559238  0.43832690348872205  1.0000
  C   C4        1.0  0.6175643173862824  0.1378421806955572  0.5616117950481083  1.0000
  C   C5        1.0  0.9047067968634437  0.7169538840405565  0.5962126674019287  1.0000
  C   C6        1.0  0.3085161546329047  0.7832442529051848  0.40382019105138767  1.0000
  C   C7        1.0  0.09510748032298008  0.2831053357467113  0.40364767596548023  1.0000
  C   C8        1.0  0.6918598690956584  0.2167799752408754  0.5964652717867763  1.0000
  C   C9        1.0  0.9609481081637766  0.7381933883105347  0.6653184275692253  1.0000
  C   C10       1.0  0.2957609409185337  0.7620872079152434  0.33467127551518416  1.0000
  C   C11       1.0  0.0388644584045821  0.2618854178390961  0.3345376338493438  1.0000
  C   C12       1.0  0.7053841396312065  0.237538516971405  0.6657674484251499  1.0000
  C   C13       1.0  0.9189628000898863  0.8088451662573349  0.6983075841170958  1.0000
  C   C14       1.0  0.22089695338321746  0.6915348360681719  0.30168310484672384  1.0000
  C   C15       1.0  0.08081592723068812  0.1912133722483702  0.3015584113520688  1.0000
  C   C16       1.0  0.7806180595005118  0.30794668291073896  0.6987550760245327  1.0000
  C   C17       1.0  0.8200990853254098  0.856482184051913  0.6626116737315755  1.0000
  C   C18       1.0  0.15767023040005057  0.6438894087085387  0.3373762022707538  1.0000
  C   C19       1.0  0.17965005002852766  0.1435253180352163  0.3372739389869039  1.0000
  C   C20       1.0  0.843179521283929  0.3559335061257087  0.6627863183409487  1.0000
  C   C21       1.0  0.7669300366518214  0.8374836327266237  0.5931406614155037  1.0000
  C   C22       1.0  0.17380422883486799  0.6628284990804616  0.4068595035149228  1.0000
  C   C23       1.0  0.2328512214824343  0.16253576992643562  0.4067450197660349  1.0000
  C   C24       1.0  0.8264312889626666  0.3372607994989281  0.593205333006857  1.0000
  C   C25       1.0  0.8094993154825546  0.7683595367461749  0.5593788374326465  1.0000
  C   C26       1.0  0.2500052253195548  0.7318581634587744  0.4406427704116567  1.0000
  C   C27       1.0  0.19028874319131725  0.2316808071155663  0.4404889299582138  1.0000
  C   C28       1.0  0.7500250916368857  0.2683140170562126  0.5595063973819804  1.0000
  C   C29       1.0  0.6653322593696416  0.893588588585196  0.5563277366095178  1.0000
  C   C30       1.0  0.10895877531646646  0.6066638629464336  0.4436185625840706  1.0000
  C   C31       1.0  0.33453914502841536  0.10654784388722761  0.4435960979604445  1.0000
  C   C32       1.0  0.8910640960162084  0.3934620456342586  0.5562981556746037  1.0000
  C   C33       1.0  0.9759554114850033  0.8348976476395151  0.7721611825075739  1.0000
  C   C34       1.0  0.20421052916991306  0.6655054911417011  0.22784030421729537  1.0000
  C   C35       1.0  0.023951044470280198  0.16521681149403386  0.2276803906184597  1.0000
  C   C36       1.0  0.798541308290275  0.33396336929008197  0.7725803251912851  1.0000
  C   C37       1.0  0.7142348523297883  0.8619928961989062  0.8921771675970973  1.0000
  C   C38       1.0  0.822402428113499  0.6377489806827157  0.10747952373957051  1.0000
  C   C39       1.0  0.28598137223062986  0.137725117437661  0.1075937596234411  1.0000
  C   C40       1.0  0.1769404265900079  0.362672501248241  0.8920646471701658  1.0000
  C   C41       1.0  0.657081559016099  0.7708392332438408  0.8958069154101621  1.0000
  C   C42       1.0  0.7615988906982167  0.7287317451099825  0.10424382165955848  1.0000
  C   C43       1.0  0.3434122321829634  0.22874938948005052  0.10442032617523718  1.0000
  C   C44       1.0  0.2372871747392438  0.2714786485535399  0.8956073429022453  1.0000
  C   C45       1.0  0.7129240277755216  0.6869338864425956  0.892773322677037  1.0000
  C   C46       1.0  0.8206404132865474  0.8124463197031845  0.10737792892772556  1.0000
  C   C47       1.0  0.28747876358077923  0.3124964762156779  0.1076483090876366  1.0000
  C   C48       1.0  0.1783742088843354  0.187755707170659  0.8926944738544194  1.0000
  C   C49       1.0  0.6630666523144129  0.6007737140584269  0.8988006172490158  1.0000
  C   C50       1.0  0.7648263083455404  0.8986354155029304  0.10120662842739851  1.0000
  C   C51       1.0  0.3370606535062137  0.3986249587380541  0.1013528679228983  1.0000
  C   C52       1.0  0.2344224935147139  0.1016603871500621  0.8988576626771873  1.0000
  C   C53       1.0  0.5537188748967808  0.5993173544834961  0.9050391292812847  1.0000
  C   C54       1.0  0.6492651762701911  0.9004368731961279  0.0949645838729438  1.0000
  C   C55       1.0  0.446296943279286  0.40032720752981293  0.09495817015405089  1.0000
  C   C56       1.0  0.34982081591187597  0.099872531926394  0.9047685301106724  1.0000
  C   C57       1.0  0.49619852626455707  0.6837696215246254  0.9060229691146091  1.0000
  C   C58       1.0  0.590701374173932  0.816096933475997  0.09407851243295082  1.0000
  C   C59       1.0  0.5040335137094801  0.3159800599999514  0.09400947669173121  1.0000
  C   C60       1.0  0.4080611457102847  0.1842721560596345  0.9054985665944528  1.0000
  C   C61       1.0  0.5485866350455311  0.7693904299479613  0.9028466053521313  1.0000
  C   C62       1.0  0.646101279086544  0.730362586229056  0.09721397676658233  1.0000
  C   C63       1.0  0.45181620659617044  0.23029990123532681  0.09723149357648711  1.0000
  C   C64       1.0  0.3527053853230981  0.26992879101599954  0.9025712113272918  1.0000
  C   C65       1.0  0.3763176447989026  0.6837088380800083  0.9085924341315349  1.0000
  C   C66       1.0  0.468252314415345  0.8163100738083955  0.0914344058114906  1.0000
  C   C67       1.0  0.6238159808069171  0.3162039371481741  0.09122556245964829  1.0000
  C   C68       1.0  0.5299111228530223  0.18436948859618243  0.9071967346582355  1.0000
  C   C69       1.0  0.728712972346976  0.5125532766157619  0.8974056182108042  1.0000
  C   C70       1.0  0.8321051228620958  0.9865236700609331  0.1022778389401182  1.0000
  C   C71       1.0  0.2710202384544829  0.4866502984590327  0.1023882611052045  1.0000
  C   C72       1.0  0.1674316834144136  0.0136760502798055  0.8977322847933423  1.0000
  Se  Se1       1.0  0.9318272164304631  0.1480047807816902  0.956794954491272  1.0000
  Se  Se2       1.0  0.9806419078645021  0.3522046992040657  0.04544750826408973  1.0000
  Se  Se3       1.0  0.0663970227639936  0.852421862308347  0.04388369208950139  1.0000
  Se  Se4       1.0  0.022140811416754495  0.6477915336648438  0.9563176608969285  1.0000
  O   O1        1.0  0.0373328501243009  0.5985610970841649  0.5945793333230895  1.0000
  O   O2        1.0  0.4429164221850145  0.9014173839189541  0.4054988659257718  1.0000
  O   O3        1.0  0.9625312405076442  0.40153454774712577  0.4052882514031352  1.0000
  O   O4        1.0  0.5570806765867573  0.09882418175913442  0.5946753944326133  1.0000
  O   O5        1.0  0.8799810401151474  0.6142013931390339  0.5018097999108591  1.0000
  O   O6        1.0  0.37814898963708987  0.8858179261449308  0.4983399237624153  1.0000
  O   O7        1.0  0.11993812203815682  0.38591444946251846  0.49802677460067457  1.0000
  O   O8        1.0  0.621804085911542  0.1144760907467273  0.5018191699678738  1.0000
  O   O9        1.0  0.6582627613063822  0.9216633141142196  0.4956453644344663  1.0000
  O   O10       1.0  0.162355760347566  0.5786073317400735  0.5042990659236324  1.0000
  O   O11       1.0  0.3417063476757106  0.07859997909230292  0.5043258642132642  1.0000
  O   O12       1.0  0.8375528859389404  0.42147526319956097  0.495644073867183  1.0000
  O   O13       1.0  0.5954522804639524  0.9104062216495379  0.5897960354437045  1.0000
  O   O14       1.0  0.005820199827724099  0.5897781683930106  0.4101021367625606  1.0000
  O   O15       1.0  0.4044460817657978  0.08974917506425578  0.41014701402980336  1.0000
  O   O16       1.0  0.994217238738443  0.4103287137164955  0.5897765960601333  1.0000
  O   O17       1.0  0.9316525483737051  0.9053282318451963  0.7929075003285603  1.0000
  O   O18       1.0  0.13960545942684627  0.5948976170371694  0.20724937703803895  1.0000
  O   O19       1.0  0.0676455385495558  0.09407761265550363  0.2072977162708298  1.0000
  O   O20       1.0  0.8580228713679717  0.4072802288038915  0.7925101307103404  1.0000
  O   O21       1.0  0.059786025116764584  0.7871368083272401  0.8068260864810952  1.0000
  O   O22       1.0  0.25300315327633877  0.7133468081060953  0.19295681903852108  1.0000
  O   O23       1.0  0.9410035665328281  0.213482297723921  0.19257284165418304  1.0000
  O   O24       1.0  0.7550717984334554  0.2829727535034507  0.8089692640584475  1.0000
  O   O25       1.0  0.6644155720544305  0.9345526047551261  0.9056429885925327  1.0000
  O   O26       1.0  0.7589178677107212  0.5655701685074063  0.09256146151483335  1.0000
  O   O27       1.0  0.3341466277468754  0.06575761908976571  0.0918032937328448  1.0000
  O   O28       1.0  0.24122599490907953  0.4341943696997533  0.9087850110033385  1.0000
  O   O29       1.0  0.8056612148198423  0.8587030747947823  0.8764231483085821  1.0000
  O   O30       1.0  0.9296600125113131  0.6408648179190238  0.12417490073940486  1.0000
  O   O31       1.0  0.1960837266236553  0.140389964883596  0.1250803577062243  1.0000
  O   O32       1.0  0.0695400214941628  0.36050431944948974  0.8732060349881081  1.0000
  O   O33       1.0  0.33170187320451566  0.601588991143082  0.9016824547595873  1.0000
  O   O34       1.0  0.4304497463364711  0.8984290234143373  0.09828486976602588  1.0000
  O   O35       1.0  0.6682023879260869  0.3983343648140902  0.09773750461974369  1.0000
  O   O36       1.0  0.5671906984250441  0.10317542098779602  0.898070586342392  1.0000
  O   O37       1.0  0.3319463599454764  0.7613287227735912  0.9156429562496909  1.0000
  O   O38       1.0  0.4169258664827852  0.7386894422548949  0.08436975523544278  1.0000
  O   O39       1.0  0.6682932532299118  0.2385279323826026  0.08435045259672337  1.0000
  O   O40       1.0  0.5807369523346111  0.26248625647262  0.9154746434060711  1.0000
  O   O41       1.0  0.680029187575549  0.4344567180396197  0.8992353167096638  1.0000
  O   O42       1.0  0.7807378519053431  0.0645176145319653  0.0978453936335413  1.0000
  O   O43       1.0  0.3182205272098528  0.5645362469590438  0.0980537118906355  1.0000
  O   O44       1.0  0.21912181216703167  0.935838205554518  0.9019521635338136  1.0000
  O   O45       1.0  0.8294283694644236  0.5253494266267609  0.8950182932775022  1.0000
  O   O46       1.0  0.9362282758473626  0.9732693133900341  0.10708022014495101  1.0000
  O   O47       1.0  0.1715649721925772  0.4737271940519037  0.10702257661549909  1.0000
  O   O48       1.0  0.06340993252212002  0.0267494665192274  0.8930399187721889  1.0000
  O   O49       1.0  0.8827370458069979  0.0296105577981933  0.9462825183209063  1.0000
  O   O50       1.0  0.9388945319496359  0.4704531580827833  0.05485595231688477  1.0000
  O   O51       1.0  0.116837228939886  0.9705064838024384  0.05412686198378939  1.0000
  O   O52       1.0  0.0622347649814543  0.5297720384085736  0.9458706971313192  1.0000
  O   O53       1.0  0.7873857457776481  0.18217413246840408  0.9348289867704905  1.0000
  O   O54       1.0  0.8609887849471602  0.3191537441895349  0.07198780758098877  1.0000
  O   O55       1.0  0.21203625447358124  0.8192584237901955  0.07281289817149882  1.0000
  O   O56       1.0  0.1382502828332974  0.6810116957350303  0.9267616255082699  1.0000
  O   O57       1.0  0.9653704221137218  0.16155646711759894  0.043787898225062245  1.0000
  O   O58       1.0  0.9282966665062561  0.33699774097712515  0.9591710390709165  1.0000
  O   O59       1.0  0.03778463697427981  0.8374128754865994  0.9573555838090755  1.0000
  O   O60       1.0  0.0806654312069668  0.6631068721004709  0.04276821370405769  1.0000
