data_image0
_chemical_formula_structural       Zr6H56C88S10O62
_chemical_formula_sum              "Zr6 H56 C88 S10 O62"
_cell_length_a       19.028158689828565
_cell_length_b       19.021491791640464
_cell_length_c       19.09757575811198
_cell_angle_alpha    59.72039637575558
_cell_angle_beta     59.85598462611359
_cell_angle_gamma    60.25472348224339

_space_group_name_H-M_alt    "P 1"
_space_group_IT_number       1

loop_
  _space_group_symop_operation_xyz
  'x, y, z'

loop_
  _atom_site_type_symbol
  _atom_site_label
  _atom_site_symmetry_multiplicity
  _atom_site_fract_x
  _atom_site_fract_y
  _atom_site_fract_z
  _atom_site_occupancy
  Zr  Zr1       1.0  0.9041194165094099  0.4108728423420371  0.5899408875280514  1.0000
  Zr  Zr2       1.0  0.09508002132805868  0.590509063358141  0.41038783579926263  1.0000
  Zr  Zr3       1.0  0.08894107206043599  0.4043176114006639  0.5968722471472604  1.0000
  Zr  Zr4       1.0  0.9098682465816595  0.5973898448437751  0.40378536457082953  1.0000
  Zr  Zr5       1.0  0.9075423904683502  0.5927009947819358  0.5922008349530117  1.0000
  Zr  Zr6       1.0  0.09151113346229067  0.40879440571393394  0.408285110638758  1.0000
  H   H1        1.0  0.9218298202954571  0.426690055076655  0.7187519233568764  1.0000
  H   H2        1.0  0.9326888056056077  0.7193011283026394  0.42618005850916046  1.0000
  H   H3        1.0  0.21733491707805533  0.42441548294336673  0.4314164655580797  1.0000
  H   H4        1.0  0.9269303506955923  0.4319015014711311  0.4238431821336662  1.0000
  H   H5        1.0  0.464423040336186  0.6052532467914916  0.04636249669604815  1.0000
  H   H6        1.0  0.5394399421125654  0.3921251947717081  0.957538764574892  1.0000
  H   H7        1.0  0.6488959548396238  0.6394624466603174  0.7803912427706269  1.0000
  H   H8        1.0  0.5121477689228727  0.6528998774185694  0.9014317746094422  1.0000
  H   H9        1.0  0.2816763516828543  0.4326440903629559  0.15225017176524597  1.0000
  H   H10       1.0  0.397394772359675  0.4413689999739177  0.011649129933530773  1.0000
  H   H11       1.0  0.11101157422933038  0.9580365407146658  0.3916369867826719  1.0000
  H   H12       1.0  0.8840621350421145  0.04692937621194195  0.6046335891042176  1.0000
  H   H13       1.0  0.13359168974380953  0.15267141646933166  0.43237379420954625  1.0000
  H   H14       1.0  0.14978818781213477  0.012067080465847417  0.4410430857412067  1.0000
  H   H15       1.0  0.9313024360141426  0.7809483984651281  0.6389524119216503  1.0000
  H   H16       1.0  0.9336259689132402  0.9019623305389359  0.6523913272769662  1.0000
  H   H17       1.0  0.4633061266135599  0.05201538887933299  0.3811661804251401  1.0000
  H   H18       1.0  0.5522456115610339  0.9652884712104565  0.59991889829287  1.0000
  H   H19       1.0  0.6611567472527329  0.792181991106517  0.4195359562419372  1.0000
  H   H20       1.0  0.5231582905692063  0.9113286457727201  0.42327950019283395  1.0000
  H   H21       1.0  0.2885344039332125  0.14953645049925512  0.6328158711163355  1.0000
  H   H22       1.0  0.4114626891996024  0.014845303373832096  0.6429314494298027  1.0000
  H   H23       1.0  0.8824407068410877  0.6002018653141904  0.9649576162959266  1.0000
  H   H24       1.0  0.10357369916315663  0.38156208125080576  0.051559030027078664  1.0000
  H   H25       1.0  0.9291191792347036  0.6332882481902685  0.1489672278322231  1.0000
  H   H26       1.0  0.9306786359281672  0.6432498357242907  0.01438738723928864  1.0000
  H   H27       1.0  0.12697337949003185  0.4199071942400677  0.7917617765441848  1.0000
  H   H28       1.0  0.14212496610864622  0.4236025578477437  0.9109085027500471  1.0000
  H   H29       1.0  0.8884586263595224  0.8241627511851418  0.18804890356699377  1.0000
  H   H30       1.0  0.13848254900953796  0.8066528742562654  0.15252511213076056  1.0000
  H   H31       1.0  0.09915317025373574  0.18857678141340262  0.823792411581188  1.0000
  H   H32       1.0  0.9022333718032698  0.1531659302241407  0.8060377100723245  1.0000
  H   H33       1.0  0.8205174799601452  0.022116669186296192  0.07052127348802631  1.0000
  H   H34       1.0  0.8270397489328829  0.9258205437071042  0.07137452494305319  1.0000
  H   H35       1.0  0.19825235470185737  0.9220088350785357  0.9502164756223196  1.0000
  H   H36       1.0  0.19434286484894153  0.92504630418118  0.04322369428748373  1.0000
  H   H37       1.0  0.08662179103741607  0.0709649657762412  0.021729563070373086  1.0000
  H   H38       1.0  0.17548736699932724  0.07200905743376045  0.9253687526089113  1.0000
  H   H39       1.0  0.9293316223979745  0.9508888926142588  0.9213579921317392  1.0000
  H   H40       1.0  0.8371562806599043  0.04383887619788843  0.9245376578187461  1.0000
  H   H41       1.0  0.45984108384024575  0.38854081978562505  0.6115923098458043  1.0000
  H   H42       1.0  0.5400256764633086  0.6119470610827521  0.38809270390445516  1.0000
  H   H43       1.0  0.6502266693148897  0.4382713772920114  0.6325201620116446  1.0000
  H   H44       1.0  0.5108489362033737  0.44169515481294047  0.6516909733668542  1.0000
  H   H45       1.0  0.2789410725443558  0.6330675637796334  0.4379057335023688  1.0000
  H   H46       1.0  0.3957842450670197  0.6521388471303026  0.44132670323491413  1.0000
  H   H47       1.0  0.2937558408487958  0.5780187163268239  0.33347819346907676  1.0000
  H   H48       1.0  0.8228632103748551  0.3004126008001293  0.7848153823434602  1.0000
  H   H49       1.0  0.09189757348600114  0.7853816076291409  0.29992779694887167  1.0000
  H   H50       1.0  0.7948094975809568  0.3339606300203002  0.5774922826033375  1.0000
  H   H51       1.0  0.2867570851502848  0.33253900186247876  0.2962505586284295  1.0000
  H   H52       1.0  0.8330588994614486  0.7880605656400449  0.5845027873245101  1.0000
  H   H53       1.0  0.7943322888503555  0.5849678054891855  0.7875586855932895  1.0000
  H   H54       1.0  0.0846116140421458  0.29668988635565796  0.3320014726583481  1.0000
  H   H55       1.0  0.2901020069090237  0.3029416029614182  0.5823716143588699  1.0000
  H   H56       1.0  0.8245932231806845  0.5828340135557324  0.3023832898850855  1.0000
  C   C1        1.0  0.7554955132704817  0.5062248834180352  0.7284633451952017  1.0000
  C   C2        1.0  0.00981526660956413  0.7290324070739373  0.5057059148676046  1.0000
  C   C3        1.0  0.23522787125764913  0.504118569432606  0.2628618732039599  1.0000
  C   C4        1.0  0.997889421294076  0.2633689934806184  0.5036186875795962  1.0000
  C   C5        1.0  0.9951351361667164  0.26004229861996464  0.7339178619357726  1.0000
  C   C6        1.0  0.7595266055390085  0.5120785116176734  0.49565140240465416  1.0000
  C   C7        1.0  0.010878782262160953  0.7344283486190121  0.2594849848233167  1.0000
  C   C8        1.0  0.23265949279431913  0.4962324308545334  0.5116437808493048  1.0000
  C   C9        1.0  0.9975053016259352  0.5033513107015749  0.7344134700952551  1.0000
  C   C10       1.0  0.2307662354825338  0.25835699408985136  0.5037598562335718  1.0000
  C   C11       1.0  0.007205169369207375  0.5043097065834701  0.2577737877037549  1.0000
  C   C12       1.0  0.7646338547559707  0.7348908262950857  0.5028866279646139  1.0000
  C   C13       1.0  0.30570917039361223  0.5147232263614756  0.17878093807837567  1.0000
  C   C14       1.0  0.6715955439694807  0.5093337741420357  0.7993461155304402  1.0000
  C   C15       1.0  0.3566728525562155  0.5662242759155873  0.14632622387261318  1.0000
  C   C16       1.0  0.423187988220448  0.5691476345992683  0.06768406358206394  1.0000
  C   C17       1.0  0.6377712301850379  0.44025019809153326  0.8485624490720627  1.0000
  C   C18       1.0  0.5614395644627662  0.44782650919881223  0.9178019814684151  1.0000
  C   C19       1.0  0.6241288185693037  0.5854524458830354  0.8195103612402407  1.0000
  C   C20       1.0  0.5471818058742668  0.5927865369339785  0.8878574088672836  1.0000
  C   C21       1.0  0.3218778768202455  0.4708210344733175  0.12840777528694497  1.0000
  C   C22       1.0  0.38723821196195735  0.4757094911355749  0.049247913083746576  1.0000
  C   C23       1.0  0.4400986148103243  0.5237155541688028  0.01848431286060758  1.0000
  C   C24       1.0  0.5158001549622566  0.5229634266510459  0.9394657699470558  1.0000
  C   C25       1.0  0.019729558288226208  0.7999107554781942  0.5088129761483913  1.0000
  C   C26       1.0  0.0009267048089255372  0.17923205317327975  0.5143182625110257  1.0000
  C   C27       1.0  0.07344779345741864  0.8491064346890127  0.4397368998851618  1.0000
  C   C28       1.0  0.0730160501944466  0.9183139874159779  0.44732726323577776  1.0000
  C   C29       1.0  0.9308989106155819  0.14681502088010479  0.5657702807263619  1.0000
  C   C30       1.0  0.9400875985874181  0.06823297421180292  0.5685904143412089  1.0000
  C   C31       1.0  0.07905150746715614  0.12883590714323387  0.4704795046528575  1.0000
  C   C32       1.0  0.087979286878209  0.04968624012126099  0.47532453528837953  1.0000
  C   C33       1.0  0.9709496541061569  0.8200599750375799  0.5849351275814811  1.0000
  C   C34       1.0  0.9722584415568319  0.8883855190414423  0.5922739885819225  1.0000
  C   C35       1.0  0.021854666077743345  0.9399973527444486  0.5224569857757757  1.0000
  C   C36       1.0  0.01782838202275617  0.01900015543937165  0.5232067616886698  1.0000
  C   C37       1.0  0.3044116166340486  0.17668908917725187  0.5032251015705571  1.0000
  C   C38       1.0  0.6829720319518912  0.8085597068147763  0.5096006296222414  1.0000
  C   C39       1.0  0.35365062740130776  0.14612375924834703  0.43264371988696854  1.0000
  C   C40       1.0  0.4243832737712481  0.07128436359314341  0.4379547777692282  1.0000
  C   C41       1.0  0.6499653846071142  0.8574204839000712  0.5625013607302236  1.0000
  C   C42       1.0  0.573644329902052  0.9262907503661069  0.5620647832711895  1.0000
  C   C43       1.0  0.6358530126729606  0.8302847064635516  0.45971064243256177  1.0000
  C   C44       1.0  0.5586079312385762  0.8977588066924652  0.4615609948312383  1.0000
  C   C45       1.0  0.3272179888147519  0.12712152561986292  0.577970318655659  1.0000
  C   C46       1.0  0.3967446610923487  0.051578140243847714  0.5832888604348768  1.0000
  C   C47       1.0  0.4478872985338568  0.02325707885535168  0.5122093307563846  1.0000
  C   C48       1.0  0.5266426928839961  0.9476101495272928  0.5123433288939695  1.0000
  C   C49       1.0  0.9987147395770747  0.5099764435238966  0.8081794328482631  1.0000
  C   C50       1.0  0.015752520346573838  0.5037271508397367  0.17614085081930142  1.0000
  C   C51       1.0  0.9299736423943941  0.5628603109647514  0.8570602376484189  1.0000
  C   C52       1.0  0.9378745359258858  0.5623697452411704  0.9259434052575842  1.0000
  C   C53       1.0  0.06766781237426042  0.4331292061498998  0.14559729144719566  1.0000
  C   C54       1.0  0.06641302373867569  0.43835815513780574  0.07081446872540909  1.0000
  C   C55       1.0  0.9677056887008034  0.5784171913419626  0.1265939430994578  1.0000
  C   C56       1.0  0.968333852475176  0.5836460277321011  0.05112073318238702  1.0000
  C   C57       1.0  0.07399341641859533  0.4600393744520942  0.8299134463520377  1.0000
  C   C58       1.0  0.08194607918347423  0.46187340027636026  0.8973789449102157  1.0000
  C   C59       1.0  0.013288636472360458  0.5126433827833452  0.9472436277899592  1.0000
  C   C60       1.0  0.016593026458743224  0.5125390357683414  0.022834457067226314  1.0000
  C   C61       1.0  0.8641142483924755  0.9683807322004302  0.045204612638514094  1.0000
  C   C62       1.0  0.15556694744962846  0.9472589246045828  0.0041130617297823755  1.0000
  C   C63       1.0  0.1220711874252201  0.045758601990243584  0.9679227479851705  1.0000
  C   C64       1.0  0.8928685809859261  0.004726837197814723  0.9466877013411976  1.0000
  C   C65       1.0  0.9422180291588589  0.8491721752506364  0.1502769014114307  1.0000
  C   C66       1.0  0.9400268571154057  0.9210865389197596  0.07605162717251791  1.0000
  C   C67       1.0  0.08296053195277876  0.8395411594959227  0.13135405346235268  1.0000
  C   C68       1.0  0.08198608246591739  0.9115924981282575  0.056851145769556334  1.0000
  C   C69       1.0  0.05812795058166402  0.1508462981176421  0.8487601444483489  1.0000
  C   C70       1.0  0.06259019825295545  0.07660896296486192  0.920646574730661  1.0000
  C   C71       1.0  0.9460008118839054  0.1319716528722168  0.8389684872532186  1.0000
  C   C72       1.0  0.9493558889452985  0.05748191234067679  0.9110390984656576  1.0000
  C   C73       1.0  0.012871036788737848  0.8086629857241974  0.17868646269521093  1.0000
  C   C74       1.0  0.010181866272766557  0.9527808949327793  0.02930151238614796  1.0000
  C   C75       1.0  0.9996346890141578  0.17927991222432368  0.8081765271230311  1.0000
  C   C76       1.0  0.007510546414856403  0.02988052549701326  0.9522627939011132  1.0000
  C   C77       1.0  0.3017143361623412  0.5012084455958927  0.5227638600241351  1.0000
  C   C78       1.0  0.6743793795906472  0.5231498867262658  0.5006689083295014  1.0000
  C   C79       1.0  0.3517837058693233  0.4329723559307083  0.5749737543869742  1.0000
  C   C80       1.0  0.41908841360329047  0.44358842243515534  0.5750793911204825  1.0000
  C   C81       1.0  0.640305072387797  0.5753383588618418  0.4324640619597063  1.0000
  C   C82       1.0  0.5622655136293844  0.5754429162924097  0.4431269579241359  1.0000
  C   C83       1.0  0.6253815108891132  0.47668044681966365  0.5791325614174881  1.0000
  C   C84       1.0  0.5468676096252877  0.4785513382292664  0.5896890309384945  1.0000
  C   C85       1.0  0.31875245379512035  0.5796557553676962  0.47631651856423946  1.0000
  C   C86       1.0  0.3848635108370857  0.5901614495809966  0.4781871897231511  1.0000
  C   C87       1.0  0.4377567180353878  0.5212659567241217  0.5258285061481232  1.0000
  C   C88       1.0  0.5151757074696519  0.5261962831481597  0.5208379077826565  1.0000
  S   S1        1.0  0.34549447799550137  0.63458130324954  0.19401426939818112  1.0000
  S   S2        1.0  0.681997128779571  0.3379814951868808  0.8329754938967258  1.0000
  S   S3        1.0  0.1470445725776628  0.8335687001706162  0.33744991284671505  1.0000
  S   S4        1.0  0.8260094744104762  0.19449351545211604  0.63413777942246  1.0000
  S   S5        1.0  0.33605287455360855  0.19205849405192052  0.33103817134933433  1.0000
  S   S6        1.0  0.6934680544247273  0.8407923754249609  0.6372565417136755  1.0000
  S   S7        1.0  0.8284008163094257  0.6376698932417353  0.8403875606139978  1.0000
  S   S8        1.0  0.14100238915548144  0.33157841091971824  0.1915174705553682  1.0000
  S   S9        1.0  0.3399463591568903  0.3278125173001811  0.6449273394219617  1.0000
  S   S10       1.0  0.6873273847835862  0.6453246570927504  0.32729835587792167  1.0000
  O   O1        1.0  0.7889673094633237  0.44887688964676914  0.694638945393379  1.0000
  O   O2        1.0  0.0675101954850705  0.6952015800736431  0.4483555326972494  1.0000
  O   O3        1.0  0.20362574618223322  0.5596291254997253  0.2983344963278398  1.0000
  O   O4        1.0  0.9384521636768355  0.2988780930831184  0.5590821200644317  1.0000
  O   O5        1.0  0.055582831438336144  0.29145276804087666  0.700218116000464  1.0000
  O   O6        1.0  0.7961245441141144  0.5677929412931918  0.4358535016042565  1.0000
  O   O7        1.0  0.9527143897950836  0.700734210393179  0.2909374866052588  1.0000
  O   O8        1.0  0.20013611837013195  0.43643912249778083  0.567351180418335  1.0000
  O   O9        1.0  0.9381700685697114  0.5609311033875314  0.7024663450421119  1.0000
  O   O10       1.0  0.19723080481789879  0.29362117663426807  0.445723686321621  1.0000
  O   O11       1.0  0.06351306082731874  0.4462880964163674  0.29304778101747797  1.0000
  O   O12       1.0  0.7984051338927429  0.7030001300993619  0.5604055591226712  1.0000
  O   O13       1.0  0.20538032760969574  0.2891736035933192  0.5622461050481462  1.0000
  O   O14       1.0  0.9432814595777331  0.5627859696992985  0.2885972495269299  1.0000
  O   O15       1.0  0.7961931931596807  0.7075746691027192  0.44084524509943174  1.0000
  O   O16       1.0  0.05531490159625461  0.4413114664453984  0.7071034486041868  1.0000
  O   O17       1.0  0.9308172012396128  0.296370033689385  0.706921938588124  1.0000
  O   O18       1.0  0.20956168462142682  0.5529477459993971  0.4456812005503751  1.0000
  O   O19       1.0  0.06586119481843854  0.7074722017658316  0.29580516056680745  1.0000
  O   O20       1.0  0.7918978293157863  0.4461210460216447  0.5523553164721593  1.0000
  O   O21       1.0  0.05577357833168858  0.2962044881263637  0.4389554178991588  1.0000
  O   O22       1.0  0.7904075633162223  0.5612653023907298  0.70519635528818  1.0000
  O   O23       1.0  0.943147586656984  0.7057444661181691  0.5607542616771823  1.0000
  O   O24       1.0  0.2091287669530786  0.4394805194370903  0.2956919449834744  1.0000
  O   O25       1.0  0.9477051168279972  0.45227017918031004  0.44498284356325263  1.0000
  O   O26       1.0  0.1550519122102826  0.4455820380084318  0.45174885485497646  1.0000
  O   O27       1.0  0.9515214871455697  0.6568945613666983  0.44741766795394267  1.0000
  O   O28       1.0  0.9441731717415677  0.44793760343745953  0.6563482648501734  1.0000
  O   O29       1.0  0.038727542882405284  0.5366158980322595  0.5411667741806171  1.0000
  O   O30       1.0  0.8835165451044275  0.5416792850483033  0.5360579121902731  1.0000
  O   O31       1.0  0.0408492301563114  0.5399231772538542  0.383549116500575  1.0000
  O   O32       1.0  0.03572257107025932  0.38407908458376017  0.539364284221108  1.0000
  O   O33       1.0  0.3508885448990852  0.5711670924537698  0.28768247329424673  1.0000
  O   O34       1.0  0.42272632487725303  0.6568725810609448  0.14802141653270703  1.0000
  O   O35       1.0  0.263081061908494  0.7011502743290521  0.1992512936390725  1.0000
  O   O36       1.0  0.7746505994234313  0.2976646295893772  0.8408635237127843  1.0000
  O   O37       1.0  0.6335608750001426  0.28476560814583257  0.9077250980074681  1.0000
  O   O38       1.0  0.6874404018932978  0.3531102169958231  0.748779053914383  1.0000
  O   O39       1.0  0.08680925393034036  0.8414389792704994  0.29715285368669697  1.0000
  O   O40       1.0  0.17390110153289132  0.9083524536180433  0.2842579851405631  1.0000
  O   O41       1.0  0.21070218795667014  0.749386123296226  0.35251342044055894  1.0000
  O   O42       1.0  0.7903070720133487  0.2881231556079058  0.5707178338598952  1.0000
  O   O43       1.0  0.7725059533804242  0.14845239765000426  0.6564681407946865  1.0000
  O   O44       1.0  0.8366030831079667  0.19979128903592888  0.7006791440086317  1.0000
  O   O45       1.0  0.3431700566949659  0.28554061598406116  0.29103518854752514  1.0000
  O   O46       1.0  0.41025377087477455  0.145710421664539  0.2768491089294827  1.0000
  O   O47       1.0  0.25182318516539937  0.19591199058075404  0.3475248987549266  1.0000
  O   O48       1.0  0.7881517759044737  0.8456314153999356  0.5794304272667644  1.0000
  O   O49       1.0  0.6473162003622472  0.9163620949712624  0.6613701832050226  1.0000
  O   O50       1.0  0.694834420754937  0.757310258976318  0.702644197157916  1.0000
  O   O51       1.0  0.7867241101960758  0.5798680704112159  0.8451500275973275  1.0000
  O   O52       1.0  0.774855154072469  0.6617665524001592  0.9159702930033192  1.0000
  O   O53       1.0  0.8451749788681014  0.7030711383597816  0.7569243312954798  1.0000
  O   O54       1.0  0.08041273299370026  0.2915102435570276  0.28498017111625984  1.0000
  O   O55       1.0  0.16747731243859923  0.27739910970390014  0.14510273501597476  1.0000
  O   O56       1.0  0.20480329148023918  0.34811782823876297  0.1954558508558719  1.0000
  O   O57       1.0  0.3473268664486397  0.2895738680875368  0.5827309111185173  1.0000
  O   O58       1.0  0.41610052859517305  0.27528701726598814  0.6681089262128097  1.0000
  O   O59       1.0  0.25655559040028203  0.33690941509706107  0.7110117871688076  1.0000
  O   O60       1.0  0.7803948818411186  0.5831932864311045  0.28899122242135195  1.0000
  O   O61       1.0  0.6404909663598346  0.6684865310292452  0.27479988177410775  1.0000
  O   O62       1.0  0.6954987488440806  0.7114242979701331  0.3364095280890566  1.0000
