data_image0
_chemical_formula_structural       Cu2P2H40C48I2N2
_chemical_formula_sum              "Cu2 P2 H40 C48 I2 N2"
_cell_length_a       9.409001139606959
_cell_length_b       10.021649040747446
_cell_length_c       12.416333092149259
_cell_angle_alpha    105.36277907088844
_cell_angle_beta     108.63843151015335
_cell_angle_gamma    97.46687510146583

_space_group_name_H-M_alt    "P 1"
_space_group_IT_number       1

loop_
  _space_group_symop_operation_xyz
  'x, y, z'

loop_
  _atom_site_type_symbol
  _atom_site_label
  _atom_site_symmetry_multiplicity
  _atom_site_fract_x
  _atom_site_fract_y
  _atom_site_fract_z
  _atom_site_occupancy
  Cu  Cu1       1.0  0.36115126811139925  0.46918454125246006  0.40668532047474326  1.0000
  Cu  Cu2       1.0  0.638848302383927  0.5308152691856306  0.5933154247100989  1.0000
  P   P1        1.0  0.24524207404625287  0.2800775720864905  0.24433020165801622  1.0000
  P   P2        1.0  0.7547586197836224  0.7199222451334818  0.7556708142798811  1.0000
  H   H1        1.0  0.3309551993727808  0.7051351985839672  0.3100224443918194  1.0000
  H   H2        1.0  0.6690429681475435  0.294863523325148  0.6899753191922144  1.0000
  H   H3        1.0  0.2086697507439297  0.9111395636734584  0.3285119788965786  1.0000
  H   H4        1.0  0.7913311911983172  0.08886130093157618  0.671486900658664  1.0000
  H   H5        1.0  0.011602767589089184  0.7569606224563401  0.5565725726698363  1.0000
  H   H6        1.0  0.9883945457277786  0.24303916296396005  0.4434260152654304  1.0000
  H   H7        1.0  0.14405138906922588  0.5600039419228081  0.5293385566049836  1.0000
  H   H8        1.0  0.8559445317820006  0.4399947664225294  0.4706586654729393  1.0000
  H   H9        1.0  0.0704972385750438  0.055029152319654905  0.4191210773000409  1.0000
  H   H10       1.0  0.9295039724982885  0.9449727825784535  0.5808788973594831  1.0000
  H   H11       1.0  0.013344099429318126  0.4367111374627655  0.25119601962502713  1.0000
  H   H12       1.0  0.9866560666477394  0.5632865506250723  0.7488044218477725  1.0000
  H   H13       1.0  0.7382498720833296  0.3734866344792991  0.22302216690629714  1.0000
  H   H14       1.0  0.2617500301173194  0.626509989042468  0.7769779873339432  1.0000
  H   H15       1.0  0.608301429235176  0.11993903898252967  0.17778934516955056  1.0000
  H   H16       1.0  0.39169509245246553  0.8800575527395651  0.8222083810680588  1.0000
  H   H17       1.0  0.7580141134209057  0.9330792317476194  0.16251554303047994  1.0000
  H   H18       1.0  0.24198576250633153  0.06691736313911181  0.8374805718510674  1.0000
  H   H19       1.0  0.031710873891640325  0.9955506368437098  0.18725778077259045  1.0000
  H   H20       1.0  0.9682878839557316  0.004445956988149603  0.8127388712276443  1.0000
  H   H21       1.0  0.47588262124652647  0.20705523580716803  0.42267018357080843  1.0000
  H   H22       1.0  0.5241194440302621  0.7929456355797484  0.5773289667374827  1.0000
  H   H23       1.0  0.5943754337586995  0.9974256135784502  0.41563053666986605  1.0000
  H   H24       1.0  0.4056255239475846  0.002575268207593202  0.584370766500591  1.0000
  H   H25       1.0  0.5126648705462528  0.7970958488477959  0.2255668477155054  1.0000
  H   H26       1.0  0.4873364241200305  0.20290185174893338  0.7744346723820785  1.0000
  H   H27       1.0  0.3082039794901803  0.803633264873305  0.04013404818010711  1.0000
  H   H28       1.0  0.6917981015506526  0.1963676236946341  0.9598675257433983  1.0000
  H   H29       1.0  0.19005020330353517  0.010513417684684596  0.04735147060721091  1.0000
  H   H30       1.0  0.8099527266860705  0.9894864016450595  0.9526484710933191  1.0000
  H   H31       1.0  0.4796057948562762  0.318409480913239  0.14697978282561056  1.0000
  H   H32       1.0  0.5203929056715494  0.6815913758550208  0.853019363095264  1.0000
  H   H33       1.0  0.4838892284941352  0.35995441467171924  0.9599755151839207  1.0000
  H   H34       1.0  0.5161086125755573  0.6400474998807225  0.040023647216450776  1.0000
  H   H35       1.0  0.2434310954396608  0.3755173168478906  0.8084348929575216  1.0000
  H   H36       1.0  0.7565633861357455  0.6244845888128977  0.191565072927169  1.0000
  H   H37       1.0  0.9990370056558289  0.35351809931750466  0.8488531293020004  1.0000
  H   H38       1.0  0.0009605873014991781  0.6464827678498893  0.15114816948103996  1.0000
  H   H39       1.0  0.9931183612406612  0.3068593302378204  0.032797191627722114  1.0000
  H   H40       1.0  0.006881478385757621  0.6931415504933439  0.967204648661415  1.0000
  C   C1        1.0  0.25785357796818426  0.7204053032559086  0.36270060441747637  1.0000
  C   C2        1.0  0.7421477009340548  0.27959238015979787  0.6372984920648934  1.0000
  C   C3        1.0  0.18926525675087186  0.8349225413323039  0.37358474282134324  1.0000
  C   C4        1.0  0.8107345671115096  0.16507832221784466  0.6264146738525797  1.0000
  C   C5        1.0  0.10060536798820868  0.8554867225554832  0.44631628941427  1.0000
  C   C6        1.0  0.8993960964521788  0.1445162654546834  0.5536823567343349  1.0000
  C   C7        1.0  0.08038628354244542  0.7509360642450955  0.5003462984445478  1.0000
  C   C8        1.0  0.9196126650977517  0.24906583990821216  0.49965071109365783  1.0000
  C   C9        1.0  0.153191953053593  0.63968837073741  0.48513267972929  1.0000
  C   C10       1.0  0.8468053550085911  0.36031140895588004  0.5148651003342409  1.0000
  C   C11       1.0  0.04152510387714159  0.982682029171343  0.4650016544708394  1.0000
  C   C12       1.0  0.9584758328104213  0.0173188297066815  0.5349964172126604  1.0000
  C   C13       1.0  0.0422084991277387  0.22066256327931907  0.22043566849643534  1.0000
  C   C14       1.0  0.9577913978182266  0.7793340545154379  0.7795636778720694  1.0000
  C   C15       1.0  0.9569383628076622  0.32591238241782605  0.2301329774452725  1.0000
  C   C16       1.0  0.043062921349260846  0.6740853067248906  0.769866926908833  1.0000
  C   C17       1.0  0.8015693804295835  0.28989082692498863  0.21369701516086081  1.0000
  C   C18       1.0  0.1984305217710585  0.7101057965967783  0.7863031390793793  1.0000
  C   C19       1.0  0.7292863093191568  0.14840729635072591  0.18942299770776563  1.0000
  C   C20       1.0  0.27071359813616885  0.851589332898044  0.8105779644042103  1.0000
  C   C21       1.0  0.8133241826438179  0.0436431525794418  0.1813712404974694  1.0000
  C   C22       1.0  0.18667543466168718  0.9563523834682284  0.8186253950232684  1.0000
  C   C23       1.0  0.96863319562231  0.0791663509901639  0.1959603808217311  1.0000
  C   C24       1.0  0.03136668555960409  0.9208302496235773  0.8040365419315594  1.0000
  C   C25       1.0  0.3243892910802585  0.12194684195513615  0.23616735885000403  1.0000
  C   C26       1.0  0.6756125313388494  0.878052987773735  0.763834735712692  1.0000
  C   C27       1.0  0.4394783826367926  0.117878330185043  0.33939664168627104  1.0000
  C   C28       1.0  0.5605248164839052  0.8821225594377748  0.6606043951185471  1.0000
  C   C29       1.0  0.5059036110721634  0.0006726626943844997  0.33511348279350983  1.0000
  C   C30       1.0  0.49409873384508507  0.9993292904396253  0.6648883783625478  1.0000
  C   C31       1.0  0.45927500136782834  0.8876241620540527  0.22781951731136738  1.0000
  C   C32       1.0  0.5407259615931395  0.11237672545900068  0.7721825937308255  1.0000
  C   C33       1.0  0.3446906166802819  0.890949753055921  0.1245887702101386  1.0000
  C   C34       1.0  0.6553117177275993  0.10905218862406939  0.875411475202448  1.0000
  C   C35       1.0  0.2774029096991625  0.007480374548329399  0.12861394133746273  1.0000
  C   C36       1.0  0.7225994299634022  0.9925215728586704  0.8713871119468523  1.0000
  C   C37       1.0  0.23585950170049583  0.3078827817111928  0.10245699253707127  1.0000
  C   C38       1.0  0.7641403326712463  0.6921180932929686  0.8975440398803302  1.0000
  C   C39       1.0  0.3739546906253324  0.3245695210880015  0.08087965475225904  1.0000
  C   C40       1.0  0.6260442790335857  0.6754324059733391  0.9191205862729108  1.0000
  C   C41       1.0  0.3761581708086013  0.3482173985344517  0.9757489462606302  1.0000
  C   C42       1.0  0.6238408041050006  0.6517845342538989  0.024252102636268015  1.0000
  C   C43       1.0  0.24138143804341183  0.35836139708640496  0.8912319425277745  1.0000
  C   C44       1.0  0.758616677412057  0.6416415934861205  0.10876912284862776  1.0000
  C   C45       1.0  0.10482885495214589  0.3456500271434209  0.913729559984084  1.0000
  C   C46       1.0  0.8951701304708167  0.6543519170989355  0.08627310465629281  1.0000
  C   C47       1.0  0.10150901883107372  0.3196156127870183  0.01811871787300839  1.0000
  C   C48       1.0  0.8984890966243952  0.6803873777855074  0.9818823475033941  1.0000
  I   I1        1.0  0.3775413786014283  0.39819174108628624  0.6025053812318292  1.0000
  I   I2        1.0  0.6224584610249905  0.6018091396448854  0.3974964590573151  1.0000
  N   N1        1.0  0.24392309018015373  0.6245164171083175  0.419446106467696  1.0000
  N   N2        1.0  0.756077054878176  0.3754812480714946  0.580551103518147  1.0000
