data_image0
_chemical_formula_structural       Cd2H52C60N8O8
_chemical_formula_sum              "Cd2 H52 C60 N8 O8"
_cell_length_a       10.078986719714687
_cell_length_b       11.166047526727944
_cell_length_c       11.504018444054905
_cell_angle_alpha    88.44897282025704
_cell_angle_beta     89.1899754609089
_cell_angle_gamma    83.1487772610478

_space_group_name_H-M_alt    "P 1"
_space_group_IT_number       1

loop_
  _space_group_symop_operation_xyz
  'x, y, z'

loop_
  _atom_site_type_symbol
  _atom_site_label
  _atom_site_symmetry_multiplicity
  _atom_site_fract_x
  _atom_site_fract_y
  _atom_site_fract_z
  _atom_site_occupancy
  Cd  Cd1       1.0  0.7695114550207123  0.23720861543188934  0.294455946298342  1.0000
  Cd  Cd2       1.0  0.23048953844153897  0.7627938302182143  0.7055453757001684  1.0000
  H   H1        1.0  0.5870267839957536  0.0614480021425337  0.4073376353687053  1.0000
  H   H2        1.0  0.4129686900805325  0.9385508345370897  0.5926586705294241  1.0000
  H   H3        1.0  0.6654502206397696  0.9187239957511223  0.46183964360837126  1.0000
  H   H4        1.0  0.3345431631062183  0.08127576504146111  0.5381592738799909  1.0000
  H   H5        1.0  0.5214207679800253  0.9261517416390603  0.37405075800632653  1.0000
  H   H6        1.0  0.47857943264025954  0.0738488646394586  0.6259428105738323  1.0000
  H   H7        1.0  0.9084858235429748  0.05111221212869309  0.0946459635236323  1.0000
  H   H8        1.0  0.09151494175239351  0.9488920380951529  0.9053553054717867  1.0000
  H   H9        1.0  0.8403563364547965  0.8201129242875922  0.057618639949559694  1.0000
  H   H10       1.0  0.15965470243628493  0.17988857959988994  0.9423834235656372  1.0000
  H   H11       1.0  0.6584318453747785  0.7045180188166071  0.14730537841811747  1.0000
  H   H12       1.0  0.34157322719239863  0.29548349830812276  0.8526941702668864  1.0000
  H   H13       1.0  0.5664995117421938  0.7631976634595076  0.2699722445018081  1.0000
  H   H14       1.0  0.4335089924908432  0.23680022701558562  0.7300264948741599  1.0000
  H   H15       1.0  0.6446313368179731  0.7041575073415842  0.469846137661662  1.0000
  H   H16       1.0  0.3553714229941535  0.29583858309018046  0.5301484017029522  1.0000
  H   H17       1.0  0.8078281806058312  0.5917972995250479  0.5973786003901438  1.0000
  H   H18       1.0  0.1921699792735154  0.40819613643463276  0.4026221791624991  1.0000
  H   H19       1.0  0.05968668402962863  0.4910376109639784  0.30095455388421744  1.0000
  H   H20       1.0  0.9403165509079372  0.5089548964408266  0.699045306039352  1.0000
  H   H21       1.0  0.8957696389134568  0.603752327888941  0.17356299642169398  1.0000
  H   H22       1.0  0.10423523315257911  0.3962428689037978  0.8264350149975783  1.0000
  H   H23       1.0  0.9940592181224089  0.1515268629095416  0.47699261343973376  1.0000
  H   H24       1.0  0.005937501997657077  0.8484701996407796  0.5230106827908045  1.0000
  H   H25       1.0  0.9418774541054094  0.0620276656654468  0.5968640605663822  1.0000
  H   H26       1.0  0.05812113444196141  0.9379702860524899  0.403138309255084  1.0000
  H   H27       1.0  0.03614996456219901  0.1831132897000032  0.6213611663130365  1.0000
  H   H28       1.0  0.9638459815075747  0.8168819595992434  0.37863959105191464  1.0000
  H   H29       1.0  0.5729664915023066  0.40138804763347474  0.47290292750354007  1.0000
  H   H30       1.0  0.4270335435899923  0.5986144502871512  0.5271079699160666  1.0000
  H   H31       1.0  0.6006534995691553  0.40773367499166824  0.713385493761983  1.0000
  H   H32       1.0  0.3993473372391776  0.5922625112743063  0.286626458260578  1.0000
  H   H33       1.0  0.8285909032020271  0.33748069627726823  0.8398811291701307  1.0000
  H   H34       1.0  0.17141235679108746  0.6625118459548887  0.160125683490449  1.0000
  H   H35       1.0  0.9247464028091273  0.20648982416511794  0.786859830271041  1.0000
  H   H36       1.0  0.07525432565789462  0.79349910900806  0.21314452734243614  1.0000
  H   H37       1.0  0.7567329642689274  0.0319897520377808  0.7328453220489166  1.0000
  H   H38       1.0  0.2432756146090186  0.9680000788328514  0.26716496944631263  1.0000
  H   H39       1.0  0.5980105146816187  0.9129807007053544  0.8279957907604825  1.0000
  H   H40       1.0  0.40198996734860515  0.0870181750075432  0.1720126053889288  1.0000
  H   H41       1.0  0.5231338983821843  0.18143140326635185  0.0909053941080842  1.0000
  H   H42       1.0  0.47685262203209783  0.818575610825519  0.9090951419983639  1.0000
  H   H43       1.0  0.6800137886230929  0.3021576610063406  0.9941710795610774  1.0000
  H   H44       1.0  0.31997871325305033  0.6978411975288736  0.005827010744404502  1.0000
  H   H45       1.0  0.448253020049556  0.4836266622104974  0.07003215387888419  1.0000
  H   H46       1.0  0.5517439556699061  0.5163838997564979  0.9299654994603014  1.0000
  H   H47       1.0  0.23939619448492525  0.520302127230515  0.9505115047125869  1.0000
  H   H48       1.0  0.7606015798186333  0.4797021187284044  0.04948633413741991  1.0000
  H   H49       1.0  0.04243505351882959  0.41297256133523064  0.009142584333453397  1.0000
  H   H50       1.0  0.9575658008044243  0.5870307517743997  0.9908517584264941  1.0000
  H   H51       1.0  0.2640025353195483  0.23487718238992977  0.2920266267085481  1.0000
  H   H52       1.0  0.7359974340019092  0.7651252241089139  0.7079660197763928  1.0000
  C   C1        1.0  0.6141184226118668  0.9663772112975053  0.38720167330011174  1.0000
  C   C2        1.0  0.3858796845461754  0.0336243147405568  0.6127936377781538  1.0000
  C   C3        1.0  0.699838960722879  0.9584488495701535  0.2812410191880375  1.0000
  C   C4        1.0  0.3001645825353735  0.041549067172937305  0.7187586663185499  1.0000
  C   C5        1.0  0.8437429149629239  0.9976223455467732  0.1444855319090266  1.0000
  C   C6        1.0  0.1562577425128922  0.0023828156707778997  0.8555174487690989  1.0000
  C   C7        1.0  0.8112033960507006  0.8840754527102279  0.12521561950591578  1.0000
  C   C8        1.0  0.18880565719769038  0.11592605994309221  0.874786474824674  1.0000
  C   C9        1.0  0.6672821813795906  0.7448307359981855  0.23235869800348746  1.0000
  C   C10       1.0  0.33272364331426735  0.2551725639036917  0.7676373059022198  1.0000
  C   C11       1.0  0.7590206724026489  0.6644348607271979  0.3117012708730869  1.0000
  C   C12       1.0  0.24098360732256205  0.3355648170259471  0.6882905243935653  1.0000
  C   C13       1.0  0.7359425348234229  0.658032976403824  0.4317863931508654  1.0000
  C   C14       1.0  0.2640574652957213  0.3419613095426969  0.5682056381635616  1.0000
  C   C15       1.0  0.8296220812587478  0.5935943689098337  0.5046280949550237  1.0000
  C   C16       1.0  0.1703757207105525  0.4064017521433529  0.49536825963234316  1.0000
  C   C17       1.0  0.9495676498994075  0.5330755369407996  0.4610313801878121  1.0000
  C   C18       1.0  0.0504354803505436  0.4669178858111209  0.5389710605105904  1.0000
  C   C19       1.0  0.9697283534304972  0.5377602302051302  0.33987920311474795  1.0000
  C   C20       1.0  0.030271779563754812  0.46223317957503696  0.6601180692539899  1.0000
  C   C21       1.0  0.8765042611046924  0.6018663463939119  0.2669556048373564  1.0000
  C   C22       1.0  0.12350072504478501  0.3981279481119558  0.7330424330834687  1.0000
  C   C23       1.0  0.9578259098278539  0.153785198686009  0.5672229285043711  1.0000
  C   C24       1.0  0.04216970651937402  0.8462127748875189  0.4327812257244473  1.0000
  C   C25       1.0  0.8332021655219466  0.2388283696719284  0.574131582380673  1.0000
  C   C26       1.0  0.16679566776679175  0.7611677949154438  0.42587346312797075  1.0000
  C   C27       1.0  0.6493661271223274  0.35589388065137945  0.5291162171473259  1.0000
  C   C28       1.0  0.35063676295472135  0.6441094933471093  0.470892000271256  1.0000
  C   C29       1.0  0.6615037661058878  0.3595088828758009  0.6473058122960039  1.0000
  C   C30       1.0  0.33849958343687797  0.640490886328635  0.3527033802208948  1.0000
  C   C31       1.0  0.8230703641391912  0.2538700596783556  0.793043514876011  1.0000
  C   C32       1.0  0.17693330886222472  0.7461269765449643  0.2069605425927605  1.0000
  C   C33       1.0  0.7295273406019619  0.17718783717769074  0.8554424508428863  1.0000
  C   C34       1.0  0.2704721298152535  0.8228110167976157  0.14456074616145997  1.0000
  C   C35       1.0  0.7049568625700572  0.0660741494357424  0.8114213397109112  1.0000
  C   C36       1.0  0.2950447138371786  0.9339238021936964  0.1885835911638409  1.0000
  C   C37       1.0  0.6149447485111567  0.9976452219320039  0.8666416856063747  1.0000
  C   C38       1.0  0.3850567012848601  0.0023536145706301997  0.1333597423983264  1.0000
  C   C39       1.0  0.5470225169774139  0.03654174167511571  0.9693559099969562  1.0000
  C   C40       1.0  0.45296467227778703  0.9634598369284505  0.030640439658128592  1.0000
  C   C41       1.0  0.5728835416702296  0.14774879086399303  0.0121016344279212  1.0000
  C   C42       1.0  0.42711118967520184  0.8522482760987414  0.9879008235258906  1.0000
  C   C43       1.0  0.6620358081000077  0.21708825526312128  0.9566147395523855  1.0000
  C   C44       1.0  0.3379583590921058  0.7829133318407955  0.0433893240779497  1.0000
  C   C45       1.0  0.49991949563236193  0.32063328728099094  0.2474211873136341  1.0000
  C   C46       1.0  0.5000824624637303  0.6793691148054322  0.752572297448033  1.0000
  C   C47       1.0  0.3700106521993335  0.355040130847307  0.18560165358118036  1.0000
  C   C48       1.0  0.6299901005682573  0.644964101962863  0.8143961390457334  1.0000
  C   C49       1.0  0.3615161527258195  0.4373363509852767  0.09104503891582277  1.0000
  C   C50       1.0  0.6384803943256188  0.5626696952234553  0.9089510241545398  1.0000
  C   C51       1.0  0.24514872436917304  0.45795547982536533  0.02547922833219469  1.0000
  C   C52       1.0  0.7548533446784165  0.5420460156207696  0.9745134138388918  1.0000
  C   C53       1.0  0.13518017842845612  0.3987639026303357  0.0576490714243647  1.0000
  C   C54       1.0  0.8648214436812014  0.6012412150235278  0.9423460720169244  1.0000
  C   C55       1.0  0.13995957844195323  0.3208002894808359  0.15541302295112297  1.0000
  C   C56       1.0  0.8600381958615982  0.6792039564780837  0.8445848158988837  1.0000
  C   C57       1.0  0.25872767897890714  0.29748845519394257  0.21757463235884694  1.0000
  C   C58       1.0  0.7412698577619352  0.7025175822784605  0.7824205462116892  1.0000
  C   C59       1.0  0.016111903137051808  0.27167815192657224  0.20008466880577905  1.0000
  C   C60       1.0  0.9838848752132139  0.7283260940618491  0.7999123163598085  1.0000
  N   N1        1.0  0.773536433185143  0.04306102858954831  0.24084029091210368  1.0000
  N   N2        1.0  0.22646268871785943  0.9569405235395222  0.7591610884033528  1.0000
  N   N3        1.0  0.719880979977873  0.8608174997196018  0.21153465166604948  1.0000
  N   N4        1.0  0.28012741956754894  0.13918130610261412  0.7884666684847516  1.0000
  N   N5        1.0  0.7561762612292712  0.28121742335664385  0.48457303585037437  1.0000
  N   N6        1.0  0.24382111885764607  0.7187823547316158  0.5154327727442123  1.0000
  N   N7        1.0  0.7779867557187643  0.28562359960175593  0.6745095374382685  1.0000
  N   N8        1.0  0.22201306634461554  0.7143725605732031  0.32549634634710145  1.0000
  O   O1        1.0  0.6008044985661699  0.3740895799955198  0.21460326427688156  1.0000
  O   O2        1.0  0.3991952551161832  0.6259146484907347  0.7853928055734725  1.0000
  O   O3        1.0  0.505741497805829  0.23615312231498822  0.3234403718354386  1.0000
  O   O4        1.0  0.494256146754566  0.7638520041637094  0.6765530950523838  1.0000
  O   O5        1.0  0.02275629787504131  0.2082571096865991  0.2935204150946902  1.0000
  O   O6        1.0  0.9772438011895802  0.7917444162924667  0.7064766033524279  1.0000
  O   O7        1.0  0.9069561102199659  0.3023960944392882  0.1450760519389647  1.0000
  O   O8        1.0  0.09303966017099438  0.697616298251454  0.8549259092654606  1.0000
