data_image0
_chemical_formula_structural       Zn2H13C30N2Cl5O14
_chemical_formula_sum              "Zn2 H13 C30 N2 Cl5 O14"
_cell_length_a       9.836143880950257
_cell_length_b       10.85308666234711
_cell_length_c       10.851036703011653
_cell_angle_alpha    85.01115206227236
_cell_angle_beta     90.05458091141135
_cell_angle_gamma    87.90339353923027

_space_group_name_H-M_alt    "P 1"
_space_group_IT_number       1

loop_
  _space_group_symop_operation_xyz
  'x, y, z'

loop_
  _atom_site_type_symbol
  _atom_site_label
  _atom_site_symmetry_multiplicity
  _atom_site_fract_x
  _atom_site_fract_y
  _atom_site_fract_z
  _atom_site_occupancy
  Zn  Zn1       1.0  0.3545886005576477  0.4991612035965502  0.5032798811744215  1.0000
  Zn  Zn2       1.0  0.6458519483921776  0.4892566970773089  0.5244293474309458  1.0000
  H   H1        1.0  0.14802189398901794  0.8174378109526045  0.892611040405555  1.0000
  H   H2        1.0  0.2547417967728336  0.6864555240480428  0.33495575847021536  1.0000
  H   H3        1.0  0.2924278066510624  0.8090693241101616  0.6529552579695235  1.0000
  H   H4        1.0  0.7015474823396844  0.284501092901273  0.09492023944815739  1.0000
  H   H5        1.0  0.21088290496230405  0.9641518584035252  0.02209884815396631  1.0000
  H   H6        1.0  0.09521063508884002  0.9242118886082551  0.497656044684426  1.0000
  H   H7        1.0  0.1451440957750521  0.32457903627589957  0.44422387280140907  1.0000
  H   H8        1.0  0.4346880064790496  0.9316847368409071  0.2946994603715467  1.0000
  H   H9        1.0  0.2578326241453084  0.0796353103476974  0.42909048001264694  1.0000
  H   H10       1.0  0.7068508717051144  0.9125577057632838  0.5710219402222165  1.0000
  H   H11       1.0  0.42898028075696004  0.7482298080372088  0.19504818534822022  1.0000
  H   H12       1.0  0.7275497411439318  0.024174396806294903  0.3110259913784006  1.0000
  H   H13       1.0  0.7656618395982377  0.741533386089998  0.7390486579613693  1.0000
  C   C1        1.0  0.5234062538776172  0.5272398413729249  0.2765043232417383  1.0000
  C   C2        1.0  0.42867602893994683  0.6075280856796326  0.06474941791530849  1.0000
  C   C3        1.0  0.5172205498529152  0.5230941794455646  0.1391353699115996  1.0000
  C   C4        1.0  0.4956096084008337  0.7314405849985944  0.5166313100142261  1.0000
  C   C5        1.0  0.5841131857511499  0.42648501023019486  0.0849231616756327  1.0000
  C   C6        1.0  0.5614142060594959  0.41373928150215983  0.9569126857802742  1.0000
  C   C7        1.0  0.463387752957317  0.48282351841289983  0.8867291734324497  1.0000
  C   C8        1.0  0.8888606054029894  0.6934882512394367  0.6143998432971571  1.0000
  C   C9        1.0  0.9544525621322322  0.8061053125618612  0.5996767818971875  1.0000
  C   C10       1.0  0.05422117428661719  0.8323591310905344  0.5095168477855837  1.0000
  C   C11       1.0  0.1110034760602829  0.7375986513972349  0.44617189637958177  1.0000
  C   C12       1.0  0.5073511188642357  0.028541795527757995  0.6162581900162607  1.0000
  C   C13       1.0  0.06230866997535861  0.6167552641961079  0.4756106056519158  1.0000
  C   C14       1.0  0.9358199020100102  0.5996129549595253  0.5400961339950072  1.0000
  C   C15       1.0  0.9400402988474854  0.39849908855898525  0.4851750335010365  1.0000
  C   C16       1.0  0.4668241680026881  0.472087677795102  0.7475492152640655  1.0000
  C   C17       1.0  0.0811528878295391  0.4062280254500479  0.45817142593326565  1.0000
  C   C18       1.0  0.4771580120930778  0.2595393760529702  0.4984994046084594  1.0000
  C   C19       1.0  0.45604339053598864  0.9600864718352327  0.3866838556836569  1.0000
  C   C20       1.0  0.5777803744099543  0.0397126608104941  0.4233463935533734  1.0000
  C   C21       1.0  0.47689347442267405  0.12193213638243346  0.49791066693732233  1.0000
  C   C22       1.0  0.35687703658091147  0.04090737857353591  0.46194327879784675  1.0000
  C   C23       1.0  0.6067759816757814  0.9493312477011956  0.5410410180493628  1.0000
  C   C24       1.0  0.3849600613031399  0.9484349400475055  0.5802985001887038  1.0000
  C   C25       1.0  0.48683269794260303  0.8688610228989119  0.506566540378401  1.0000
  C   C26       1.0  0.38676230775926973  0.721594729116056  0.1091566362695033  1.0000
  C   C27       1.0  0.2962251238300624  0.8016477734852289  0.0426958136082547  1.0000
  C   C28       1.0  0.23250166398991473  0.7629486052039381  0.9372734368551576  1.0000
  C   C29       1.0  0.2745757786669927  0.65344864063092  0.8908909757080608  1.0000
  C   C30       1.0  0.3863778772986279  0.5778948598621697  0.9434966461559284  1.0000
  N   N1        1.0  0.8697003181129547  0.49031320858878746  0.5314556727059596  1.0000
  N   N2        1.0  0.1385678167100366  0.5146246626325991  0.4502817314192101  1.0000
  Cl  Cl1       1.0  0.1707009379748357  0.6088630491667787  0.7746871555835213  1.0000
  Cl  Cl2       1.0  0.6656796843927993  0.30309915831703893  0.8940457434610424  1.0000
  Cl  Cl3       1.0  0.864134534135765  0.26633882430922984  0.454801465237921  1.0000
  Cl  Cl4       1.0  0.9143005919860413  0.9154162986841853  0.7019449473732706  1.0000
  Cl  Cl5       1.0  0.5366849114112  0.06764548655424112  0.7655885828139546  1.0000
  O   O1        1.0  0.41254010904427935  0.5622990027134874  0.32851855453814244  1.0000
  O   O2        1.0  0.7925563758300171  0.6666165591927395  0.6997537188706318  1.0000
  O   O3        1.0  0.20928240523976172  0.7621612264083878  0.3619070679215568  1.0000
  O   O4        1.0  0.29139833255805314  0.8985565027601082  0.6628073827402545  1.0000
  O   O5        1.0  0.6688319756050235  0.34539317266432323  0.1511196831887318  1.0000
  O   O6        1.0  0.26566485743856566  0.9149201465808613  0.08445336748346934  1.0000
  O   O7        1.0  0.631696018768942  0.4907050562804401  0.334176091945757  1.0000
  O   O8        1.0  0.3881844542314781  0.67576926425334  0.5546855013378719  1.0000
  O   O9        1.0  0.6078470484527685  0.680011297242821  0.4892912807463147  1.0000
  O   O10       1.0  0.3656992057171919  0.43587515647324426  0.6900916972029165  1.0000
  O   O11       1.0  0.5798343442532642  0.5040082299784244  0.7005068395592389  1.0000
  O   O12       1.0  0.36966045670106235  0.32076918689440237  0.4593999723377138  1.0000
  O   O13       1.0  0.5835313985283507  0.30495476012461614  0.5391547766251747  1.0000
  O   O14       1.0  0.6754150057936243  0.0917731985604249  0.3444329222803688  1.0000
