data_image0
_chemical_formula_structural       Zn8H32C76O26
_chemical_formula_sum              "Zn8 H32 C76 O26"
_cell_length_a       24.26834387839643
_cell_length_b       24.268283392739573
_cell_length_c       24.268347784621238
_cell_angle_alpha    109.06673005201024
_cell_angle_beta     109.06688093067442
_cell_angle_gamma    110.28315672188461

_space_group_name_H-M_alt    "P 1"
_space_group_IT_number       1

loop_
  _space_group_symop_operation_xyz
  'x, y, z'

loop_
  _atom_site_type_symbol
  _atom_site_label
  _atom_site_symmetry_multiplicity
  _atom_site_fract_x
  _atom_site_fract_y
  _atom_site_fract_z
  _atom_site_occupancy
  Zn  Zn1       1.0  0.7098176824115042  0.2672999249705867  0.5574824112663279  1.0000
  Zn  Zn2       1.0  0.29018234743885074  0.7327008578753932  0.4425179807828601  1.0000
  Zn  Zn3       1.0  0.26729986921888826  0.7098182918418131  0.5574827261757562  1.0000
  Zn  Zn4       1.0  0.7327001606314667  0.29018249100416676  0.4425176658734317  1.0000
  Zn  Zn5       1.0  0.7098180020007733  0.15233619552513036  0.44251766885551563  1.0000
  Zn  Zn6       1.0  0.2901827205431076  0.8476648878889608  0.5574829096369031  1.0000
  Zn  Zn7       1.0  0.1523356803091076  0.7098182331278197  0.44251760694537273  1.0000
  Zn  Zn8       1.0  0.8476643499061043  0.2901829619049964  0.557482785103929  1.0000
  H   H1        1.0  0.2104913782171849  0.6334960120857643  0.23561185412616234  1.0000
  H   H2        1.0  0.39787875226113556  0.6334933279015047  0.4230016274675208  1.0000
  H   H3        1.0  0.025122131153565867  0.6021177156751492  0.23561238113856584  1.0000
  H   H4        1.0  0.97487902823017  0.3978844855040577  0.7643886332042912  1.0000
  H   H5        1.0  0.7895095722336618  0.0251230345627106  0.42300421269975175  1.0000
  H   H6        1.0  0.2104906625568219  0.974878878788921  0.5769994191919992  1.0000
  H   H7        1.0  0.36650286161548706  0.7895092509857591  0.7643886723387397  1.0000
  H   H8        1.0  0.633496654703208  0.2104911053200169  0.2356122185242526  1.0000
  H   H9        1.0  0.789509242951219  0.36650574263601504  0.7643871044453336  1.0000
  H   H10       1.0  0.6334924639459346  0.39788089064420273  0.4230018084142345  1.0000
  H   H11       1.0  0.36650808016580083  0.6021211431156532  0.5769980848213764  1.0000
  H   H12       1.0  0.3978849388523784  0.9748791803685889  0.7643885023805482  1.0000
  H   H13       1.0  0.6021150902682492  0.025120778103705416  0.2356118896684052  1.0000
  H   H14       1.0  0.9748777791795574  0.21049203651410409  0.576999171689465  1.0000
  H   H15       1.0  0.025123481944518734  0.7895099055442502  0.42300346257442817  1.0000
  H   H16       1.0  0.6021210987922103  0.3665079931033972  0.5769980793247386  1.0000
  H   H17       1.0  0.14817963203377363  0.5707995769108152  0.11014610900062391  1.0000
  H   H18       1.0  0.8518196022881169  0.4291999279273782  0.8898524766839345  1.0000
  H   H19       1.0  0.5707950294889557  0.46064834135577115  0.4226159357104749  1.0000
  H   H20       1.0  0.42920525694479733  0.5393524486668894  0.5773842069317467  1.0000
  H   H21       1.0  0.4606542207570215  0.03803353281059448  0.8898539076425396  1.0000
  H   H22       1.0  0.5393465010571318  0.9619667262298178  0.11014667084964455  1.0000
  H   H23       1.0  0.03803148421037871  0.1481806648366018  0.5773843352350668  1.0000
  H   H24       1.0  0.9619683911617827  0.8518202638986878  0.42261792614224475  1.0000
  H   H25       1.0  0.5393509251495843  0.4292030604483656  0.5773825005945527  1.0000
  H   H26       1.0  0.460646923785255  0.5707958432535989  0.4226157122035303  1.0000
  H   H27       1.0  0.961967705143877  0.539347969358367  0.1101476751071432  1.0000
  H   H28       1.0  0.038032502408889036  0.4606510387681695  0.889853402198618  1.0000
  H   H29       1.0  0.8518210559379964  0.9619686117002287  0.4226169544146502  1.0000
  H   H30       1.0  0.1481791538039517  0.038032869547336715  0.5773841228918145  1.0000
  H   H31       1.0  0.4291996298399637  0.8518202561980531  0.8898537146412693  1.0000
  H   H32       1.0  0.5708003992806637  0.14817970227424831  0.110146677407684  1.0000
  C   C1        1.0  0.050845621780020195  0.5508455695954523  0.10169070486549  1.0000
  C   C2        1.0  0.4491542484611415  0.5508458997628054  0.49999955454131145  1.0000
  C   C3        1.0  0.9836229917751994  0.43993801012979367  0.8622006469901892  1.0000
  C   C4        1.0  0.8785770909912641  0.01637776788459193  0.4563144234549341  1.0000
  C   C5        1.0  0.12142296427249023  0.9836238592522903  0.5436885231796539  1.0000
  C   C6        1.0  0.4222618899560472  0.8785774774814142  0.8622011054584248  1.0000
  C   C7        1.0  0.5777388322229697  0.12142319374583373  0.13779947303387985  1.0000
  C   C8        1.0  0.1560989377013087  0.6125647994939314  0.20747880158403126  1.0000
  C   C9        1.0  0.8439014265188334  0.3874365358643319  0.7925204063943102  1.0000
  C   C10       1.0  0.6125624471449669  0.40508335341773016  0.45646426015856895  1.0000
  C   C11       1.0  0.3874375834351083  0.5949182538019285  0.5435361318908533  1.0000
  C   C12       1.0  0.4050861358374149  0.9486198085821372  0.7925211949896251  1.0000
  C   C13       1.0  0.5949143293933401  0.05138044328159446  0.20747963290952498  1.0000
  C   C14       1.0  0.9486179378367438  0.15609959049852054  0.5435367328985522  1.0000
  C   C15       1.0  0.05138211779187441  0.8439024488251973  0.45646621373615665  1.0000
  C   C16       1.0  0.5949174124978073  0.3874374165433495  0.543535050357285  1.0000
  C   C17       1.0  0.4050813093870147  0.6125628983151614  0.4564640341414333  1.0000
  C   C18       1.0  0.05138190674843206  0.5949158675185586  0.20748018984532027  1.0000
  C   C19       1.0  0.9486192515407197  0.40508509710013396  0.7925208244971814  1.0000
  C   C20       1.0  0.8439020645599911  0.05138230918034732  0.4564656717561276  1.0000
  C   C21       1.0  0.15609842644903452  0.9486191991611294  0.5435377107285434  1.0000
  C   C22       1.0  0.38743527809865697  0.8439011668917545  0.7925211606010835  1.0000
  C   C23       1.0  0.9491546639239983  0.4491543960535296  0.8983094377764971  1.0000
  C   C24       1.0  0.6125650076053687  0.1560987987572275  0.2074789820409037  1.0000
  C   C25       1.0  0.9491555475418707  0.050847268925068266  0.5000016702564952  1.0000
  C   C26       1.0  0.12149016238809204  0.6214903340974658  0.24298037931180977  1.0000
  C   C27       1.0  0.8785101244105176  0.3785108681120306  0.7570197633305327  1.0000
  C   C28       1.0  0.6214905137219304  0.37850984408051863  0.4999993239984591  1.0000
  C   C29       1.0  0.05084520078027321  0.9491550709667678  0.5000014628214445  1.0000
  C   C30       1.0  0.3785098501333479  0.6214910790909016  0.49999988397976136  1.0000
  C   C31       1.0  0.3785102357653826  0.878510532190063  0.7570205750870969  1.0000
  C   C32       1.0  0.6214899732468383  0.12149012468383097  0.24298050221913314  1.0000
  C   C33       1.0  0.8785101995722897  0.12149172832153007  0.5000020626585596  1.0000
  C   C34       1.0  0.12149090707359995  0.8785103596261407  0.5000024409334644  1.0000
  C   C35       1.0  0.4491552891753868  0.9491548988586017  0.8983097507193776  1.0000
  C   C36       1.0  0.5508454326387663  0.05084536018181033  0.10169082777281348  1.0000
  C   C37       1.0  0.015337111111044499  0.5153371804521427  0.030675360903195805  1.0000
  C   C38       1.0  0.9846615318927976  0.48466135251025133  0.9693246582590548  1.0000
  C   C39       1.0  0.5153371818779034  0.48466242514599855  0.5000001344110602  1.0000
  C   C40       1.0  0.48466233517051893  0.515338755533456  0.5000007564521666  1.0000
  C   C41       1.0  0.48466285020257505  0.9846625680702771  0.9693251576452795  1.0000
  C   C42       1.0  0.5153380511383076  0.015337977184891799  0.030676106104067517  1.0000
  C   C43       1.0  0.9846622230859269  0.01533826708174518  0.4999999446953612  1.0000
  C   C44       1.0  0.015336678325631728  0.9846623339915225  0.49999982506050605  1.0000
  C   C45       1.0  0.5508447300070785  0.44915442227238594  0.4999992805504405  1.0000
  C   C46       1.0  0.5683994305552247  0.06839920443010075  0.4999998187263587  1.0000
  C   C47       1.0  0.43160724788224775  0.9316078544978339  0.5000001325779168  1.0000
  C   C48       1.0  0.06839330511429156  0.5683932780872283  0.49999895249298737  1.0000
  C   C49       1.0  0.9316016160141984  0.4316016839237165  0.500000383859458  1.0000
  C   C50       1.0  0.524318157634788  0.024318223784973746  0.49999942881297715  1.0000
  C   C51       1.0  0.47568669821090737  0.9756867040547803  0.4999997137542779  1.0000
  C   C52       1.0  0.024312903684382457  0.5243120598512903  0.4999994342797649  1.0000
  C   C53       1.0  0.9756820163495092  0.47568166559913283  0.49999990207232525  1.0000
  C   C54       1.0  0.8795927001208098  0.3795934860843815  0.5000005482402801  1.0000
  C   C55       1.0  0.12040568702936133  0.6204058640750035  0.4999997203291643  1.0000
  C   C56       1.0  0.37959478781591827  0.8795943109876132  0.5000002994055065  1.0000
  C   C57       1.0  0.6204075770632826  0.12040779292622975  0.5000004025665419  1.0000
  C   C58       1.0  0.6588973425174132  0.34110349184020805  0.49999946004604123  1.0000
  C   C59       1.0  0.3411029442811965  0.6588977103692882  0.5000006825963013  1.0000
  C   C60       1.0  0.3411033382452686  0.8411028794464103  0.6822070390684588  1.0000
  C   C61       1.0  0.6588966905104953  0.15889666683904838  0.31779335298038086  1.0000
  C   C62       1.0  0.8411031916149343  0.15889820653391962  0.5000012413539354  1.0000
  C   C63       1.0  0.1588982494007424  0.8411044339260271  0.5000020781672418  1.0000
  C   C64       1.0  0.15889731539702004  0.6588967574572848  0.3177936659231406  1.0000
  C   C65       1.0  0.841103484203529  0.34110404691872975  0.6822059779051627  1.0000
  C   C66       1.0  0.12142154177523415  0.5777382176261696  0.1377989402990494  1.0000
  C   C67       1.0  0.8785764874160618  0.42226179666423047  0.8621999577564312  1.0000
  C   C68       1.0  0.5777353608579644  0.43993629625237674  0.4563127996818608  1.0000
  C   C69       1.0  0.42226423324711954  0.5600646053890089  0.5436871565172441  1.0000
  C   C70       1.0  0.4399397123231168  0.9836243338924575  0.8622009968744565  1.0000
  C   C71       1.0  0.560060573380909  0.016375631756517385  0.13779914576753066  1.0000
  C   C72       1.0  0.9836232816693593  0.12142425625025761  0.5436886933044678  1.0000
  C   C73       1.0  0.01637720933965899  0.878577252091212  0.4563146891802036  1.0000
  C   C74       1.0  0.5600640510993883  0.4222642161039545  0.5436867333932653  1.0000
  C   C75       1.0  0.4399351839522296  0.5777361131079176  0.45631185229152044  1.0000
  C   C76       1.0  0.016375831849963222  0.5600620456078715  0.13780005742956553  1.0000
  O   O1        1.0  0.749999702481915  0.2500003461138718  0.500000039553214  1.0000
  O   O2        1.0  0.18121696772028165  0.6405216802005  0.5406954796783127  1.0000
  O   O3        1.0  0.3594789514522745  0.9001737796088706  0.5406961480659406  1.0000
  O   O4        1.0  0.640522899165532  0.09982707339109703  0.4593050527196779  1.0000
  O   O5        1.0  0.9001736927980274  0.35947901134959187  0.5406964973208018  1.0000
  O   O6        1.0  0.09982626036052264  0.6405224627212933  0.4593048293926216  1.0000
  O   O7        1.0  0.3594786931008186  0.8187827066326391  0.459304516996589  1.0000
  O   O8        1.0  0.6405220290781982  0.18121796459460882  0.5406960614957158  1.0000
  O   O9        1.0  0.8187826260199386  0.3594788092540426  0.45930447652067846  1.0000
  O   O10       1.0  0.24999989125830513  0.7500001433406708  0.4999999166457769  1.0000
  O   O11       1.0  0.68207674438532  0.33512844362496713  0.4593714765321766  1.0000
  O   O12       1.0  0.3179237215751628  0.6648726326124433  0.5406293513672084  1.0000
  O   O13       1.0  0.3351282499804995  0.8757565681397069  0.6530530357355105  1.0000
  O   O14       1.0  0.6648722148853919  0.12424327153718907  0.34694779216352595  1.0000
  O   O15       1.0  0.875756751589755  0.22270573980945585  0.5406301463228759  1.0000
  O   O16       1.0  0.12424425295093036  0.7772961950722249  0.45937273734798373  1.0000
  O   O17       1.0  0.22270518670750053  0.6820760919831984  0.34694790545423615  1.0000
  O   O18       1.0  0.7772953563096434  0.31792470521614286  0.6530519877810262  1.0000
  O   O19       1.0  0.12424415115929582  0.6648718331464921  0.34694789518631103  1.0000
  O   O20       1.0  0.8757568276031191  0.33512884525744363  0.6530524338990346  1.0000
  O   O21       1.0  0.7772949605382137  0.1242439645516953  0.4593714693794342  1.0000
  O   O22       1.0  0.22270542836560733  0.8757573907237912  0.5406302931840727  1.0000
  O   O23       1.0  0.31792466907906203  0.7772955004696273  0.6530525106435263  1.0000
  O   O24       1.0  0.6820753600415654  0.22270445800267416  0.346947881405427  1.0000
  O   O25       1.0  0.6648721749115579  0.31792413099703504  0.5406278747150353  1.0000
  O   O26       1.0  0.3351281122519225  0.6820774833992971  0.4593722679274208  1.0000
