data_image0
_chemical_formula_structural       Zn4H51C84BrN16
_chemical_formula_sum              "Zn4 H51 C84 Br1 N16"
_cell_length_a       18.981150675425045
_cell_length_b       18.929169774910623
_cell_length_c       20.34878144987213
_cell_angle_alpha    105.39816168344497
_cell_angle_beta     107.56712425699223
_cell_angle_gamma    112.10764266960132

_space_group_name_H-M_alt    "P 1"
_space_group_IT_number       1

loop_
  _space_group_symop_operation_xyz
  'x, y, z'

loop_
  _atom_site_type_symbol
  _atom_site_label
  _atom_site_symmetry_multiplicity
  _atom_site_fract_x
  _atom_site_fract_y
  _atom_site_fract_z
  _atom_site_occupancy
  Zn  Zn1       1.0  0.8960469231441124  0.8966888207010014  0.5030814373366183  1.0000
  Zn  Zn2       1.0  0.11192819550565503  0.11546021864053559  0.5005181917168073  1.0000
  Zn  Zn3       1.0  0.10395666284889422  0.008937917351445909  0.6032439891058701  1.0000
  Zn  Zn4       1.0  0.9047836728691437  0.004132743195235388  0.4004723818441959  1.0000
  H   H1        1.0  0.8517751324742022  0.7976897726131468  0.613651033428269  1.0000
  H   H2        1.0  0.4544459140028395  0.22187251884621872  0.5638593677247457  1.0000
  H   H3        1.0  0.5781272756746318  0.2753151934897318  0.5362686781811447  1.0000
  H   H4        1.0  0.14765068112694732  0.28316536262131103  0.4648539508615386  1.0000
  H   H5        1.0  0.7025136877565573  0.26755158344769103  0.528841947940002  1.0000
  H   H6        1.0  0.791477854768182  0.19917575532623036  0.541853604919325  1.0000
  H   H7        1.0  0.7745441797184186  0.046656380995685365  0.6671697229305806  1.0000
  H   H8        1.0  0.6765049774427395  0.026724213774933572  0.7258456439137289  1.0000
  H   H9        1.0  0.5514596885508212  0.033795683929369644  0.732760906098285  1.0000
  H   H10       1.0  0.15974396165250235  0.756021886123534  0.46699342379831416  1.0000
  H   H11       1.0  0.887204998594946  0.6200240056529367  0.329543550674522  1.0000
  H   H12       1.0  0.31520091220749447  0.18884223873965317  0.533973120377226  1.0000
  H   H13       1.0  0.8085351643563927  0.4638894286336069  0.2672291098851005  1.0000
  H   H14       1.0  0.8049575248793203  0.330382793644773  0.26066184362343836  1.0000
  H   H15       1.0  0.8786797439423781  0.2571631267270862  0.3074469412177834  1.0000
  H   H16       1.0  0.09618077687936481  0.1317451731219705  0.7435059438165794  1.0000
  H   H17       1.0  0.15181429743753236  0.3931055173959805  0.4419736789132287  1.0000
  H   H18       1.0  0.23520802172270555  0.5443298756477546  0.4743820644124525  1.0000
  H   H19       1.0  0.23834794426115025  0.6779985631639036  0.48205308205182723  1.0000
  H   H20       1.0  0.5573315333031345  0.8031087375628373  0.1944340463260373  1.0000
  H   H21       1.0  0.10165162413817802  0.2424575338228933  0.8374446772522789  1.0000
  H   H22       1.0  0.17662963977493015  0.39762373829070435  0.7227466634663597  1.0000
  H   H23       1.0  0.155061468656001  0.8816262662507839  0.5121690324287158  1.0000
  H   H24       1.0  0.3204736570107656  0.5891389226282584  0.9795318461719729  1.0000
  H   H25       1.0  0.4260258461826325  0.5083870590736267  0.16500400354379238  1.0000
  H   H26       1.0  0.18216870110529734  0.3684120190942011  0.9593034658235949  1.0000
  H   H27       1.0  0.5696454070414776  0.6132397036503293  0.26900892907006124  1.0000
  H   H28       1.0  0.8622956284296067  0.14082113689908482  0.48877874870892407  1.0000
  H   H29       1.0  0.3095955432962185  0.464493094196797  0.05222340685383392  1.0000
  H   H30       1.0  0.4154677068611221  0.6981793782514174  0.08959416446299423  1.0000
  H   H31       1.0  0.25593934946051894  0.5240491165448374  0.84475892891286  1.0000
  H   H32       1.0  0.1201892959793156  0.8653626332055352  0.8123553374735122  1.0000
  H   H33       1.0  0.9040301599296897  0.8253322055272889  0.1612082606926605  1.0000
  H   H34       1.0  0.8898571498552671  0.8531720052507055  0.2656571008806168  1.0000
  H   H35       1.0  0.10971590156564301  0.8181150147419486  0.022199908341462952  1.0000
  H   H36       1.0  0.8470510985948395  0.7214158906159298  0.8214596404770802  1.0000
  H   H37       1.0  0.9043518995489636  0.7739397803932916  0.039132766182966204  1.0000
  H   H38       1.0  0.8483047404362691  0.763734410520776  0.7173280737192297  1.0000
  H   H39       1.0  0.10483655439048077  0.2725459053224952  0.6064024348367311  1.0000
  H   H40       1.0  0.9144887805232712  0.7361114110655007  0.9414799338721165  1.0000
  H   H41       1.0  0.11906743219768859  0.8248473407744894  0.9168215263365055  1.0000
  H   H42       1.0  0.1665169817477405  0.8381435085294127  0.154708777312443  1.0000
  H   H43       1.0  0.852772096276688  0.998841280051167  0.6248352141027665  1.0000
  H   H44       1.0  0.873792313049137  0.1397446088445095  0.33066602799348044  1.0000
  H   H45       1.0  0.1649300851379181  0.004167454263885912  0.392049417964806  1.0000
  H   H46       1.0  0.1257259863887299  0.9501456357550854  0.7455256819415013  1.0000
  H   H47       1.0  0.6945678787199155  0.7330209419801431  0.3883086407947186  1.0000
  H   H48       1.0  0.8800801441608996  0.7369556219743458  0.381454470224412  1.0000
  H   H49       1.0  0.7096480496845032  0.8763133550117317  0.25403439298894886  1.0000
  H   H50       1.0  0.307103810082225  0.051143842532987094  0.6732515712949407  1.0000
  H   H51       1.0  0.4378091666420687  0.06804968892652144  0.6879713714179586  1.0000
  C   C1        1.0  0.9195511750786098  0.8411422528128369  0.6377860350119846  1.0000
  C   C2        1.0  0.9466084704573348  0.7835567196622932  0.4190808643978414  1.0000
  C   C3        1.0  0.7196414601405153  0.8513192511757378  0.2961868523996854  1.0000
  C   C4        1.0  0.0801902273349953  0.23704601360708466  0.4343961187523177  1.0000
  C   C5        1.0  0.29560822292397393  0.0820105129439099  0.6364214681621547  1.0000
  C   C6        1.0  0.6632362304210915  0.7775275936055691  0.29641344298569544  1.0000
  C   C7        1.0  0.3499701875115093  0.12857928075849398  0.6112375982353839  1.0000
  C   C8        1.0  0.0199584999869771  0.7760645018491201  0.4308489939107715  1.0000
  C   C9        1.0  0.031010436137719893  0.9069708662836214  0.30021183424358344  1.0000
  C   C10       1.0  0.47101477604712017  0.10417640778978661  0.6625909955194657  1.0000
  C   C11       1.0  0.43501357099815163  0.14248871420876705  0.6236276144361739  1.0000
  C   C12       1.0  0.0115969424297901  0.24270036388500668  0.3897364666228498  1.0000
  C   C13       1.0  0.4801807778184895  0.18991161671657864  0.5928745030614522  1.0000
  C   C14       1.0  0.5566022190520387  0.19476931762851984  0.5955337107357933  1.0000
  C   C15       1.0  0.5896380177101505  0.15080151936313504  0.6308813126658775  1.0000
  C   C16       1.0  0.09554165479347891  0.15499694493877308  0.700079158566723  1.0000
  C   C17       1.0  0.5472510400021522  0.10730990352233512  0.6669398128070299  1.0000
  C   C18       1.0  0.6014192789077768  0.23912215141440638  0.5609356707066055  1.0000
  C   C19       1.0  0.6704189036483755  0.23490078578380047  0.5568851684783525  1.0000
  C   C20       1.0  0.7009943160150129  0.18593467470874006  0.587018880741695  1.0000
  C   C21       1.0  0.6613612179405733  0.14660895985260683  0.6268114571272463  1.0000
  C   C22       1.0  0.6915825309291964  0.09896487946724637  0.6587427014382996  1.0000
  C   C23       1.0  0.1076626057214725  0.23415425384678906  0.7031536550554662  1.0000
  C   C24       1.0  0.6516337831784397  0.06093709137526556  0.6994060008907537  1.0000
  C   C25       1.0  0.5824348721802439  0.06475568962525827  0.7031741259234678  1.0000
  C   C26       1.0  0.7641761738111511  0.17129572051022277  0.5748808116802023  1.0000
  C   C27       1.0  0.7887845602280238  0.11807623194021494  0.6000217743715908  1.0000
  C   C28       1.0  0.8656666580637377  0.09974689387774298  0.5166387908944683  1.0000
  C   C29       1.0  0.7549131909976481  0.08629856232700935  0.6451608504061711  1.0000
  C   C30       1.0  0.09965917569685699  0.6967993466228252  0.4309107638605524  1.0000
  C   C31       1.0  0.0229835309223105  0.6980637506219124  0.4028601737966966  1.0000
  C   C32       1.0  0.9472311148444846  0.6207048859716124  0.35419530294095136  1.0000
  C   C33       1.0  0.9451515258027429  0.5432099255607312  0.3401523267096351  1.0000
  C   C34       1.0  0.8397572358708912  0.08778475742232669  0.5726735371466914  1.0000
  C   C35       1.0  0.0223998250070352  0.5427528380463116  0.37506233494924146  1.0000
  C   C36       1.0  0.1009565307397935  0.6208739386060171  0.418186207517138  1.0000
  C   C37       1.0  0.8671898108532119  0.4638190811379204  0.2962366527661117  1.0000
  C   C38       1.0  0.8652409970410349  0.3899137294062528  0.29251282626167113  1.0000
  C   C39       1.0  0.9412611165200462  0.38854885620708063  0.33162913608139644  1.0000
  C   C40       1.0  0.101124620806182  0.22737606383671496  0.6306465343150689  1.0000
  C   C41       1.0  0.020494761998861605  0.4659774183161287  0.37072384512189416  1.0000
  C   C42       1.0  0.0973446194594132  0.46625622437900194  0.4089548269106088  1.0000
  C   C43       1.0  0.17624416256428077  0.5446580506123835  0.44709446069705894  1.0000
  C   C44       1.0  0.17798565776507053  0.6186000582693791  0.4514053052653536  1.0000
  C   C45       1.0  0.7122673641185103  0.7775841092681686  0.363919121668033  1.0000
  C   C46       1.0  0.939978031895585  0.3152980432179363  0.33568843171668317  1.0000
  C   C47       1.0  0.014589704758307698  0.3161694350560324  0.37723944741863846  1.0000
  C   C48       1.0  0.0927398777922477  0.3913690390004163  0.4109936534732411  1.0000
  C   C49       1.0  0.5759437034949003  0.7159812670317577  0.2386020462747779  1.0000
  C   C50       1.0  0.5294126589646524  0.7379499354355585  0.1873800945421847  1.0000
  C   C51       1.0  0.4489524458039043  0.6786552821158763  0.12831105968731998  1.0000
  C   C52       1.0  0.8607817333046485  0.027343810876459537  0.5859234413325396  1.0000
  C   C53       1.0  0.41051716199962845  0.5937836071893655  0.11725228229150984  1.0000
  C   C54       1.0  0.45494388473517233  0.5733229059256644  0.17146383814031904  1.0000
  C   C55       1.0  0.5358583847259837  0.632578483322085  0.23030635563902266  1.0000
  C   C56       1.0  0.299881577440999  0.15245521230301046  0.5658423960548404  1.0000
  C   C57       1.0  0.18188157588001272  0.37533282829534886  0.907692887434216  1.0000
  C   C58       1.0  0.13640052511833292  0.30403232117908624  0.8387003126461323  1.0000
  C   C59       1.0  0.17668790945696597  0.39055370045373644  0.774249171652741  1.0000
  C   C60       1.0  0.22164767499144494  0.4621133593105426  0.8432585702720985  1.0000
  C   C61       1.0  0.23004277650817068  0.4559551004429423  0.9124574601465694  1.0000
  C   C62       1.0  0.332827300262963  0.5259470106866571  0.050298658317878144  1.0000
  C   C63       1.0  0.2947385186160644  0.5291743836595373  0.9839282585204071  1.0000
  C   C64       1.0  0.9407748792679911  0.1640478559585433  0.36623522964453764  1.0000
  C   C65       1.0  0.1369167954363917  0.3092767980829406  0.7709124433593287  1.0000
  C   C66       1.0  0.9848028347253293  0.8211100500493272  0.7582241320690882  1.0000
  C   C67       1.0  0.08676778409737548  0.8571929905943774  0.485894487256715  1.0000
  C   C68       1.0  0.059893309305081716  0.8344127150868842  0.8143464964334726  1.0000
  C   C69       1.0  0.05920610378208831  0.8109796798547746  0.8732866843332799  1.0000
  C   C70       1.0  0.9830234190316745  0.7726448007501288  0.8791417665527133  1.0000
  C   C71       1.0  0.9071676344372435  0.7527572519294949  0.8192290773357485  1.0000
  C   C72       1.0  0.9079208079466312  0.77668575953507  0.7605162643373119  1.0000
  C   C73       1.0  0.9617345961578964  0.7971574219912227  0.09076077099984299  1.0000
  C   C74       1.0  0.961508155050396  0.8262228338325385  0.1604297925907475  1.0000
  C   C75       1.0  0.10606480797007833  0.8617082660330836  0.22531124427032975  1.0000
  C   C76       1.0  0.0591519463230483  0.918077568453448  0.7044431549417067  1.0000
  C   C77       1.0  0.10796126571815992  0.8343458432334144  0.1554036244499953  1.0000
  C   C78       1.0  0.9560354096128876  0.8989575484758986  0.3053426183244951  1.0000
  C   C79       1.0  0.0367355001294172  0.8043899574074016  0.08625815795925001  1.0000
  C   C80       1.0  0.978987735549012  0.7629217272375257  0.9464989867104805  1.0000
  C   C81       1.0  0.044522786543410596  0.7925802878575324  0.015603037114644287  1.0000
  C   C82       1.0  0.03452551307608331  0.8635861925349245  0.23111969196294513  1.0000
  C   C83       1.0  0.9873948025144443  0.8561580904291545  0.702709100189601  1.0000
  C   C84       1.0  0.0964578205676716  0.9755921610594168  0.37022268797232266  1.0000
  Br  Br1       1.0  0.20755234315586085  0.8980611182467796  0.313686324909959  1.0000
  N   N1        1.0  0.9488686152049438  0.8898220768801008  0.6039898957267835  1.0000
  N   N2        1.0  0.0843826277314577  0.10659322659940777  0.6318975140090259  1.0000
  N   N3        1.0  0.8978045005692722  0.04932904904246266  0.4978475127154311  1.0000
  N   N4        1.0  0.08768319772887172  0.15096343831599057  0.5891905430389954  1.0000
  N   N5        1.0  0.8947784539353736  0.0048094612386080276  0.5404551771507187  1.0000
  N   N6        1.0  0.965592322528849  0.11600174722224922  0.39454239924751267  1.0000
  N   N7        1.0  0.03592355798302551  0.9378168246751737  0.6456961529056499  1.0000
  N   N8        1.0  0.790827170681702  0.8458436754640672  0.40059362154385525  1.0000
  N   N9        1.0  0.222623167535879  0.12256879429388327  0.564305221651807  1.0000
  N   N10       1.0  0.05472143343872921  0.9074923190009371  0.5054829164213216  1.0000
  N   N11       1.0  0.9759808377723401  0.9587519237134073  0.37163805892993196  1.0000
  N   N12       1.0  0.0621626305610974  0.005778746017448106  0.4114017308616552  1.0000
  N   N13       1.0  0.9685888025376813  0.8621478972026111  0.4644189170322475  1.0000
  N   N14       1.0  0.7953962078864691  0.8915669178022869  0.3581356133572696  1.0000
  N   N15       1.0  0.21988452883355344  0.0785724917242803  0.6082739616802257  1.0000
  N   N16       1.0  0.052551325028503  0.1617649779639548  0.4370204540308009  1.0000
