data_image0
_chemical_formula_structural       Ca2P4H12C8N12O16
_chemical_formula_sum              "Ca2 P4 H12 C8 N12 O16"
_cell_length_a       5.275800253000501
_cell_length_b       10.107162402783151
_cell_length_c       11.973373350312183
_cell_angle_alpha    103.17728839117301
_cell_angle_beta     89.99998229339202
_cell_angle_gamma    89.99995865552403

_space_group_name_H-M_alt    "P 1"
_space_group_IT_number       1

loop_
  _space_group_symop_operation_xyz
  'x, y, z'

loop_
  _atom_site_type_symbol
  _atom_site_label
  _atom_site_symmetry_multiplicity
  _atom_site_fract_x
  _atom_site_fract_y
  _atom_site_fract_z
  _atom_site_occupancy
  Ca  Ca1       1.0  0.500000831248883  0.999999394578083  0.9999995423587361  1.0000
  Ca  Ca2       1.0  0.9999994319342778  0.5000000402955821  0.5000006217035062  1.0000
  P   P1        1.0  0.5094767919380915  0.45837149207181227  0.2938664159514274  1.0000
  P   P2        1.0  0.009477134424621201  0.0416286545919107  0.20613342389563624  1.0000
  P   P3        1.0  0.49052211988614414  0.5416277920015561  0.7061339061730789  1.0000
  P   P4        1.0  0.9905236728461729  0.9583716470090876  0.7938662599800562  1.0000
  H   H1        1.0  0.400782230485639  0.6819205164337492  0.2831277707266509  1.0000
  H   H2        1.0  0.9007821356198421  0.8180808791605686  0.21687214983647612  1.0000
  H   H3        1.0  0.599216681337829  0.3180797837920509  0.7168727480702939  1.0000
  H   H4        1.0  0.09921867165125063  0.18191942381604062  0.7831266991181776  1.0000
  H   H5        1.0  0.08394337892403311  0.40632199002507013  0.01062775710673243  1.0000
  H   H6        1.0  0.5839434035588199  0.09367812275709753  0.48937290123244265  1.0000
  H   H7        1.0  0.916057428346477  0.5936783102003177  0.9893727616899992  1.0000
  H   H8        1.0  0.41605740371169025  0.9063221774682904  0.5106276175642889  1.0000
  H   H9        1.0  0.6686376628319266  0.2598582409632115  0.16396017637405438  1.0000
  H   H10       1.0  0.168635744835143  0.2401418362244031  0.33603962835887546  1.0000
  H   H11       1.0  0.33136314443935083  0.7401410431097376  0.8360401457502389  1.0000
  H   H12       1.0  0.8313631669886165  0.7598584653770147  0.6639600555170231  1.0000
  C   C1        1.0  0.2088512898151578  0.5589581547265682  0.1494090531855221  1.0000
  C   C2        1.0  0.7088528270630761  0.941040274815812  0.3505911546253343  1.0000
  C   C3        1.0  0.7911495174564109  0.4410411307219989  0.850590434017732  1.0000
  C   C4        1.0  0.29114987565572653  0.05895799172868982  0.6494098057473534  1.0000
  C   C5        1.0  0.37423870817501376  0.3235355929436494  0.08121700738196577  1.0000
  C   C6        1.0  0.8742329814507244  0.17646642542548113  0.4187839802572027  1.0000
  C   C7        1.0  0.6257639945433057  0.6764636911288875  0.9187833147421214  1.0000
  C   C8        1.0  0.1257621394778781  0.8235348909535816  0.5812167352125923  1.0000
  N   N1        1.0  0.3723581903424887  0.582619199944567  0.23976144611941655  1.0000
  N   N2        1.0  0.8723598234361845  0.9173791595996762  0.26023789069717645  1.0000
  N   N3        1.0  0.6276426169295564  0.4173790679759507  0.7602386793324452  1.0000
  N   N4        1.0  0.1276428792824262  0.08262012584847873  0.7397615965058716  1.0000
  N   N5        1.0  0.20401611899535507  0.42730995240663816  0.08170865753800877  1.0000
  N   N6        1.0  0.7040181177587856  0.07269010933679002  0.41829113938923246  1.0000
  N   N7        1.0  0.795982792828397  0.5726903491947796  0.9182910263378968  1.0000
  N   N8        1.0  0.29598268951201584  0.9273101922642085  0.5817085444864603  1.0000
  N   N9        1.0  0.5427628628469492  0.34005089304586283  0.16904967831568735  1.0000
  N   N10       1.0  0.0427610591858709  0.15994923771274475  0.3309509891090129  1.0000
  N   N11       1.0  0.45723794442432814  0.6599483910270936  0.8309506438086058  1.0000
  N   N12       1.0  0.9572378526375971  0.8400510625130623  0.6690495296879246  1.0000
  O   O1        1.0  0.07130243647420541  0.647721347537676  0.1232718521658143  1.0000
  O   O2        1.0  0.5713059735137592  0.8522801918797427  0.3767281410873834  1.0000
  O   O3        1.0  0.928698370796596  0.3522789540633228  0.8767278317098782  1.0000
  O   O4        1.0  0.4286986246503588  0.147721125872863  0.6232717394603282  1.0000
  O   O5        1.0  0.36780186938796794  0.22032691813164013  0.000844793281771727  1.0000
  O   O6        1.0  0.8677997348034837  0.2796730721172409  0.4991549675111882  1.0000
  O   O7        1.0  0.6322008333298754  0.7796733834689464  0.9991548905937077  1.0000
  O   O8        1.0  0.13219917702026862  0.7203272294841697  0.5008447163647104  1.0000
  O   O9        1.0  0.32457215234408215  0.4048259960870909  0.36950130101632067  1.0000
  O   O10       1.0  0.8245743212267129  0.09517401165579291  0.13049930423463246  1.0000
  O   O11       1.0  0.6754267594793789  0.595174304138709  0.6304992177806168  1.0000
  O   O12       1.0  0.1754264860437971  0.904826288569595  0.8695012145620991  1.0000
  O   O13       1.0  0.7651649691957516  0.5033113127095208  0.3404901843063114  1.0000
  O   O14       1.0  0.2651666110998292  0.9966891245557651  0.15951040442536882  1.0000
  O   O15       1.0  0.23483394262770935  0.4966889875162863  0.6595103344906261  1.0000
  O   O16       1.0  0.7348341961709651  0.003311177045233601  0.8404892794503237  1.0000
