data_image0
_chemical_formula_structural       Cu4Si2H32C14S4Cl4
_chemical_formula_sum              "Cu4 Si2 H32 C14 S4 Cl4"
_cell_length_a       6.462853056347924
_cell_length_b       7.791202578852949
_cell_length_c       13.188438697324937
_cell_angle_alpha    73.99955276630101
_cell_angle_beta     88.66732025591939
_cell_angle_gamma    88.77668088137544

_space_group_name_H-M_alt    "P 1"
_space_group_IT_number       1

loop_
  _space_group_symop_operation_xyz
  'x, y, z'

loop_
  _atom_site_type_symbol
  _atom_site_label
  _atom_site_symmetry_multiplicity
  _atom_site_fract_x
  _atom_site_fract_y
  _atom_site_fract_z
  _atom_site_occupancy
  Cu  Cu1       1.0  0.4865491353126855  0.42263212454055576  0.10622116172011431  1.0000
  Cu  Cu2       1.0  0.5134559993059823  0.5773676157755505  0.8937830197992936  1.0000
  Cu  Cu3       1.0  0.9598077713454529  0.41346949135468963  0.13181429188892219  1.0000
  Cu  Cu4       1.0  0.040192776067151194  0.5865195989010986  0.868190186353729  1.0000
  Si  Si1       1.0  0.31191314148814087  0.28528991124747455  0.39533978346493365  1.0000
  Si  Si2       1.0  0.6880779131503302  0.7147246151316935  0.6046576175993009  1.0000
  H   H1        1.0  0.2628587909736169  0.6131443738344159  0.3611009300319665  1.0000
  H   H2        1.0  0.7371261640804575  0.386855512586969  0.6388982024212237  1.0000
  H   H3        1.0  0.41030053692243473  0.9070193937643439  0.198350268625731  1.0000
  H   H4        1.0  0.5896877706027794  0.09297654869580901  0.8016706956214179  1.0000
  H   H5        1.0  0.487507833480592  0.866502885094164  0.07701130459774669  1.0000
  H   H6        1.0  0.5124943247358046  0.1335022819828637  0.9230064342307073  1.0000
  H   H7        1.0  0.13778250144008547  0.7773563257190406  0.046390449473314256  1.0000
  H   H8        1.0  0.8622320194177319  0.22261793768178248  0.953610960130291  1.0000
  H   H9        1.0  0.13024100953062148  0.9895133319729723  0.07125331465169181  1.0000
  H   H10       1.0  0.8697626016405948  0.010462332145706897  0.9287419517367111  1.0000
  H   H11       1.0  0.8389550513812265  0.8140818003280829  0.162772070491755  1.0000
  H   H12       1.0  0.16105306496059768  0.18589243320282384  0.8372097191671628  1.0000
  H   H13       1.0  0.0086629820425017  0.8505556914991814  0.25791955468245925  1.0000
  H   H14       1.0  0.9912846495372205  0.14944845468822618  0.742065752543745  1.0000
  H   H15       1.0  0.6803997150120153  0.2604876208898546  0.3421306816903709  1.0000
  H   H16       1.0  0.3195927938242136  0.739544261150712  0.6578661235915674  1.0000
  H   H17       1.0  0.6286791897525885  0.12454190270420182  0.4719666635438671  1.0000
  H   H18       1.0  0.3713303546562868  0.8754885018019039  0.528030145728458  1.0000
  H   H19       1.0  0.6597239093661428  0.35866312883371176  0.4490892726409825  1.0000
  H   H20       1.0  0.3402669806422409  0.6413767717871935  0.5509047219923601  1.0000
  H   H21       1.0  0.2280452546563723  0.357719593556503  0.5658259216512462  1.0000
  H   H22       1.0  0.771963049354831  0.6422680998735046  0.4341794355700585  1.0000
  H   H23       1.0  0.1903680472713631  0.12900714481902753  0.5759988736932229  1.0000
  H   H24       1.0  0.8096417090500125  0.8709885319208583  0.4240013608897114  1.0000
  H   H25       1.0  0.0041783219581575  0.29114383104440134  0.5114682385688667  1.0000
  H   H26       1.0  0.995823702349611  0.7088532519347838  0.48853338990331  1.0000
  H   H27       1.0  0.04593344709994079  0.1296316326512112  0.319682334866684  1.0000
  H   H28       1.0  0.9540747258767509  0.8703680598430806  0.6803165041724171  1.0000
  H   H29       1.0  0.2542502214859113  0.9836699253923273  0.3753357371718521  1.0000
  H   H30       1.0  0.7457564227224508  0.016325770928830304  0.6246630212876879  1.0000
  H   H31       1.0  0.2864153070257984  0.1417733329659256  0.25007349107282545  1.0000
  H   H32       1.0  0.7135804985477633  0.8582278076909304  0.7499275581609766  1.0000
  C   C1        1.0  0.2610815329918665  0.5246076634660498  0.30854263083744365  1.0000
  C   C2        1.0  0.7388987875737313  0.47539092641949315  0.6914567794592728  1.0000
  C   C3        1.0  0.3797833010903702  0.8252169157118985  0.144666338328129  1.0000
  C   C4        1.0  0.6202219336704005  0.17478018534008302  0.8553458577390245  1.0000
  C   C5        1.0  0.1573678618534372  0.8458902838623957  0.10792506142587398  1.0000
  C   C6        1.0  0.84264812139714  0.1541013383376608  0.8920765100180714  1.0000
  C   C7        1.0  0.9947768873201143  0.7847730791003471  0.19466172632186837  1.0000
  C   C8        1.0  0.0052202284600043  0.21522795763070232  0.8053173322946562  1.0000
  C   C9        1.0  0.597208300520954  0.25560391924670983  0.41643315829299604  1.0000
  C   C10       1.0  0.4027935382614345  0.7444252239940141  0.5835662408126296  1.0000
  C   C11       1.0  0.1707316629648332  0.2650423585387642  0.5237730675503228  1.0000
  C   C12       1.0  0.829270362244003  0.7349533859813208  0.4762280224599351  1.0000
  C   C13       1.0  0.214660146074813  0.1201622704564969  0.32885155246511727  1.0000
  C   C14       1.0  0.7853449639588558  0.8798374604460976  0.6711503561863877  1.0000
  S   S1        1.0  0.0005805689041195981  0.5452308843238002  0.25693467734937764  1.0000
  S   S2        1.0  0.9994166616059843  0.45477019633699467  0.7430549879839958  1.0000
  S   S3        1.0  0.4665806340252132  0.5988153248118236  0.21154355038362382  1.0000
  S   S4        1.0  0.533421484031777  0.4011764388472088  0.7884642580898314  1.0000
  Cl  Cl1       1.0  0.21980890681499687  0.34697820599046036  0.0182548636634365  1.0000
  Cl  Cl2       1.0  0.7801962586960798  0.6530121745254933  0.9817478214904297  1.0000
  Cl  Cl3       1.0  0.7210476091461898  0.1902599734156993  0.1525643226182964  1.0000
  Cl  Cl4       1.0  0.27894821092979066  0.809731801165313  0.8474337150046906  1.0000
