data_image0
_chemical_formula_structural       Hg4H36C44Br8N12O4
_chemical_formula_sum              "Hg4 H36 C44 Br8 N12 O4"
_cell_length_a       8.002681686
_cell_length_b       12.249174279542553
_cell_length_c       13.791
_cell_angle_alpha    90.0
_cell_angle_beta     90.0
_cell_angle_gamma    93.97367053955487

_space_group_name_H-M_alt    "P 1"
_space_group_IT_number       1

loop_
  _space_group_symop_operation_xyz
  'x, y, z'

loop_
  _atom_site_type_symbol
  _atom_site_label
  _atom_site_symmetry_multiplicity
  _atom_site_fract_x
  _atom_site_fract_y
  _atom_site_fract_z
  _atom_site_occupancy
  Hg  Hg1       1.0  0.8253232253912018  0.6826568068992032  0.3757842070915842  1.0000
  Hg  Hg2       1.0  0.674682438957703  0.817345573964076  0.8757871075339025  1.0000
  Hg  Hg3       1.0  0.1746835822669794  0.31734587147481363  0.6242136175766788  1.0000
  Hg  Hg4       1.0  0.3253178603882105  0.1826546493633288  0.1242128924661046  1.0000
  H   H1        1.0  0.4734412838465119  0.7096827783203281  0.4955623232542976  1.0000
  H   H2        1.0  0.026559245648435603  0.7903163291474726  0.9955630483648792  1.0000
  H   H3        1.0  0.5265614278594555  0.29031662665820335  0.5044376767457024  1.0000
  H   H4        1.0  0.9734359685707688  0.20968307583106596  0.0044384018562837  1.0000
  H   H5        1.0  0.5009101544554113  0.0030565330282499  0.6705344064969907  1.0000
  H   H6        1.0  0.99908715517261  0.49694235111215335  0.1705358567181463  1.0000
  H   H7        1.0  0.4990887217049718  0.9969420536014156  0.3294648683924279  1.0000
  H   H8        1.0  0.0009068962676793026  0.5030578722152583  0.8294655935030093  1.0000
  H   H9        1.0  0.8066508641477841  0.030182343011475207  0.62473932274672  1.0000
  H   H10       1.0  0.6933476950613625  0.46981654112892113  0.124737147414983  1.0000
  H   H11       1.0  0.1933493483959268  0.9698170619670635  0.3752635776955984  1.0000
  H   H12       1.0  0.3066487687389739  0.5301828638496104  0.875262852585017  1.0000
  H   H13       1.0  0.9250359483063378  0.8945911604707535  0.5118816619534456  1.0000
  H   H14       1.0  0.5749642837070182  0.6054071286481816  0.011878761511127302  1.0000
  H   H15       1.0  0.07496676339962248  0.10540824450778533  0.4881219635994469  1.0000
  H   H16       1.0  0.425030930512186  0.3945922763303571  0.9881205133782913  1.0000
  H   H17       1.0  0.0473223321768472  0.5550909483960141  0.5634624030164588  1.0000
  H   H18       1.0  0.452675524551431  0.9449065223740547  0.0634573272424035  1.0000
  H   H19       1.0  0.9526776199602409  0.44490600153591947  0.4365419476470151  1.0000
  H   H20       1.0  0.5473242539812447  0.0550887908601325  0.9365361467623787  1.0000
  H   H21       1.0  0.7616896523373882  0.4865321351409763  0.6227989268363459  1.0000
  H   H22       1.0  0.7383077440928362  0.0134675673482931  0.1227916757305465  1.0000
  H   H23       1.0  0.2383104734041126  0.5134664514886965  0.3772068740482908  1.0000
  H   H24       1.0  0.2616911320675399  0.9865310192813725  0.8772003480530799  1.0000
  H   H25       1.0  0.6162783520805634  0.5999094609416816  0.7438510622869998  1.0000
  H   H26       1.0  0.8837202487926208  0.9000970116659488  0.2438474367341001  1.0000
  H   H27       1.0  0.3837213052996873  0.4000964908278135  0.2561496628235815  1.0000
  H   H28       1.0  0.11627807220428818  0.09990812175467313  0.7561489377130003  1.0000
  H   H29       1.0  0.010597968972831516  0.8390260905684671  0.7453462403016431  1.0000
  H   H30       1.0  0.4894032549397736  0.6609795636902973  0.2453505909651241  1.0000
  H   H31       1.0  0.9894062527208831  0.1609757694566767  0.2546530345877756  1.0000
  H   H32       1.0  0.5105987279983069  0.3390247513814586  0.7546523094771943  1.0000
  H   H33       1.0  0.2853590067082479  0.6734421986266242  0.6005750126894327  1.0000
  H   H34       1.0  0.21464018640335777  0.8265560904923106  0.10057501268943271  1.0000
  H   H35       1.0  0.7146412058354629  0.3265572063519074  0.3994235370894046  1.0000
  H   H36       1.0  0.7853600261403528  0.17344331448622802  0.8994257124211416  1.0000
  C   C1        1.0  0.5409168808494229  0.7820821028207734  0.5266652164455081  1.0000
  C   C2        1.0  0.9590833511639332  0.7179161862981618  0.0266659415560895  1.0000
  C   C3        1.0  0.4590845812754126  0.21791730215776545  0.4733340584439105  1.0000
  C   C4        1.0  0.040914275415310904  0.28208240033150395  0.9733355086650732  1.0000
  C   C5        1.0  0.4638225180426546  0.8538954895305224  0.5885548546153316  1.0000
  C   C6        1.0  0.0361755122900362  0.6461036179372854  0.0885548546153316  1.0000
  C   C7        1.0  0.5361764449199313  0.1461039154480162  0.4114458704952497  1.0000
  C   C8        1.0  0.9638198755335807  0.3538974237389922  0.9114473207164124  1.0000
  C   C9        1.0  0.5600661131366069  0.9456872271957267  0.6232731491552457  1.0000
  C   C10       1.0  0.9399341188767566  0.5543110619232081  0.1232731491552457  1.0000
  C   C11       1.0  0.43993642496494806  0.0543105410850728  0.3767275759553357  1.0000
  C   C12       1.0  0.06006243172578251  0.4456891614041965  0.8767290261764913  1.0000
  C   C13       1.0  0.727882833780541  0.9607710335616347  0.5975186715974204  1.0000
  C   C14       1.0  0.772113562687231  0.5392264372084271  0.097515771155102  1.0000
  C   C15       1.0  0.2721160423798352  0.03922755306803081  0.40248495395547934  1.0000
  C   C16       1.0  0.22787665320746697  0.46077296777011173  0.902484228844898  1.0000
  C   C17       1.0  0.7943228531067134  0.8857022550483081  0.5348212602421896  1.0000
  C   C18       1.0  0.7056787152899773  0.6142968524194998  0.0348198100210269  1.0000
  C   C19       1.0  0.20568110818037874  0.11429714993023053  0.4651816402001288  1.0000
  C   C20       1.0  0.29431917169589644  0.385704189256778  0.965181640200129  1.0000
  C   C21       1.0  0.2831908744532967  0.8410220434616137  0.6180160974548627  1.0000
  C   C22       1.0  0.2168038411470476  0.6589811557505456  0.11801464723370002  1.0000
  C   C23       1.0  0.7168059365558648  0.1589806349124032  0.38198462765571867  1.0000
  C   C24       1.0  0.7831926226532815  0.341018249227993  0.8819860778768742  1.0000
  C   C25       1.0  0.051609049841097515  0.7016965117011439  0.6499825973460958  1.0000
  C   C26       1.0  0.4483903168749279  0.7983034141155374  0.1499804220143588  1.0000
  C   C27       1.0  0.948391249504823  0.29830371162626795  0.350018852875067  1.0000
  C   C28       1.0  0.5516123080288297  0.20169517251413546  0.8500152273221673  1.0000
  C   C29       1.0  0.978446853077543  0.6018170321569016  0.6152867812341398  1.0000
  C   C30       1.0  0.5215509665757736  0.8981820753108992  0.1152824305706588  1.0000
  C   C31       1.0  0.0215494371183738  0.3981807361238907  0.3847161192081785  1.0000
  C   C32       1.0  0.4784501483402295  0.1018140562721541  0.8847110434341232  1.0000
  C   C33       1.0  0.8208947947049197  0.5639667602365394  0.6481371909216165  1.0000
  C   C34       1.0  0.679105610912849  0.9360331655801347  0.1481321151475612  1.0000
  C   C35       1.0  0.17910800380325043  0.43603346309086544  0.3518664346312832  1.0000
  C   C36       1.0  0.3208969271886986  0.06396460270066481  0.8518599086360653  1.0000
  C   C37       1.0  0.7391880437422602  0.626613002908158  0.7151475600028974  1.0000
  C   C38       1.0  0.7608112858988039  0.873388559606255  0.2151417591182678  1.0000
  C   C39       1.0  0.2608099300458164  0.3733888571169929  0.2848546153288396  1.0000
  C   C40       1.0  0.23919017622603891  0.1266108453722765  0.7848517148865213  1.0000
  C   C41       1.0  0.9609780362953658  0.7606479092261582  0.7166681168878242  1.0000
  C   C42       1.0  0.5390203041711885  0.7393561083348672  0.21666956710898694  1.0000
  C   C43       1.0  0.0390223498527575  0.23935313245011974  0.2833311580015945  1.0000
  C   C44       1.0  0.4609801687791446  0.26064575169027654  0.7833304328910131  1.0000
  Br  Br1       1.0  0.6190175655781971  0.5141587746324419  0.3851475600028991  1.0000
  Br  Br2       1.0  0.8809880119684977  0.9858427878819712  0.8851475600028992  1.0000
  Br  Br3       1.0  0.38098665611551746  0.48584308539270193  0.6148531651076823  1.0000
  Br  Br4       1.0  0.1190135369585477  0.014157435445433504  0.1148524399971009  1.0000
  Br  Br5       1.0  0.13349792211312922  0.744272748343896  0.3676999492422581  1.0000
  Br  Br6       1.0  0.366507518904122  0.7557255407750392  0.8677057501268948  1.0000
  Br  Br7       1.0  0.8665117662663564  0.2557217465414254  0.6322957000942608  1.0000
  Br  Br8       1.0  0.6334915308606739  0.24427468255236562  0.1322935247625239  1.0000
  N   N1        1.0  0.7021071752690489  0.7987690546223831  0.4997657892828684  1.0000
  N   N2        1.0  0.7978918071631823  0.7012292344965517  0.9997643390617057  1.0000
  N   N3        1.0  0.2978942868557866  0.20123035035615547  0.5002371111594499  1.0000
  N   N4        1.0  0.20210215747489715  0.2987701704819798  0.0002371111594499  1.0000
  N   N5        1.0  0.8091483701950608  0.7224023748017387  0.747707200348053  1.0000
  N   N6        1.0  0.690853805817092  0.7776024611081526  0.2477064752374716  1.0000
  N   N7        1.0  0.1908561119052834  0.2776019402700173  0.2522935247625284  1.0000
  N   N8        1.0  0.3091505026788326  0.2224002172658643  0.7522913494307915  1.0000
  N   N9        1.0  0.21349608499327397  0.7358846724296911  0.6198977594083104  1.0000
  N   N10       1.0  0.2865031081183389  0.7641136166892437  0.11989775940831043  1.0000
  N   N11       1.0  0.786504040748227  0.26411391419997443  0.3801015154811083  1.0000
  N   N12       1.0  0.7134970176231692  0.23588496994042174  0.8801015154811083  1.0000
  O   O1        1.0  0.205895959854125  0.9218536347152195  0.6393415995939407  1.0000
  O   O2        1.0  0.2941057324197374  0.5781446544037223  0.1393415995939407  1.0000
  O   O3        1.0  0.7941066650496325  0.078144951914453  0.3606584004060593  1.0000
  O   O4        1.0  0.705890731380592  0.42185475057481636  0.8606591255166407  1.0000
