data_image0
_chemical_formula_structural       Mg6H48C84N6O24
_chemical_formula_sum              "Mg6 H48 C84 N6 O24"
_cell_length_a       6.837723592118713
_cell_length_b       42.29144381052992
_cell_length_c       42.29524888630281
_cell_angle_alpha    119.72178011128354
_cell_angle_beta     93.0869472264649
_cell_angle_gamma    93.08205378154122

_space_group_name_H-M_alt    "P 1"
_space_group_IT_number       1

loop_
  _space_group_symop_operation_xyz
  'x, y, z'

loop_
  _atom_site_type_symbol
  _atom_site_label
  _atom_site_symmetry_multiplicity
  _atom_site_fract_x
  _atom_site_fract_y
  _atom_site_fract_z
  _atom_site_occupancy
  Mg  Mg1       1.0  0.49878466506447694  0.6392790797444546  0.32816183819318934  1.0000
  Mg  Mg2       1.0  0.17065205826501995  0.6718027352892904  0.3111441346248754  1.0000
  Mg  Mg3       1.0  0.8593722497913419  0.6888560168648964  0.36069726646286443  1.0000
  Mg  Mg4       1.0  0.34507135143660866  0.35900182480545334  0.6685418712445285  1.0000
  Mg  Mg5       1.0  0.6765534180134479  0.33144914236344647  0.6904377918940627  1.0000
  Mg  Mg6       1.0  0.9861286237083962  0.3095492749405935  0.6409793117298863  1.0000
  H   H1        1.0  0.4197867899063611  0.5555118715986467  0.11255278846308432  1.0000
  H   H2        1.0  0.3070381748339129  0.8874115846132821  0.44291641053806075  1.0000
  H   H3        1.0  0.8642499898442467  0.557076279313648  0.4445401399942456  1.0000
  H   H4        1.0  0.9342223800231794  0.5339931279367817  0.09760423690272553  1.0000
  H   H5        1.0  0.8362750311193353  0.9023548789874877  0.436254225337649  1.0000
  H   H6        1.0  0.4002481048267655  0.5636977454146717  0.46605091173448454  1.0000
  H   H7        1.0  0.050353235934352446  0.5010349719693252  0.03634899883863342  1.0000
  H   H8        1.0  0.013626979185275254  0.9636112682547728  0.4646533046773841  1.0000
  H   H9        1.0  0.5494886398919122  0.5353323872697827  0.4989329601145587  1.0000
  H   H10       1.0  0.07411119711303371  0.4527949681691722  0.9856467029511864  1.0000
  H   H11       1.0  0.08787294344461569  0.014295799761214303  0.46715122243515594  1.0000
  H   H12       1.0  0.6211248139539409  0.5329018722451052  0.5472334002114679  1.0000
  H   H13       1.0  0.2191614949473148  0.4261842776771798  0.9268277241204288  1.0000
  H   H14       1.0  0.29189874811426353  0.0730881987923766  0.4993382514370311  1.0000
  H   H15       1.0  0.792765738041311  0.5007006750256408  0.5738513126134495  1.0000
  H   H16       1.0  0.003507914485950823  0.4335684956017685  0.8487042790335623  1.0000
  H   H17       1.0  0.15446205479518937  0.15126275752155033  0.5848834393998887  1.0000
  H   H18       1.0  0.5698373583841344  0.4151756650543702  0.5664450400747613  1.0000
  H   H19       1.0  0.02321510055115543  0.38504486930602155  0.7940249073424682  1.0000
  H   H20       1.0  0.2290347756955953  0.2059867316148213  0.5910583975922777  1.0000
  H   H21       1.0  0.6379878504969909  0.40900801322833036  0.6149982472353843  1.0000
  H   H22       1.0  0.7223624302733639  0.4033744102479913  0.7757198490637126  1.0000
  H   H23       1.0  0.9466034739766799  0.22418970207586142  0.6275763986975421  1.0000
  H   H24       1.0  0.31893641389132205  0.3723812041399838  0.5965844745541135  1.0000
  H   H25       1.0  0.6215787573284074  0.4243264948445429  0.8390456857677225  1.0000
  H   H26       1.0  0.7822439540577977  0.16088198439415177  0.5852655810139566  1.0000
  H   H27       1.0  0.19696785944334758  0.41474572999258197  0.5756580049721621  1.0000
  H   H28       1.0  0.7902076143903897  0.47255386878902056  0.8872091948997041  1.0000
  H   H29       1.0  0.9029109676144459  0.11273936090235986  0.5853978169458288  1.0000
  H   H30       1.0  0.31758957806125215  0.4146763432892158  0.5274170361771342  1.0000
  H   H31       1.0  0.6475782993561837  0.49955664725190724  0.9460720866432056  1.0000
  H   H32       1.0  0.701286759745969  0.05389799787550228  0.5535605600784238  1.0000
  H   H33       1.0  0.14790834803663705  0.44655126437648823  0.5004365817158745  1.0000
  H   H34       1.0  0.4712830749965137  0.4962529943684329  0.9877054434344148  1.0000
  H   H35       1.0  0.48315221042238227  0.012240632718643998  0.5085448384879783  1.0000
  H   H36       1.0  0.9752084245953726  0.49152235275407447  0.5037663097296701  1.0000
  H   H37       1.0  0.3574117155309438  0.5303805364197415  0.04905284094040506  1.0000
  H   H38       1.0  0.3079846443941746  0.9508829924347421  0.48126293284077803  1.0000
  H   H39       1.0  0.827059238275588  0.518738865667956  0.4696559813243369  1.0000
  H   H40       1.0  0.8505090038943808  0.6175047631907518  0.20946615791718412  1.0000
  H   H41       1.0  0.640711572923401  0.7905000913875851  0.40804191273383605  1.0000
  H   H42       1.0  0.23285613887983198  0.5919780019010047  0.38251938088617277  1.0000
  H   H43       1.0  0.14148297064341628  0.5967864982060006  0.21807319724408109  1.0000
  H   H44       1.0  0.9230614953948334  0.7819485846848053  0.3787417205046355  1.0000
  H   H45       1.0  0.5444570051950492  0.6212813241197921  0.4032382643310371  1.0000
  H   H46       1.0  0.2648219698140509  0.570993694724848  0.15816588846474397  1.0000
  H   H47       1.0  0.1063215020493829  0.8418492027618142  0.41287683257336044  1.0000
  H   H48       1.0  0.693567282428184  0.5871392284734681  0.4289948179583832  1.0000
  C   C1        1.0  0.679811745240862  0.5744746943832694  0.14543708508367822  1.0000
  C   C2        1.0  0.5341906758565003  0.8545256061539488  0.4289872239281822  1.0000
  C   C3        1.0  0.10521647001699108  0.5710130524504534  0.42557288309576796  1.0000
  C   C4        1.0  0.6387410460051655  0.534929348309788  0.07779281230187962  1.0000
  C   C5        1.0  0.5605876749147924  0.9221600406508725  0.4570146066314608  1.0000
  C   C6        1.0  0.10388340284653452  0.5429679673887833  0.4651460154964441  1.0000
  C   C7        1.0  0.8337894263849678  0.5256593981925519  0.07352777491332321  1.0000
  C   C8        1.0  0.7598500248868304  0.9264313741804593  0.45200664663994417  1.0000
  C   C9        1.0  0.30820007441609226  0.5479606230292617  0.4744033852328471  1.0000
  C   C10       1.0  0.8969821430245234  0.5070022338518069  0.038769165551201516  1.0000
  C   C11       1.0  0.8578092129444383  0.9611892654159244  0.46817516859513125  1.0000
  C   C12       1.0  0.3901499486360436  0.5318303297396125  0.4930202133935567  1.0000
  C   C13       1.0  0.772386235313242  0.49657299156095286  0.007001583053728718  1.0000
  C   C14       1.0  0.7649247449427036  0.9929434046234247  0.48955698684287813  1.0000
  C   C15       1.0  0.27593447036083757  0.510494026898783  0.5034433518129121  1.0000
  C   C16       1.0  0.8505219731652289  0.47877510669278656  0.9708983116818645  1.0000
  C   C17       1.0  0.8791248167086466  0.029049409293484988  0.5078954241615464  1.0000
  C   C18       1.0  0.3716636244886616  0.492172055773544  0.5212352694737775  1.0000
  C   C19       1.0  0.011932429195589142  0.4577213650264724  0.9643540367185823  1.0000
  C   C20       1.0  0.047010449158271704  0.035589764755535186  0.4933747429069229  1.0000
  C   C21       1.0  0.5540345518378871  0.5066839413812472  0.5423074659645623  1.0000
  C   C22       1.0  0.0940912931560689  0.44218184008973777  0.9311064690663644  1.0000
  C   C23       1.0  0.16255143047183657  0.06882819465181457  0.511065950319285  1.0000
  C   C24       1.0  0.6516926634761759  0.4889869045001232  0.5578616954465332  1.0000
  C   C25       1.0  0.014463288329451962  0.4474146280903779  0.9028977867665589  1.0000
  C   C26       1.0  0.1112582509469391  0.09705001239442618  0.5445246206302913  1.0000
  C   C27       1.0  0.5668938644772795  0.45553381278566  0.5526022627725882  1.0000
  C   C28       1.0  0.2741269017000789  0.42162725964816156  0.8600643959872445  1.0000
  C   C29       1.0  0.4136216746914557  0.1398897299445991  0.561541891197564  1.0000
  C   C30       1.0  0.8523591477432931  0.4385098298848575  0.578403623804775  1.0000
  C   C31       1.0  0.3156166412540102  0.40799779721789514  0.8212045801430892  1.0000
  C   C32       1.0  0.4941386198851347  0.17874824939459438  0.5867798054845609  1.0000
  C   C33       1.0  0.9074486826768366  0.4132850688091167  0.5920443110889337  1.0000
  C   C34       1.0  0.17693993566713573  0.390502442784367  0.7910060467529691  1.0000
  C   C35       1.0  0.3858044513695873  0.20897626961183846  0.5994979776188316  1.0000
  C   C36       1.0  0.7863249242727264  0.4005637239841278  0.6095367398412251  1.0000
  C   C37       1.0  0.22960907383102117  0.3771166193411587  0.7550203516881595  1.0000
  C   C38       1.0  0.474660621936401  0.24495837338094614  0.6220762210269158  1.0000
  C   C39       1.0  0.8525848293309649  0.3779581229417202  0.6229071804809934  1.0000
  C   C40       1.0  0.430790557021588  0.38245378195231433  0.7493725069028658  1.0000
  C   C41       1.0  0.6815090492084863  0.25059506038433443  0.6330200741250849  1.0000
  C   C42       1.0  0.04844093370152791  0.3669796288875203  0.6175696674729069  1.0000
  C   C43       1.0  0.5693959294207006  0.4000211066030771  0.780431713300928  1.0000
  C   C44       1.0  0.7889147709039577  0.21950674178312812  0.6195268774685729  1.0000
  C   C45       1.0  0.16929579578220463  0.3804534992634315  0.5999726556021018  1.0000
  C   C46       1.0  0.5139366950935623  0.4118539904044167  0.8151787165900829  1.0000
  C   C47       1.0  0.6985023066972006  0.18475898663437107  0.5966474323122172  1.0000
  C   C48       1.0  0.10185355259763186  0.40337531903986706  0.5881563163597721  1.0000
  C   C49       1.0  0.07508840295307101  0.3565725584929779  0.7245239731513139  1.0000
  C   C50       1.0  0.35063592008995664  0.2754697681861699  0.6320592103367846  1.0000
  C   C51       1.0  0.7186038111463092  0.3679604301917718  0.6434168305907593  1.0000
  C   C52       1.0  0.8523995945897838  0.46802973271189074  0.9088247835623381  1.0000
  C   C53       1.0  0.9434527559211929  0.09111234654265839  0.5592506388189946  1.0000
  C   C54       1.0  0.384312536592418  0.44082589434930924  0.531952626422509  1.0000
  C   C55       1.0  0.7718089545960536  0.4832938762804202  0.9421583672569511  1.0000
  C   C56       1.0  0.8293572274401058  0.05779593851806198  0.5411880189163157  1.0000
  C   C57       1.0  0.2883603767139036  0.4589068433614754  0.5167088541428841  1.0000
  C   C58       1.0  0.5756387368305768  0.5048845543205474  0.011583395936746404  1.0000
  C   C59       1.0  0.5636169807594343  0.9883575598298363  0.4932652324443015  1.0000
  C   C60       1.0  0.0708982882790608  0.5067773468565306  0.49513770740919955  1.0000
  C   C61       1.0  0.510162687769487  0.5238048082810848  0.046289261075337255  1.0000
  C   C62       1.0  0.4634388272833263  0.9536566009260737  0.4774249045763099  1.0000
  C   C63       1.0  0.9863978928761626  0.5225685544208429  0.47624347534571854  1.0000
  C   C64       1.0  0.5735570491128216  0.5913509725484473  0.17921196251617744  1.0000
  C   C65       1.0  0.39402059142690854  0.8207762723842787  0.4121433899232657  1.0000
  C   C66       1.0  0.9820185245290604  0.5878591361107154  0.4086625821069563  1.0000
  C   C67       1.0  0.6948119902914415  0.6127253047870125  0.21139755106348448  1.0000
  C   C68       1.0  0.4830724704912868  0.7885842283823336  0.40134595092029485  1.0000
  C   C69       1.0  0.08188954874210458  0.598665937051237  0.3872856392591332  1.0000
  C   C70       1.0  0.6259333023692333  0.6276513568569794  0.24597698100237148  1.0000
  C   C71       1.0  0.379554842394171  0.75400942313788  0.3816904637388065  1.0000
  C   C72       1.0  0.9979735903022231  0.6182952118476948  0.3723388886627534  1.0000
  C   C73       1.0  0.42209298851118143  0.621017667339032  0.24908845187925993  1.0000
  C   C74       1.0  0.17257688589547363  0.7509101315662219  0.3719561354950117  1.0000
  C   C75       1.0  0.8007112676822602  0.6280302014211967  0.3789608969310337  1.0000
  C   C76       1.0  0.29790003482337096  0.6011144848551521  0.2161678598293264  1.0000
  C   C77       1.0  0.08137106920774069  0.783844482405506  0.38498771850481023  1.0000
  C   C78       1.0  0.6965415520938549  0.6150320065438634  0.39889072398110426  1.0000
  C   C79       1.0  0.3708467524017608  0.5864878264755332  0.18213540704757494  1.0000
  C   C80       1.0  0.18836191943287878  0.8178723221628132  0.404393545931491  1.0000
  C   C81       1.0  0.7841119614867367  0.5956208303433853  0.413508317389173  1.0000
  C   C82       1.0  0.772662090988547  0.649074740842856  0.27754857071354894  1.0000
  C   C83       1.0  0.4947244244632146  0.7224325338985409  0.371541501389075  1.0000
  C   C84       1.0  0.12335124841323618  0.6284409554843149  0.3509188170286635  1.0000
  N   N1        1.0  0.5677579699593096  0.5544632982836928  0.112370401042341  1.0000
  N   N2        1.0  0.45515547647426047  0.8875877364384759  0.44200958905786797  1.0000
  N   N3        1.0  0.013280608023286742  0.5579856839619521  0.44560586899413585  1.0000
  N   N4        1.0  0.08846665582167648  0.43229571848912934  0.868391329913628  1.0000
  N   N5        1.0  0.21971835195068218  0.13156675190600708  0.5639123404892105  1.0000
  N   N6        1.0  0.656041720148707  0.43613658703219466  0.5677077875619931  1.0000
  O   O1        1.0  0.9456812146430663  0.6578127471169778  0.2731466797882903  1.0000
  O   O2        1.0  0.6720517398445197  0.726827007045088  0.3847202394478729  1.0000
  O   O3        1.0  0.2875501654741869  0.6152691247081562  0.34214273149199675  1.0000
  O   O4        1.0  0.721790279448598  0.6581149529331966  0.3097901749033341  1.0000
  O   O5        1.0  0.4117637822206816  0.6901839497620228  0.34831535026403776  1.0000
  O   O6        1.0  0.06357243956793471  0.6516775627210689  0.3419146134291609  1.0000
  O   O7        1.0  0.34750989406793314  0.6325315855602369  0.28126789446064043  1.0000
  O   O8        1.0  0.06589154965685393  0.7187271599916725  0.35127616815810825  1.0000
  O   O9        1.0  0.7145589972602481  0.6486786196825135  0.3674309742710237  1.0000
  O   O10       1.0  0.901062853228474  0.34970308044496073  0.7302335986071429  1.0000
  O   O11       1.0  0.1709381429640544  0.2697718440948548  0.6194690767876311  1.0000
  O   O12       1.0  0.5514278489232751  0.3805281469758484  0.6502920301999852  1.0000
  O   O13       1.0  0.12003177629797794  0.3456106032517638  0.6914930169191678  1.0000
  O   O14       1.0  0.42857951891668483  0.30849878151499865  0.6541377529283353  1.0000
  O   O15       1.0  0.7744891373477713  0.3458752168683504  0.6543577806261356  1.0000
  O   O16       1.0  0.496028656900485  0.37124240010773235  0.716451340187483  1.0000
  O   O17       1.0  0.7796663165953318  0.28352063934347876  0.6547147480284254  1.0000
  O   O18       1.0  0.12488734826528264  0.3452654467395461  0.628777074857588  1.0000
  O   O19       1.0  0.8622476751742597  0.5779901116093952  0.1477511191435355  1.0000
  O   O20       1.0  0.7142804968288559  0.8521916749132925  0.4301619300064419  1.0000
  O   O21       1.0  0.28419015291230915  0.5698224116132804  0.4220651424445592  1.0000
  O   O22       1.0  0.40331190547100704  0.42357161865706416  0.882738992481862  1.0000
  O   O23       1.0  0.5200497547386008  0.11720129311964195  0.5407806609670233  1.0000
  O   O24       1.0  0.9795785471509789  0.45924212306378814  0.5764608104242869  1.0000
