data_image0
_chemical_formula_structural       Al2H16C28N4O14
_chemical_formula_sum              "Al2 H16 C28 N4 O14"
_cell_length_a       6.660437523981314
_cell_length_b       11.131145043701844
_cell_length_c       17.689116069323834
_cell_angle_alpha    85.56686670445785
_cell_angle_beta     80.92104228325938
_cell_angle_gamma    72.73982864007506

_space_group_name_H-M_alt    "P 1"
_space_group_IT_number       1

loop_
  _space_group_symop_operation_xyz
  'x, y, z'

loop_
  _atom_site_type_symbol
  _atom_site_label
  _atom_site_symmetry_multiplicity
  _atom_site_fract_x
  _atom_site_fract_y
  _atom_site_fract_z
  _atom_site_occupancy
  Al  Al1       1.0  0.4909533307520348  0.5078874855864157  0.504159706631981  1.0000
  Al  Al2       1.0  0.9943878494931085  0.5045003565153436  0.5030530871238456  1.0000
  H   H1        1.0  0.29737988389263137  0.3569339408068544  0.5502883081023315  1.0000
  H   H2        1.0  0.6911107205651134  0.656287250565171  0.4616787487451433  1.0000
  H   H3        1.0  0.6127893039499384  0.5627823075718296  0.2768377798199993  1.0000
  H   H4        1.0  0.7087953011160765  0.5571763513039657  0.1340705524795283  1.0000
  H   H5        1.0  0.15439968724730596  0.4398628209747244  0.12069523726987802  1.0000
  H   H6        1.0  0.909168885832834  0.4437722650619803  0.8847527515287653  1.0000
  H   H7        1.0  0.31972912028658834  0.5668350934268602  0.7283284642348207  1.0000
  H   H8        1.0  0.23699799728282764  0.5603854389407488  0.8712557181014589  1.0000
  H   H9        1.0  0.1855073490622416  0.23837777955085923  0.38895716961418  1.0000
  H   H10       1.0  0.501162321626694  0.11969898142427839  0.3056808941102318  1.0000
  H   H11       1.0  0.4029529283314587  0.7692559885507961  0.39827481498817724  1.0000
  H   H12       1.0  0.6094011595429193  0.8842221759246626  0.3094365893250953  1.0000
  H   H13       1.0  0.9695657992028403  0.4539126183400126  0.32371066494007295  1.0000
  H   H14       1.0  0.92323661113997  0.4235525224399622  0.23343489585021618  1.0000
  H   H15       1.0  0.07146360004625761  0.4619077954376251  0.6800174948509508  1.0000
  H   H16       1.0  0.15327173463187901  0.4196170576442169  0.7700015888325497  1.0000
  C   C1        1.0  0.851844139597496  0.2808468556654517  0.4922385953526743  1.0000
  C   C2        1.0  0.6909055662310806  0.5066142514568454  0.6417468626207994  1.0000
  C   C3        1.0  0.13260066782705585  0.7320980385025776  0.5103182284375906  1.0000
  C   C4        1.0  0.2953339925724165  0.5066037901765552  0.3638647509830335  1.0000
  C   C5        1.0  0.33658044683216565  0.5016969315550526  0.2798686662656777  1.0000
  C   C6        1.0  0.516733037570745  0.533666814190518  0.24148046908067763  1.0000
  C   C7        1.0  0.570447238463167  0.5305660853013237  0.1628558062943526  1.0000
  C   C8        1.0  0.4375890208073371  0.4958798105838653  0.11838905755615065  1.0000
  C   C9        1.0  0.2563460699064208  0.46571582740436657  0.15515794141282413  1.0000
  C   C10       1.0  0.2009367688269635  0.46749539112468586  0.2355732578846741  1.0000
  C   C11       1.0  0.48584293612891133  0.4942693100142889  0.037528897109204686  1.0000
  C   C12       1.0  0.5266820515144771  0.4952749617439521  0.9677694923572276  1.0000
  C   C13       1.0  0.5703085745317225  0.49896357088625365  0.8867082868394789  1.0000
  C   C14       1.0  0.779935824430332  0.47035486453356873  0.8502237463899148  1.0000
  C   C15       1.0  0.8295913436276404  0.47478954340695617  0.7695323544590665  1.0000
  C   C16       1.0  0.6568062411907224  0.5077176319689654  0.7256964479010508  1.0000
  C   C17       1.0  0.4468648923336928  0.5380663667904458  0.7636517065644031  1.0000
  C   C18       1.0  0.4002326262366369  0.534367390530974  0.842541366493599  1.0000
  C   C19       1.0  0.9206936046869387  0.13958042604701149  0.49188485704280543  1.0000
  C   C20       1.0  0.1106984850880863  0.07293585046684108  0.444977395561466  1.0000
  C   C21       1.0  0.8046433835211105  0.07299185176433548  0.5403954013608967  1.0000
  C   C22       1.0  0.2324073355114464  0.13613661105502928  0.39228067859514243  1.0000
  C   C23       1.0  0.40976089325396003  0.0691766403689513  0.3455011825143615  1.0000
  C   C24       1.0  0.06257375209801122  0.8734793131016256  0.504508685691043  1.0000
  C   C25       1.0  0.8807633093036743  0.9410738525660276  0.5494509378734237  1.0000
  C   C26       1.0  0.17746987271188905  0.9375442774067223  0.4491831893913202  1.0000
  C   C27       1.0  0.3569948825158136  0.8716310059999655  0.3980373002806274  1.0000
  C   C28       1.0  0.4714495286198854  0.9362336976960464  0.34788381990703954  1.0000
  N   N1        1.0  0.024474442217503094  0.4342481556224699  0.2677430705777796  1.0000
  N   N2        1.0  0.03586886776952977  0.4439821211145584  0.7369082170072687  1.0000
  N   N3        1.0  0.7711160609350358  0.8743452635875923  0.6100100540036948  1.0000
  N   N4        1.0  0.607391856056843  0.1430654675574985  0.5891472977108663  1.0000
  O   O1        1.0  0.6598694632882243  0.3365943188867888  0.48470458072227973  1.0000
  O   O2        1.0  0.8718045471485214  0.5138628539953558  0.606746494201346  1.0000
  O   O3        1.0  0.9966972858144132  0.678062915088759  0.4994458142581166  1.0000
  O   O4        1.0  0.43326330472563496  0.5295029085763829  0.3990355203999414  1.0000
  O   O5        1.0  0.32243676413648353  0.6795444055200477  0.5210358202486134  1.0000
  O   O6        1.0  0.12001787375845653  0.48910264694536904  0.39792271004616003  1.0000
  O   O7        1.0  0.9915398263484435  0.33236168815569295  0.5015262912060621  1.0000
  O   O8        1.0  0.5417760175685872  0.49544410178695836  0.6076540851900205  1.0000
  O   O9        1.0  0.25962979434827826  0.44630484166065537  0.5354560599136775  1.0000
  O   O10       1.0  0.7276855668669951  0.5655099464928527  0.4695486891949017  1.0000
  O   O11       1.0  0.8845559834582702  0.7920630339055207  0.6484270284904029  1.0000
  O   O12       1.0  0.5746130802358991  0.9064820273727817  0.6178647080775691  1.0000
  O   O13       1.0  0.440153782541536  0.1689618288770021  0.5613360923413993  1.0000
  O   O14       1.0  0.6283829254295129  0.17246699873522425  0.6526067310672518  1.0000
