data_image0
_chemical_formula_structural       K2H30C36O16
_chemical_formula_sum              "K2 H30 C36 O16"
_cell_length_a       9.798937753524088
_cell_length_b       9.846627883059996
_cell_length_c       10.28902375758069
_cell_angle_alpha    110.7699926192863
_cell_angle_beta     110.99020649604616
_cell_angle_gamma    96.01889770478621

_space_group_name_H-M_alt    "P 1"
_space_group_IT_number       1

loop_
  _space_group_symop_operation_xyz
  'x, y, z'

loop_
  _atom_site_type_symbol
  _atom_site_label
  _atom_site_symmetry_multiplicity
  _atom_site_fract_x
  _atom_site_fract_y
  _atom_site_fract_z
  _atom_site_occupancy
  K   K1        1.0  0.19852835602992513  0.834244715680086  0.17616135592661672  1.0000
  K   K2        1.0  0.8014776543377448  0.16575694047551082  0.8238498544889977  1.0000
  H   H1        1.0  0.42825468436691244  0.7315060996599528  0.4369591786173574  1.0000
  H   H2        1.0  0.5717436790201093  0.268497033260644  0.5630385004944642  1.0000
  H   H3        1.0  0.3842707378891602  0.5751358567011594  0.1853146635743244  1.0000
  H   H4        1.0  0.6157216109488317  0.4248603056798715  0.8146843723478482  1.0000
  H   H5        1.0  0.9375507111696493  0.5489093905695699  0.8015673284017737  1.0000
  H   H6        1.0  0.062448602879122524  0.4510939405960316  0.19842488703539377  1.0000
  H   H7        1.0  0.19847487782858766  0.9757238376739396  0.5083959892313104  1.0000
  H   H8        1.0  0.8015283254165623  0.02428021647203591  0.491610364015031  1.0000
  H   H9        1.0  0.46191236110670536  0.16154198141349957  0.8272384632258252  1.0000
  H   H10       1.0  0.5380939913178225  0.8384699931862158  0.1727708476811785  1.0000
  H   H11       1.0  0.435481448962733  0.37537719376884143  0.0007873231778319611  1.0000
  H   H12       1.0  0.5645125521095764  0.6246243741064319  0.9992210478840633  1.0000
  H   H13       1.0  0.9262282500226815  0.3263220547425334  0.6204210861987249  1.0000
  H   H14       1.0  0.0737752964621734  0.673681489965162  0.3795667040159501  1.0000
  H   H15       1.0  0.06468528680453998  0.1368896026523174  0.5499197957086819  1.0000
  H   H16       1.0  0.9353269262379201  0.8631218236222725  0.4500746195287207  1.0000
  H   H17       1.0  0.1994763249909326  0.19716855410046466  0.3640587557549892  1.0000
  H   H18       1.0  0.8005230620475103  0.8028300521622145  0.6359385383544166  1.0000
  H   H19       1.0  0.8314175414037734  0.8114842547006945  0.922277774520069  1.0000
  H   H20       1.0  0.16858494977602595  0.18851307973784517  0.07772488816063124  1.0000
  H   H21       1.0  0.519882933795678  0.35013193703390033  0.2063491970105815  1.0000
  H   H22       1.0  0.48011777527116817  0.6498586404071675  0.79365039725797  1.0000
  H   H23       1.0  0.8481856982074021  0.45795950358639465  0.4514038853235648  1.0000
  H   H24       1.0  0.15180931313194182  0.5420390822801694  0.5485920241829447  1.0000
  H   H25       1.0  0.022086071191033316  0.32053381870712633  0.4201522703502505  1.0000
  H   H26       1.0  0.9779134591104324  0.6794645944095665  0.5798508335845299  1.0000
  H   H27       1.0  0.6405338217952875  0.924577153928205  0.921736215104076  1.0000
  H   H28       1.0  0.3594683948847006  0.07542365048302462  0.07826473071927613  1.0000
  H   H29       1.0  0.5662931574731189  0.14389370225272563  0.05932563377155737  1.0000
  H   H30       1.0  0.4337076205089261  0.856106035275225  0.94067251789059  1.0000
  C   C1        1.0  0.4133540994102701  0.9169199209818544  0.5870432569140289  1.0000
  C   C2        1.0  0.5866306740785775  0.08307762159117972  0.41294515261704134  1.0000
  C   C3        1.0  0.3087052326275952  0.010696663494606204  0.6053362062890173  1.0000
  C   C4        1.0  0.6913044493255995  0.9893152620202061  0.394676079678611  1.0000
  C   C5        1.0  0.3489103293578281  0.13560095513950196  0.7362854204374399  1.0000
  C   C6        1.0  0.6510937781528839  0.8643987333035456  0.263715706285332  1.0000
  C   C7        1.0  0.2602050358291308  0.24073567898387443  0.7710004030904897  1.0000
  C   C8        1.0  0.7398003777845831  0.759272981499102  0.22900543700198045  1.0000
  C   C9        1.0  0.3223678029698931  0.36236104303046096  0.9177758589881222  1.0000
  C   C10       1.0  0.6776268517453446  0.6376395969235774  0.08222653699709778  1.0000
  C   C11       1.0  0.24477051489863308  0.46889008756532763  0.9594980613396942  1.0000
  C   C12       1.0  0.755220537146279  0.5311094431163783  0.040501816487101  1.0000
  C   C13       1.0  0.10182086236461174  0.45676519468652543  0.8485147425458379  1.0000
  C   C14       1.0  0.8981725551628299  0.5432356333144597  0.15148149746327985  1.0000
  C   C15       1.0  0.038370876697200636  0.3359093228986368  0.7032977342680979  1.0000
  C   C16       1.0  0.961630078917814  0.664091701750543  0.2966960872749241  1.0000
  C   C17       1.0  0.1157435557422986  0.22849853798295075  0.6646999044863549  1.0000
  C   C18       1.0  0.8842604549015789  0.7715059075540154  0.33529517525995806  1.0000
  C   C19       1.0  0.6099794487583381  0.5641881454626302  0.41271491368912905  1.0000
  C   C20       1.0  0.3900115673831692  0.4358083337293267  0.5872740930400226  1.0000
  C   C21       1.0  0.6217406509670766  0.41992672868634184  0.31092078021417546  1.0000
  C   C22       1.0  0.3782564540712912  0.5800673678123263  0.6890741221364108  1.0000
  C   C23       1.0  0.753408798171847  0.3801091580988257  0.3430303768154914  1.0000
  C   C24       1.0  0.24658762934642206  0.6198858985120741  0.6569695323075423  1.0000
  C   C25       1.0  0.7873496290193103  0.24804748262857154  0.2534751067991722  1.0000
  C   C26       1.0  0.2126530159162883  0.7519511711221939  0.7465222574581674  1.0000
  C   C27       1.0  0.9359377604841226  0.23284966595091566  0.312430912869928  1.0000
  C   C28       1.0  0.06406117577969188  0.7671464948332983  0.6875711682608028  1.0000
  C   C29       1.0  0.9792566054675477  0.10932025914447514  0.23604369951255685  1.0000
  C   C30       1.0  0.02074369786269878  0.8906770650960074  0.7639582708666879  1.0000
  C   C31       1.0  0.8683964165441155  0.9944606442636046  0.09654492392521534  1.0000
  C   C32       1.0  0.13160473144642276  0.005535494527670417  0.9034588178111915  1.0000
  C   C33       1.0  0.7217577761489052  0.009777900971101903  0.0345806594083626  1.0000
  C   C34       1.0  0.27824384649343165  0.9902206511076417  0.9654192636109472  1.0000
  C   C35       1.0  0.681193100061037  0.1350911128507875  0.11109099194674599  1.0000
  C   C36       1.0  0.3188074525336901  0.8649074019379271  0.8889095532260712  1.0000
  O   O1        1.0  0.5445234300968096  0.9446753372643499  0.6840882595490638  1.0000
  O   O2        1.0  0.4554978713405545  0.055326422468667126  0.3159268286724242  1.0000
  O   O3        1.0  0.3527806227638521  0.795989613129436  0.45090403110987165  1.0000
  O   O4        1.0  0.647223031255926  0.20401688649501182  0.5490975351151448  1.0000
  O   O5        1.0  0.29988212271184267  0.5869642464692008  0.09940568853287601  1.0000
  O   O6        1.0  0.700104852010945  0.41303176165269667  0.9005954898525985  1.0000
  O   O7        1.0  0.03086270272346783  0.5666813829983043  0.8901329829011927  1.0000
  O   O8        1.0  0.9691282312937447  0.43331368030844436  0.10986422716400314  1.0000
  O   O9        1.0  0.7134438737351161  0.6368212256990092  0.5480168349525769  1.0000
  O   O10       1.0  0.2865481050943828  0.3631785354186975  0.45197661089533625  1.0000
  O   O11       1.0  0.49212131563982814  0.6080972741248021  0.3548538655291438  1.0000
  O   O12       1.0  0.507870795784612  0.39189458183625464  0.6451376611102759  1.0000
  O   O13       1.0  0.1227283738369565  0.09393489295079863  0.2880469690946157  1.0000
  O   O14       1.0  0.8772705146725173  0.9060613322154012  0.7119531754276592  1.0000
  O   O15       1.0  0.9120613763563057  0.8721641347270083  0.024867056418245003  1.0000
  O   O16       1.0  0.08794116257783462  0.12783313532953855  0.9751375428709109  1.0000
