data_image0
_chemical_formula_structural       Ba2H20C20S4O16
_chemical_formula_sum              "Ba2 H20 C20 S4 O16"
_cell_length_a       5.622348963354687
_cell_length_b       10.549846946079144
_cell_length_c       11.562026885071754
_cell_angle_alpha    91.85284596254876
_cell_angle_beta     104.0507113100566
_cell_angle_gamma    89.99027035137031

_space_group_name_H-M_alt    "P 1"
_space_group_IT_number       1

loop_
  _space_group_symop_operation_xyz
  'x, y, z'

loop_
  _atom_site_type_symbol
  _atom_site_label
  _atom_site_symmetry_multiplicity
  _atom_site_fract_x
  _atom_site_fract_y
  _atom_site_fract_z
  _atom_site_occupancy
  Ba  Ba1       1.0  0.34973993328753755  0.7498568075563199  0.999972163982136  1.0000
  Ba  Ba2       1.0  0.6502628241003734  0.2501414564179712  2.3799173845920773e-05  1.0000
  H   H1        1.0  0.785121995804474  0.9000804218523514  0.8795166768181418  1.0000
  H   H2        1.0  0.905846423850477  0.5996707271660711  0.1204206608050242  1.0000
  H   H3        1.0  0.21487316049277896  0.09991019328892042  0.12048848049641951  1.0000
  H   H4        1.0  0.09414357198586033  0.4003360379375567  0.8795809773285511  1.0000
  H   H5        1.0  0.5396819953167622  0.9776189515037644  0.8631430732144382  1.0000
  H   H6        1.0  0.6768235446580563  0.5222220131617235  0.13695162778676462  1.0000
  H   H7        1.0  0.4603078499998078  0.0223802208267685  0.13685914661751747  1.0000
  H   H8        1.0  0.32316633940176603  0.4777781188885016  0.8630489003667634  1.0000
  H   H9        1.0  0.986571540891561  0.3162516225087942  0.3260447162100633  1.0000
  H   H10       1.0  0.661066868880063  0.18410985425541074  0.6742709218231511  1.0000
  H   H11       1.0  0.0134182907090121  0.6837456643761257  0.6739557062871384  1.0000
  H   H12       1.0  0.3389266789213252  0.8158883948838352  0.3257273882842213  1.0000
  H   H13       1.0  0.013229893761064202  0.2980153370790504  0.5431831360618702  1.0000
  H   H14       1.0  0.47021761812576574  0.2021277180046681  0.45709629700334636  1.0000
  H   H15       1.0  0.986778506166637  0.7019952059233745  0.4568208566328451  1.0000
  H   H16       1.0  0.5298255275247784  0.7978705398568948  0.5429002190188754  1.0000
  H   H17       1.0  0.34262047424601155  0.4039775962668343  0.6919629868980621  1.0000
  H   H18       1.0  0.6500774011815267  0.09586776017992801  0.3081426647964562  1.0000
  H   H19       1.0  0.6573677087497458  0.5960319985707017  0.3080411258690532  1.0000
  H   H20       1.0  0.34994938362923733  0.9041380988785408  0.6918521406585754  1.0000
  C   C1        1.0  0.30139394423798654  0.4381435270167203  0.3541744764102077  1.0000
  C   C2        1.0  0.947541493624634  0.062092237938820516  0.6459064753681218  1.0000
  C   C3        1.0  0.6985978538105045  0.5618604026873655  0.645825550538433  1.0000
  C   C4        1.0  0.0524392758215981  0.9379107471041693  0.35409305159873133  1.0000
  C   C5        1.0  0.13075637518571884  0.36625558948450293  0.39155789130792573  1.0000
  C   C6        1.0  0.7394829782374118  0.13401300077141803  0.6086611405475324  1.0000
  C   C7        1.0  0.8692424510282495  0.6337369023057705  0.6084503695271977  1.0000
  C   C8        1.0  0.2604794790028109  0.8659871944205976  0.3913300229367636  1.0000
  C   C9        1.0  0.1471889709611887  0.3557552191296693  0.5144330477832142  1.0000
  C   C10       1.0  0.6328706498440938  0.1443481531626389  0.4857881057289646  1.0000
  C   C11       1.0  0.852839148055061  0.6442344081130359  0.4855777858446118  1.0000
  C   C12       1.0  0.36714314505260864  0.8556435476840537  0.5141959873781659  1.0000
  C   C13       1.0  0.33164390597675464  0.4165851575607677  0.5979011361487139  1.0000
  C   C14       1.0  0.7335354302422273  0.08334021896178  0.4021966295408745  1.0000
  C   C15       1.0  0.6683605541971148  0.5834111570805193  0.4021027489757216  1.0000
  C   C16       1.0  0.26648572265717263  0.9166533667341809  0.5977892829268185  1.0000
  C   C17       1.0  0.493077407628654  0.5060141272443843  0.43728577033687804  1.0000
  C   C18       1.0  0.055978318343378006  0.9940791636469019  0.5627064830956812  1.0000
  C   C19       1.0  0.5069089433182229  0.4939898354843138  0.5627092752629539  1.0000
  C   C20       1.0  0.9440298011187882  0.005919021977753399  0.4373013689979289  1.0000
  S   S1        1.0  0.2804700222176352  0.43922746308177824  0.19772518071417272  1.0000
  S   S2        1.0  0.08299484954117281  0.060920138432791815  0.8024079904046034  1.0000
  S   S3        1.0  0.7195291976040681  0.5607783854653337  0.8022714849034288  1.0000
  S   S4        1.0  0.9170134416975988  0.9390856512962102  0.19759755309342353  1.0000
  O   O1        1.0  0.6256283455932136  0.9023463175098603  0.900581360645063  1.0000
  O   O2        1.0  0.7253190044332456  0.5973068437138593  0.0992613460717422  1.0000
  O   O3        1.0  0.3743762088707499  0.0976556817963967  0.09942359924064453  1.0000
  O   O4        1.0  0.2746782369464357  0.4026979900227872  0.9007454243416931  1.0000
  O   O5        1.0  0.23435932797101344  0.5720644420109481  0.16148100599053092  1.0000
  O   O6        1.0  0.07264152103816461  0.9281243474851523  0.8386595913660173  1.0000
  O   O7        1.0  0.7656362205682826  0.42794516356149614  0.8385214019051831  1.0000
  O   O8        1.0  0.9273281474554058  0.0718692027258498  0.16133221106123596  1.0000
  O   O9        1.0  0.5223844750582743  0.3955400003609313  0.18341189463217944  1.0000
  O   O10       1.0  0.3393000241956373  0.1044198941202197  0.816802828908827  1.0000
  O   O11       1.0  0.4775890814127167  0.6044621162087438  0.8165754868096754  1.0000
  O   O12       1.0  0.6607170981036178  0.8955688054582679  0.1832049143914034  1.0000
  O   O13       1.0  0.0795785171978167  0.3532277346294067  0.14043687334648072  1.0000
  O   O14       1.0  0.939460345501978  0.14701512057745703  0.8597068865507254  1.0000
  O   O15       1.0  0.9204224966123533  0.6467799694696906  0.8595661282174872  1.0000
  O   O16       1.0  0.06055528144360522  0.8529822123780805  0.1402862737236887  1.0000
