data_image0
_chemical_formula_structural       Cu4H36C20N4Cl8O8
_chemical_formula_sum              "Cu4 H36 C20 N4 Cl8 O8"
_cell_length_a       6.649485304993511
_cell_length_b       9.697674860680083
_cell_length_c       12.723626879472137
_cell_angle_alpha    76.88198019919678
_cell_angle_beta     89.59320037044667
_cell_angle_gamma    80.68218224801018

_space_group_name_H-M_alt    "P 1"
_space_group_IT_number       1

loop_
  _space_group_symop_operation_xyz
  'x, y, z'

loop_
  _atom_site_type_symbol
  _atom_site_label
  _atom_site_symmetry_multiplicity
  _atom_site_fract_x
  _atom_site_fract_y
  _atom_site_fract_z
  _atom_site_occupancy
  Cu  Cu1       1.0  0.6267537512954463  0.26283611055740863  0.26598850553555303  1.0000
  Cu  Cu2       1.0  0.37325151550607666  0.7371545349318039  0.7340114109775938  1.0000
  Cu  Cu3       1.0  0.13612958199188802  0.23648799351121844  0.22308129259538126  1.0000
  Cu  Cu4       1.0  0.8638696279893808  0.7634962398073241  0.776920570645238  1.0000
  H   H1        1.0  0.3712956467923973  0.38555937740381546  0.890144724209861  1.0000
  H   H2        1.0  0.6286779171894636  0.614411925160624  0.1098422430378534  1.0000
  H   H3        1.0  0.4263578435029842  0.0924173819950767  0.9226385824977893  1.0000
  H   H4        1.0  0.5736482590369152  0.9075431889310295  0.07736194472614233  1.0000
  H   H5        1.0  0.5120112371967096  0.1988394441744887  0.804200511564737  1.0000
  H   H6        1.0  0.48797214451614923  0.8010954553136357  0.19580544267250125  1.0000
  H   H7        1.0  0.769957798731511  0.04726075173178399  0.0094939552876951  1.0000
  H   H8        1.0  0.23003644856321873  0.9527320168185084  0.990498555826697  1.0000
  H   H9        1.0  0.8248006583509878  0.0353696026419144  0.8748061733798662  1.0000
  H   H10       1.0  0.17522291146038776  0.9646199282465061  0.12519543878804026  1.0000
  H   H11       1.0  0.9801252726173858  0.22985526572070825  0.9703803758900589  1.0000
  H   H12       1.0  0.019859529686627287  0.770152536293132  0.029607937172102104  1.0000
  H   H13       1.0  0.910499591623548  0.274595790486984  0.8302866157536852  1.0000
  H   H14       1.0  0.08949223936333787  0.7254142154499376  0.16971149577801006  1.0000
  H   H15       1.0  0.7189656820918415  0.39084633792296586  0.9976408035078702  1.0000
  H   H16       1.0  0.2809786138154137  0.6091413002195906  0.0023638214973118184  1.0000
  H   H17       1.0  0.6764472531925775  0.44530717908361334  0.8622487688255018  1.0000
  H   H18       1.0  0.32351644137156654  0.5546942735540838  0.1377438983620891  1.0000
  H   H19       1.0  0.9385560230276299  0.08282969784318787  0.5937237880216484  1.0000
  H   H20       1.0  0.06144194999284733  0.9171994459485262  0.40625125834761605  1.0000
  H   H21       1.0  0.8774729610558508  0.403607846837147  0.5445648976179596  1.0000
  H   H22       1.0  0.12251025260753322  0.5963872156348697  0.4554421845384268  1.0000
  H   H23       1.0  0.8235669393443459  0.28475512467318964  0.6640066964021754  1.0000
  H   H24       1.0  0.17643905509302008  0.7152323798857481  0.33600399119093527  1.0000
  H   H25       1.0  0.14526494940839998  0.4334697034652066  0.6618077201023805  1.0000
  H   H26       1.0  0.8547261047781518  0.5665371598880924  0.33820038291431587  1.0000
  H   H27       1.0  0.16969268097535922  0.25265908190364433  0.7352294454513737  1.0000
  H   H28       1.0  0.8303086620554652  0.747348835931831  0.26478000112143  1.0000
  H   H29       1.0  0.3059615325062026  0.3515832769269949  0.5017963802801403  1.0000
  H   H30       1.0  0.694043725719716  0.6484074722990342  0.4982168790720322  1.0000
  H   H31       1.0  0.45739012312228766  0.23957572798399698  0.6139653038324794  1.0000
  H   H32       1.0  0.5426222404242296  0.7604300545860666  0.3860499783933092  1.0000
  H   H33       1.0  0.27198571265961397  0.05643300095044879  0.6174317972653893  1.0000
  H   H34       1.0  0.7280512244438526  0.9435705025781472  0.3825759302729778  1.0000
  H   H35       1.0  0.28399558954928483  0.12168640493750617  0.4831446484675012  1.0000
  H   H36       1.0  0.7160325606238516  0.8783160762731013  0.5168664394741497  1.0000
  C   C1        1.0  0.4247780195133474  0.27887818236832357  0.0560171587464922  1.0000
  C   C2        1.0  0.5752080089690139  0.7211242220373038  0.9439681761720278  1.0000
  C   C3        1.0  0.48854818608118933  0.3019158915957191  0.937954099582896  1.0000
  C   C4        1.0  0.5114403008112307  0.698075644367499  0.06201586057373019  1.0000
  C   C5        1.0  0.531347332337404  0.16728920561114077  0.8925194536774154  1.0000
  C   C6        1.0  0.4686515603104979  0.8326832228886046  0.10748371693189539  1.0000
  C   C7        1.0  0.7549439614996416  0.1069630396164101  0.9248753692512818  1.0000
  C   C8        1.0  0.24506159263977875  0.8930328952953844  0.07511417728854745  1.0000
  C   C9        1.0  0.8559952764313224  0.2398569795253635  0.9117329393889333  1.0000
  C   C10       1.0  0.14399893683233964  0.7601293224460477  0.08825678810389799  1.0000
  C   C11       1.0  0.9226573193528439  0.21826147807184526  0.43212013456897563  1.0000
  C   C12       1.0  0.07739180903775629  0.781767667014705  0.5678743541727582  1.0000
  C   C13       1.0  0.9971068757338558  0.17831119919124916  0.5496359521635839  1.0000
  C   C14       1.0  0.002934395486811099  0.821706346385504  0.4503834165230244  1.0000
  C   C15       1.0  0.9409650819797122  0.30594540209992255  0.6044651806809893  1.0000
  C   C16       1.0  0.0590485087540458  0.6940549706576036  0.3955455536553884  1.0000
  C   C17       1.0  0.14241136391116532  0.32355457834992046  0.6541978847944208  1.0000
  C   C18       1.0  0.857607020911196  0.676451168118433  0.34581502170099293  1.0000
  C   C19       1.0  0.3025817065371683  0.2737980003058808  0.579009616144333  1.0000
  C   C20       1.0  0.6974296745533337  0.7262121186572513  0.4210104032150141  1.0000
  N   N1        1.0  0.688227352843434  0.35806231584838594  0.9279849241790782  1.0000
  N   N2        1.0  0.3117610863978372  0.6419229182944264  0.07200344392386879  1.0000
  N   N3        1.0  0.2273339384754038  0.14568160251297968  0.5548392785398164  1.0000
  N   N4        1.0  0.7726882264707342  0.8543273569695556  0.4451738292622237  1.0000
  Cl  Cl1       1.0  0.9541020965410426  0.4430571304708195  0.1335950316141633  1.0000
  Cl  Cl2       1.0  0.0458770746116812  0.5569360059823083  0.866439130542396  1.0000
  Cl  Cl3       1.0  0.35793417958006307  0.05114693288775379  0.326155616184053  1.0000
  Cl  Cl4       1.0  0.6421029031881317  0.9488360608717271  0.6738392404964983  1.0000
  Cl  Cl5       1.0  0.8396464233295903  0.0786766542055872  0.21341462889436968  1.0000
  Cl  Cl6       1.0  0.16039549108941026  0.9213181371284449  0.7865796894565802  1.0000
  Cl  Cl7       1.0  0.4559026689151294  0.46133387924188446  0.31080371729459694  1.0000
  Cl  Cl8       1.0  0.5440474191746318  0.5386546070512922  0.6891740116766485  1.0000
  O   O1        1.0  0.5218652438385405  0.33763592617700056  0.11504544345240929  1.0000
  O   O2        1.0  0.47809177340716497  0.6623815939352795  0.8849389015185096  1.0000
  O   O3        1.0  0.2779296032407359  0.21187663706366774  0.0836055728781204  1.0000
  O   O4        1.0  0.722023154047285  0.788185961075719  0.9163723724723024  1.0000
  O   O5        1.0  0.04032748847775033  0.2790164039068087  0.3650815595718342  1.0000
  O   O6        1.0  0.9596999615327775  0.7209957641411009  0.6349317442588998  1.0000
  O   O7        1.0  0.7474435814187146  0.1900966386181437  0.41391302781772754  1.0000
  O   O8        1.0  0.25256670640195  0.8099841656012003  0.5860795360632309  1.0000
