data_image0
_chemical_formula_structural       Ni12H72C120N60O28
_chemical_formula_sum              "Ni12 H72 C120 N60 O28"
_cell_length_a       19.852343381547186
_cell_length_b       19.852502998435146
_cell_length_c       19.852559066720787
_cell_angle_alpha    109.47211241517586
_cell_angle_beta     109.47141570188904
_cell_angle_gamma    109.47063875960053

_space_group_name_H-M_alt    "P 1"
_space_group_IT_number       1

loop_
  _space_group_symop_operation_xyz
  'x, y, z'

loop_
  _atom_site_type_symbol
  _atom_site_label
  _atom_site_symmetry_multiplicity
  _atom_site_fract_x
  _atom_site_fract_y
  _atom_site_fract_z
  _atom_site_occupancy
  Ni  Ni1       1.0  0.9010836154389563  0.3341012998375846  6.939574255775931e-06  1.0000
  Ni  Ni2       1.0  0.09891539491635366  0.09891215978114327  0.4330165939086753  1.0000
  Ni  Ni3       1.0  0.6659032447019724  0.6659028534417856  0.5669703718541114  1.0000
  Ni  Ni4       1.0  0.334097360211949  0.9010814815916107  3.8114189707871537e-06  1.0000
  Ni  Ni5       1.0  0.9010678018765217  0.9999942301665712  0.33410095874619133  1.0000
  Ni  Ni6       1.0  0.6659104353995245  0.5669897330411685  0.6659016216120576  1.0000
  Ni  Ni7       1.0  0.09892942843157472  0.4330244621318684  0.09892381122914173  1.0000
  Ni  Ni8       1.0  0.334097779259302  5.029899481782566e-07  0.9010717724190723  1.0000
  Ni  Ni9       1.0  0.5669705704298733  0.6658976884907232  0.6658848868790627  1.0000
  Ni  Ni10      1.0  1.171731392434577e-05  0.3341017313187676  0.9010767925031327  1.0000
  Ni  Ni11      1.0  0.999995522970387  0.9010679615697299  0.33409979343892365  1.0000
  Ni  Ni12      1.0  0.4330167145970946  0.09892384112118435  0.09892451534034309  1.0000
  H   H1        1.0  0.8723314524132062  0.7256208364564855  0.2366200318910003  1.0000
  H   H2        1.0  0.12767509901296842  0.3642856246261558  0.8533027451161103  1.0000
  H   H3        1.0  0.5109945177107916  0.2743700218389191  0.1467042968256108  1.0000
  H   H4        1.0  0.4889935490705353  0.6357086632003401  0.7633543197242999  1.0000
  H   H5        1.0  0.6356964848590109  0.7633672527420571  0.48899239203229417  1.0000
  H   H6        1.0  0.274373335664336  0.1466962147375455  0.5109931840304611  1.0000
  H   H7        1.0  0.3642808623862379  0.8532880122508787  0.12765920910533884  1.0000
  H   H8        1.0  0.7256354485675726  0.23662209516168525  0.8723506213869  1.0000
  H   H9        1.0  0.1467180548622124  0.5110103579385665  0.27437320680179056  1.0000
  H   H10       1.0  0.7633840678332148  0.48900977047069466  0.6357203189449833  1.0000
  H   H11       1.0  0.23663755117999566  0.872339830107684  0.7256351762093302  1.0000
  H   H12       1.0  0.8532917207453108  0.12765702860973938  0.3642928776045622  1.0000
  H   H13       1.0  0.8723559925582831  0.2366374501222025  0.7256496720932758  1.0000
  H   H14       1.0  0.12765842171510391  0.853297232405758  0.3642959557524249  1.0000
  H   H15       1.0  0.5110029492412095  0.1467151429796232  0.27437249550012405  1.0000
  H   H16       1.0  0.4889933454878203  0.7633736208038898  0.6356995486494342  1.0000
  H   H17       1.0  0.6357292668436257  0.4890136176862114  0.7633835865707537  1.0000
  H   H18       1.0  0.27437116660397  0.5110048214792897  0.14670878418137068  1.0000
  H   H19       1.0  0.3642838792725054  0.12766463273938172  0.8532914651020744  1.0000
  H   H20       1.0  0.7256226331560143  0.8723322927627067  0.23662150245062472  1.0000
  H   H21       1.0  0.14670577754832684  0.2743685061140155  0.5109971471075666  1.0000
  H   H22       1.0  0.7633578812062393  0.635703605868393  0.4889950130846755  1.0000
  H   H23       1.0  0.23662123319198947  0.7256219979724959  0.8723363136924431  1.0000
  H   H24       1.0  0.8532936027513286  0.3642786144158165  0.1276739086484611  1.0000
  H   H25       1.0  0.8668154546387183  0.5924725735224569  0.16289709383312373  1.0000
  H   H26       1.0  0.13319504135922222  0.29607430168958604  0.7256710332892878  1.0000
  H   H27       1.0  0.5704091539578185  0.4075217010279387  0.2743295088280958  1.0000
  H   H28       1.0  0.4295828680278361  0.7039189173354146  0.837093155402087  1.0000
  H   H29       1.0  0.7039132942869699  0.8371041973203361  0.4295769266086893  1.0000
  H   H30       1.0  0.40752578868698197  0.27433040302421574  0.5704177149227333  1.0000
  H   H31       1.0  0.29608463076046826  0.7256644548615085  0.13318942793048902  1.0000
  H   H32       1.0  0.5924833527593731  0.16289792234582715  0.8668244236036741  1.0000
  H   H33       1.0  0.27434224804886026  0.5704223266937517  0.40752564287237186  1.0000
  H   H34       1.0  0.8371092172467339  0.4295851526420974  0.7039193975630764  1.0000
  H   H35       1.0  0.16290010302463975  0.8668099629726027  0.5924829789412484  1.0000
  H   H36       1.0  0.7256682183492555  0.1331873199941427  0.2960901919699026  1.0000
  H   H37       1.0  0.8668240067649574  0.16290126729464294  0.5924970149835785  1.0000
  H   H38       1.0  0.13318751996112607  0.7256706988394656  0.29609485857631057  1.0000
  H   H39       1.0  0.5704125826917377  0.27434407168314573  0.40752082225548497  1.0000
  H   H40       1.0  0.42957803741161615  0.8371074833595671  0.7039119521622722  1.0000
  H   H41       1.0  0.703928336430955  0.429586928914041  0.8371061613956524  1.0000
  H   H42       1.0  0.40752293948771257  0.570416659445648  0.274329359063465  1.0000
  H   H43       1.0  0.2960708705682079  0.13318191344321656  0.7256608642965927  1.0000
  H   H44       1.0  0.592472138395642  0.8668116495379009  0.16289298193575513  1.0000
  H   H45       1.0  0.27433557435052325  0.40751624241062945  0.5704171697550037  1.0000
  H   H46       1.0  0.83709899081159  0.7039156909703832  0.4295861675411031  1.0000
  H   H47       1.0  0.1628962232316054  0.5924696369665269  0.8668144130104094  1.0000
  H   H48       1.0  0.7256631537246605  0.29608166600536384  0.13319494069908439  1.0000
  H   H49       1.0  0.7440832398107201  0.07758048067509533  0.8765025930632361  1.0000
  H   H50       1.0  0.2559227059570757  0.13242133704526532  0.33351404292215386  1.0000
  H   H51       1.0  0.7989383423983865  0.922421380523822  0.6664714423141757  1.0000
  H   H52       1.0  0.20108144080437998  0.8675591275495123  0.12348769253625863  1.0000
  H   H53       1.0  0.8675494274630537  0.12349857293316545  0.20105956389135574  1.0000
  H   H54       1.0  0.9224184880690768  0.6665068111463126  0.7989112622120726  1.0000
  H   H55       1.0  0.13245659249271563  0.33350498211468244  0.25596562990133254  1.0000
  H   H56       1.0  0.07756781957550606  0.8765230772112033  0.7440503104710884  1.0000
  H   H57       1.0  0.6664930188747603  0.7989470686157532  0.9224326728778676  1.0000
  H   H58       1.0  0.1234997682225012  0.20107083662930572  0.8675750179805702  1.0000
  H   H59       1.0  0.876493290637299  0.7440623854010582  0.07757029881084082  1.0000
  H   H60       1.0  0.3335177327588497  0.2559399588173861  0.13245279974906055  1.0000
  H   H61       1.0  0.7440555827584132  0.8765071514084397  0.0775840123298297  1.0000
  H   H62       1.0  0.25594216217303506  0.3335208713876341  0.1324593217961976  1.0000
  H   H63       1.0  0.7989256391262884  0.6665040012284821  0.9224268817040198  1.0000
  H   H64       1.0  0.2010735120968333  0.12349796819741943  0.8675758788707524  1.0000
  H   H65       1.0  0.8675799115326086  0.20109277234713113  0.12350889102451396  1.0000
  H   H66       1.0  0.9224113864517846  0.798941078558073  0.6664699916653448  1.0000
  H   H67       1.0  0.13243147123169752  0.25591614550818775  0.33352219990100446  1.0000
  H   H68       1.0  0.07756136822688105  0.7440709384307311  0.8764897596569482  1.0000
  H   H69       1.0  0.6664957256095999  0.9224322071701179  0.7989275306262156  1.0000
  H   H70       1.0  0.12349253610097585  0.8675376966625805  0.2010509931528119  1.0000
  H   H71       1.0  0.876516945155856  0.0775749319887777  0.7440607161131466  1.0000
  H   H72       1.0  0.3335044058023583  0.13243556312181676  0.25595155142793397  1.0000
  C   C1        1.0  0.9285019117590068  0.7225816453597816  0.24852482737386347  1.0000
  C   C2        1.0  0.07150502720025273  0.32002037877875006  0.7940901960214715  1.0000
  C   C3        1.0  0.5259389970764942  0.2774179438442488  0.2059148629179006  1.0000
  C   C4        1.0  0.47405721299993764  0.679982962843347  0.7514614595732282  1.0000
  C   C5        1.0  0.6799668000702253  0.7514625008248288  0.4740464722208698  1.0000
  C   C6        1.0  0.2774112875767897  0.20591141619389924  0.5259362493844861  1.0000
  C   C7        1.0  0.32001249178069446  0.7940764538306765  0.07149275917670651  1.0000
  C   C8        1.0  0.7225927593150131  0.24852226209586797  0.9285191269580436  1.0000
  C   C9        1.0  0.20592939403854876  0.5259483519784142  0.277411414709846  1.0000
  C   C10       1.0  0.7514859795024619  0.474066846972569  0.6799857300931506  1.0000
  C   C11       1.0  0.24853192342106198  0.9285058848291854  0.7225898123535756  1.0000
  C   C12       1.0  0.7940762773792683  0.07148808305296232  0.3200230621543838  1.0000
  C   C13       1.0  0.9285198196072739  0.24853100276158793  0.722602950539702  1.0000
  C   C14       1.0  0.07148901452999457  0.7940803197041433  0.3200235466542125  1.0000
  C   C15       1.0  0.525942058036044  0.20592533124498402  0.27741212219143563  1.0000
  C   C16       1.0  0.47405812066617836  0.7514795440825138  0.6799713745867492  1.0000
  C   C17       1.0  0.6799977779260188  0.4740711899736496  0.7514816223066348  1.0000
  C   C18       1.0  0.27741996982778266  0.5259507016747095  0.20592005601677243  1.0000
  C   C19       1.0  0.32001612665869306  0.07149264860569805  0.7940803472821542  1.0000
  C   C20       1.0  0.7225816277598083  0.9285038283441268  0.24852535296840017  1.0000
  C   C21       1.0  0.20591764434361426  0.277407841909806  0.5259393039828238  1.0000
  C   C22       1.0  0.7514585828778022  0.6799697670497125  0.47404914183191943  1.0000
  C   C23       1.0  0.2485209278277194  0.7225818465638126  0.9285073305484913  1.0000
  C   C24       1.0  0.7940840980614823  0.3200129426136939  0.07150568518414253  1.0000
  C   C25       1.0  0.9258291355441698  0.6489986945767683  0.20767791092857374  1.0000
  C   C26       1.0  0.07417785638374833  0.2818425113076086  0.7231786452578104  1.0000
  C   C27       1.0  0.5586675337700129  0.351001282159487  0.27681940073277644  1.0000
  C   C28       1.0  0.4413236210839242  0.7181535897663807  0.7923121326067742  1.0000
  C   C29       1.0  0.7181469887349008  0.7923160385177397  0.4413156592715523  1.0000
  C   C30       1.0  0.3510021681745669  0.27682827384618486  0.5586790138362189  1.0000
  C   C31       1.0  0.2818440334371033  0.7231643296500111  0.07417034661845186  1.0000
  C   C32       1.0  0.6490050609304062  0.20767705266074893  0.925840903940191  1.0000
  C   C33       1.0  0.27683902870093385  0.5586844824341171  0.3510002562239051  1.0000
  C   C34       1.0  0.7923280401396792  0.4413239030314812  0.7181534296759934  1.0000
  C   C35       1.0  0.20768026487169047  0.925826315401636  0.6490037968544299  1.0000
  C   C36       1.0  0.7231697481424676  0.07416797351520901  0.2818519209768695  1.0000
  C   C37       1.0  0.9258377460853778  0.20767940664681117  0.6490164651724725  1.0000
  C   C38       1.0  0.07416707046797912  0.7231719624535629  0.28185477040351253  1.0000
  C   C39       1.0  0.5586722476579239  0.2768353499792298  0.35099583156331693  1.0000
  C   C40       1.0  0.4413240988267756  0.7923302659386733  0.718148478113093  1.0000
  C   C41       1.0  0.7181648280225797  0.4413282525279526  0.7923257784498431  1.0000
  C   C42       1.0  0.35100283743256006  0.5586745602770975  0.2768238165690065  1.0000
  C   C43       1.0  0.2818387487888073  0.07416604617847614  0.7231691311092874  1.0000
  C   C44       1.0  0.6489957532538214  0.9258300057204921  0.20767917845855535  1.0000
  C   C45       1.0  0.27683189640166  0.35099620980206225  0.5586811343113067  1.0000
  C   C46       1.0  0.7923160697090667  0.7181469118149979  0.44132196484947184  1.0000
  C   C47       1.0  0.2076755621537812  0.6489934197254781  0.9258315983881004  1.0000
  C   C48       1.0  0.723168485392456  0.2818447665730234  0.07418033913754131  1.0000
  C   C49       1.0  0.9999987278206247  0.648780956283197  0.22273981179876043  1.0000
  C   C50       1.0  4.499773368067507e-06  0.2227351323369575  0.6487928834684026  1.0000
  C   C51       1.0  0.5739454273206803  0.35121972247265626  0.35120746659855234  1.0000
  C   C52       1.0  0.42604523297597274  0.7772658787005112  0.777257152554938  1.0000
  C   C53       1.0  0.7772589131014129  0.7772552520974614  0.4260406398881288  1.0000
  C   C54       1.0  0.35122020245056246  0.35121804422983854  0.5739551779207303  1.0000
  C   C55       1.0  0.22273807489904132  0.6487764854734196  2.225065628538578e-06  1.0000
  C   C56       1.0  0.6487799193334355  0.22273995509693387  7.2146346214050245e-06  1.0000
  C   C57       1.0  0.35122585927553723  0.5739558802358218  0.3512144089218978  1.0000
  C   C58       1.0  0.7772701640800433  0.4260443382928686  0.7772623371352481  1.0000
  C   C59       1.0  0.222733645109045  0.9999927382670536  0.6487812447608688  1.0000
  C   C60       1.0  0.6487775884646183  1.1920683099660596e-07  0.2227422798264911  1.0000
  C   C61       1.0  0.9999981401700566  0.5743067916470112  0.1766846989359152  1.0000
  C   C62       1.0  3.5322007860443307e-06  0.176682787760292  0.5743183819742511  1.0000
  C   C63       1.0  0.6023726140512691  0.425689477890181  0.42569006287669703  1.0000
  C   C64       1.0  0.39762372321094813  0.8233187342516004  0.8233160362640887  1.0000
  C   C65       1.0  0.8233078594838756  0.8233056208336366  0.39761958601930303  1.0000
  C   C66       1.0  0.4256937587178767  0.42568698366157776  0.6023705626736059  1.0000
  C   C67       1.0  0.17669009709121022  0.5743018678164801  0.9999992673970224  1.0000
  C   C68       1.0  0.574301277648452  0.17668843168954138  3.4004707388659144e-06  1.0000
  C   C69       1.0  0.42569162148612333  0.6023743079915461  0.42569024597032257  1.0000
  C   C70       1.0  0.8233156810761171  0.3976183399532756  0.8233136191006236  1.0000
  C   C71       1.0  0.17668161339480537  0.9999965066419848  0.5743091165733318  1.0000
  C   C72       1.0  0.5743047217508277  5.634834039035689e-07  0.1766905098930351  1.0000
  C   C73       1.0  0.862784737248219  0.17874201233464473  0.8627679860800652  1.0000
  C   C74       1.0  0.13721804651247269  0.9999779906151929  0.3159614536166444  1.0000
  C   C75       1.0  0.6840316118449221  0.8212660767966611  0.6840197673449281  1.0000
  C   C76       1.0  0.31597638827074087  7.211921349882414e-06  0.13723205403422153  1.0000
  C   C77       1.0  0.9999833407443929  0.1372112541123797  0.315966911388493  1.0000
  C   C78       1.0  0.8212529353394796  0.6840370081093282  0.6840158215969722  1.0000
  C   C79       1.0  2.3540774435617595e-05  0.3159780782035924  0.1372463635184076  1.0000
  C   C80       1.0  0.178729480500898  0.8627769280578972  0.8627576294364656  1.0000
  C   C81       1.0  0.6840298989861395  0.6840418518175398  0.8212582075328713  1.0000
  C   C82       1.0  0.13724270498270394  0.31597923321012905  1.091787621738426e-05  1.0000
  C   C83       1.0  0.8627549058542311  0.8627568207312137  0.17874161238552244  1.0000
  C   C84       1.0  0.3159783151899945  0.13723843722439716  1.0577824184629265e-05  1.0000
  C   C85       1.0  0.8145938250567822  0.08622013998043346  0.8145780207311688  1.0000
  C   C86       1.0  0.18541795138964545  0.9999862749489025  0.27162737022432276  1.0000
  C   C87       1.0  0.7283750870145125  0.9137919775543181  0.7283598482592736  1.0000
  C   C88       1.0  0.2716357838408  6.145682846174205e-06  0.18542917974765058  1.0000
  C   C89       1.0  0.9999890104292034  0.1854139525875452  0.27162797573770814  1.0000
  C   C90       1.0  0.9137845325541601  0.728379655479749  0.7283541961020177  1.0000
  C   C91       1.0  1.679160489228357e-05  0.2716375049082842  0.18543869163752896  1.0000
  C   C92       1.0  0.08619801778606707  0.8145847828720959  0.8145647582760843  1.0000
  C   C93       1.0  0.728368202654543  0.7283803789309073  0.9137929395854412  1.0000
  C   C94       1.0  0.18542923778267098  0.2716341316593471  9.503816293963771e-06  1.0000
  C   C95       1.0  0.8145669395569185  0.8145760573344774  0.08621296871079667  1.0000
  C   C96       1.0  0.27163875585718233  0.185425553636378  1.0325166073215867e-05  1.0000
  C   C97       1.0  0.7551170684000322  0.04291342724169276  0.8299565928253185  1.0000
  C   C98       1.0  0.24489267972401754  0.0748484636880278  0.28780700524212216  1.0000
  C   C99       1.0  0.7870650535596508  0.9570984800646443  0.7121876078309695  1.0000
  C   C100      1.0  0.2129471568917225  0.9251379260897893  0.1700365424876367  1.0000
  C   C101      1.0  0.9251369625167455  0.17004533432302082  0.2129405802384597  1.0000
  C   C102      1.0  0.9570897862612638  0.7122059882212214  0.7870378145441137  1.0000
  C   C103      1.0  0.07486647246205534  0.2878008273862065  0.244914416463601  1.0000
  C   C104      1.0  0.04289857541225914  0.8299702747464578  0.755082837599552  1.0000
  C   C105      1.0  0.7121937563417899  0.7870651706646327  0.9570979187923142  1.0000
  C   C106      1.0  0.17005045654607176  0.2129454304030672  0.9251505473337572  1.0000
  C   C107      1.0  0.8299454938973411  0.7551015476635144  0.04290535983399488  1.0000
  C   C108      1.0  0.2878155895720127  0.2449095865553517  0.07487096955415501  1.0000
  C   C109      1.0  0.7550920742364582  0.829965784130657  0.042912459621241995  1.0000
  C   C110      1.0  0.2449087372113182  0.28781232213331975  0.07487193943281772  1.0000
  C   C111      1.0  0.7870491329089829  0.71220720961135  0.9570992093764517  1.0000
  C   C112      1.0  0.21294934589450046  0.17004460269263413  0.9251556324615958  1.0000
  C   C113      1.0  0.9251493371834414  0.21295350906525096  0.17004804740347623  1.0000
  C   C114      1.0  0.9570830849033526  0.787063352979338  0.7121749739862224  1.0000
  C   C115      1.0  0.07486023907265593  0.24489385850957038  0.2878116914254604  1.0000
  C   C116      1.0  0.04289191662765984  0.7551081868678224  0.8299441162304717  1.0000
  C   C117      1.0  0.7122045758688383  0.9571026970692315  0.7870482725528233  1.0000
  C   C118      1.0  0.17003899317529653  0.925129360933326  0.21293721945585992  1.0000
  C   C119      1.0  0.8299636332936655  0.04290948679050626  0.7550944526572748  1.0000
  C   C120      1.0  0.28779987845579286  0.07485668082966863  0.2449136858017339  1.0000
  N   N1        1.0  0.9999934779982238  0.794324155802542  0.3026031048712596  1.0000
  N   N2        1.0  1.3826015290779084e-05  0.30260493520891163  0.7943394381785038  1.0000
  N   N3        1.0  0.5082749736942204  0.2056799343421218  0.2056728662447327  1.0000
  N   N4        1.0  0.49171529653555957  0.6973988184820001  0.697384154041316  1.0000
  N   N5        1.0  0.6973798035411533  0.6973831417598148  0.4917080967693649  1.0000
  N   N6        1.0  0.20566858324558976  0.2056638696695714  0.5082675333603531  1.0000
  N   N7        1.0  0.30259467252032807  0.7943225250119567  0.9999988352768409  1.0000
  N   N8        1.0  0.7943316030135391  0.30259565394133153  1.2082762097455272e-05  1.0000
  N   N9        1.0  0.2056809950910718  0.5082874834096175  0.2056720179359246  1.0000
  N   N10       1.0  0.697415847401693  0.491737488382931  0.6974089989559359  1.0000
  N   N11       1.0  0.30260401120585784  0.9999993715416406  0.7943271387112671  1.0000
  N   N12       1.0  0.7943229109013075  0.9999957280540457  0.30260905842131797  1.0000
  N   N13       1.0  0.9587993936731322  0.45252509371356814  0.09013055902423879  1.0000
  N   N14       1.0  0.04119510820483179  0.1313246656725794  0.49372820238986026  1.0000
  N   N15       1.0  0.6376078204129952  0.5474776230048163  0.5062737447927858  1.0000
  N   N16       1.0  0.36238876068092185  0.8686678009599332  0.9098665636946278  1.0000
  N   N17       1.0  0.8686588985867516  0.9098587682046927  0.3623916474672483  1.0000
  N   N18       1.0  0.5474757878669934  0.5062702152265004  0.6376028706743567  1.0000
  N   N19       1.0  0.1313354414918777  0.4937215362194608  0.041196841885614816  1.0000
  N   N20       1.0  0.45252303871976085  0.09013440882876005  0.958797747234584  1.0000
  N   N21       1.0  0.5062755183958599  0.6376032742500256  0.5474641195003541  1.0000
  N   N22       1.0  0.9098680895619465  0.36238639153935276  0.8686619498775556  1.0000
  N   N23       1.0  0.09012555904432425  0.9587904834930614  0.45252354741478473  1.0000
  N   N24       1.0  0.4937226768469499  0.04119852094886764  0.13133195999522224  1.0000
  N   N25       1.0  0.9587949117194013  0.09012661190047305  0.4525281436589879  1.0000
  N   N26       1.0  0.041200641555036555  0.4937235819349368  0.13132762080163465  1.0000
  N   N27       1.0  0.6376113638422749  0.5062763486371155  0.5474706924614807  1.0000
  N   N28       1.0  0.3623859913514875  0.9098667647740014  0.8686651078966391  1.0000
  N   N29       1.0  0.8686671354910583  0.3623853884014562  0.9098630041300309  1.0000
  N   N30       1.0  0.5474785222692728  0.6376044764232843  0.5062668610148292  1.0000
  N   N31       1.0  0.13132616380905646  0.041190315771600976  0.49372420255646415  1.0000
  N   N32       1.0  0.45252561211748327  0.9587985271404948  0.09013245983972241  1.0000
  N   N33       1.0  0.5062749354826507  0.5474698130434987  0.6376009833441357  1.0000
  N   N34       1.0  0.9098582703765172  0.8686576897856852  0.36239045137732956  1.0000
  N   N35       1.0  0.090140086026096  0.45252265916942463  0.9587959311993896  1.0000
  N   N36       1.0  0.4937213821737103  0.1313350400059008  0.04119996046050299  1.0000
  N   N37       1.0  0.9308172252790637  0.5012806843501139  0.11707468772475244  1.0000
  N   N38       1.0  0.06918320478386868  0.18624979588062018  0.5704684719663006  1.0000
  N   N39       1.0  0.6157880021953587  0.498718266272121  0.42953510370530523  1.0000
  N   N40       1.0  0.3842086182669316  0.813745618235458  0.8829292579309037  1.0000
  N   N41       1.0  0.8137352535684665  0.8829192871382714  0.3842064371132495  1.0000
  N   N42       1.0  0.49872301605226704  0.42953637234084147  0.6157901920262175  1.0000
  N   N43       1.0  0.18625851735754398  0.5704588965952055  0.06918184017492728  1.0000
  N   N44       1.0  0.5012774208378373  0.1170757320385576  0.930813304122111  1.0000
  N   N45       1.0  0.4295292789028477  0.6157882391313477  0.49871746459474037  1.0000
  N   N46       1.0  0.8829292063423817  0.38420296056239056  0.8137404901960108  1.0000
  N   N47       1.0  0.11706642458656073  0.9308084650671303  0.5012804847761814  1.0000
  N   N48       1.0  0.5704600380544561  0.06918321428521067  0.1862594245492275  1.0000
  N   N49       1.0  0.9308189229441268  0.11707217979743217  0.5012893011996411  1.0000
  N   N50       1.0  0.06918074204953943  0.5704618538367329  0.18625258134706266  1.0000
  N   N51       1.0  0.6157972373179275  0.4295372641845956  0.49872066694547346  1.0000
  N   N52       1.0  0.3842059545200696  0.8829307239506221  0.8137420867436232  1.0000
  N   N53       1.0  0.8137440924393287  0.38420244874838244  0.8829261108198168  1.0000
  N   N54       1.0  0.49871611322165416  0.6157873867239516  0.42953148778835276  1.0000
  N   N55       1.0  0.18625089494877747  0.06917771044509631  0.5704626289980081  1.0000
  N   N56       1.0  0.5012797202877266  0.930815036841132  0.11707508218741233  1.0000
  N   N57       1.0  0.4295341629299187  0.49871433842796614  0.6157842554873766  1.0000
  N   N58       1.0  0.8829182364026309  0.8137342168969823  0.3842026807452542  1.0000
  N   N59       1.0  0.11708126606381322  0.5012742940347791  0.9308112928604969  1.0000
  N   N60       1.0  0.5704606524768392  0.1862619964649284  0.06918980963927619  1.0000
  O   O1        1.0  0.8453820648592225  0.2134180650763396  0.9157749377195755  1.0000
  O   O2        1.0  0.1546216990788948  0.07039333448415871  0.36804376215984996  1.0000
  O   O3        1.0  0.7023707521004212  0.7865961683371411  0.6319425254571628  1.0000
  O   O4        1.0  0.297632332318571  0.9295891913448744  0.08421445910742172  1.0000
  O   O5        1.0  0.9295661078100464  0.0842021206130782  0.2976186850585736  1.0000
  O   O6        1.0  0.7865798448154208  0.6319613871658446  0.7023489857004249  1.0000
  O   O7        1.0  0.07042939532919222  0.3680473562364597  0.1546402592566238  1.0000
  O   O8        1.0  0.2134050028936227  0.9157927118030994  0.8453632566856369  1.0000
  O   O9        1.0  0.6319613615680306  0.7023837092916593  0.7865899425174729  1.0000
  O   O10       1.0  0.08423429438166574  0.2976435550767388  0.9295988648912182  1.0000
  O   O11       1.0  0.9157663743199577  0.8453554209404571  0.21341393986613613  1.0000
  O   O12       1.0  0.36804831157782286  0.15462867229324925  0.07041831351268259  1.0000
  O   O13       1.0  0.8453539471381575  0.9157713510571314  0.2134162771645264  1.0000
  O   O14       1.0  0.15464734326504728  0.3680565577024879  0.07042553367669768  1.0000
  O   O15       1.0  0.7023573370464714  0.6319605814026373  0.7865795202777263  1.0000
  O   O16       1.0  0.29764823681425395  0.0842366637700565  0.9295984779421714  1.0000
  O   O17       1.0  0.9296107540696636  0.29764553741947697  0.08423139400425579  1.0000
  O   O18       1.0  0.7865792082805427  0.7023700250473155  0.6319377895809524  1.0000
  O   O19       1.0  0.07040514199212565  0.15461939693621926  0.36804761276722076  1.0000
  O   O20       1.0  0.21340018572335104  0.8453607293372583  0.915757916360313  1.0000
  O   O21       1.0  0.6319552610937861  0.7866009940855533  0.7023561810374231  1.0000
  O   O22       1.0  0.0842048439668303  0.9295695768055552  0.29761759465235826  1.0000
  O   O23       1.0  0.9157951278781977  0.21342376688879455  0.845381894354652  1.0000
  O   O24       1.0  0.36804876077871274  0.07041930853346659  0.15463771614646757  1.0000
  O   O25       1.0  7.369579006919468e-07  0.35348924781611385  0.9999956104229849  1.0000
  O   O26       1.0  0.9999940176624378  0.9999910964948527  0.3534976973627267  1.0000
  O   O27       1.0  0.6465113422194333  0.6465065543568683  0.646507154796815  1.0000
  O   O28       1.0  0.3534912069061277  4.017708611989076e-06  1.1869917174071109e-06  1.0000
