data_image0
_chemical_formula_structural       Cd2H8C10N20
_chemical_formula_sum              "Cd2 H8 C10 N20"
_cell_length_a       3.6513730280513506
_cell_length_b       11.468813529053786
_cell_length_c       12.022731350892201
_cell_angle_alpha    70.14256011706661
_cell_angle_beta     81.75181281285722
_cell_angle_gamma    87.1301397233602

_space_group_name_H-M_alt    "P 1"
_space_group_IT_number       1

loop_
  _space_group_symop_operation_xyz
  'x, y, z'

loop_
  _atom_site_type_symbol
  _atom_site_label
  _atom_site_symmetry_multiplicity
  _atom_site_fract_x
  _atom_site_fract_y
  _atom_site_fract_z
  _atom_site_occupancy
  Cd  Cd1       1.0  0.32011514877250136  0.5001501230722241  0.365167860829999  1.0000
  Cd  Cd2       1.0  0.6798918265986771  0.49984900389173953  0.6348318247396776  1.0000
  H   H1        1.0  0.0916466879647544  0.5256741174606602  0.09173723407914036  1.0000
  H   H2        1.0  0.9083602387885888  0.47432686349957026  0.9082618661047519  1.0000
  H   H3        1.0  0.7582575290423533  0.005586733967923899  0.3985354910205032  1.0000
  H   H4        1.0  0.241743776373788  0.9944160726061783  0.6014649275362063  1.0000
  H   H5        1.0  0.711561851566323  0.9646729151874357  0.2088991816777224  1.0000
  H   H6        1.0  0.2884285311009478  0.035324302354851504  0.7911034607312928  1.0000
  H   H7        1.0  0.4483577684120164  0.1358780786934943  0.03991176798235329  1.0000
  H   H8        1.0  0.5516408619893767  0.8641219475558943  0.9600888106212011  1.0000
  C   C1        1.0  0.20465843974618989  0.4331311280894282  0.1278862644984642  1.0000
  C   C2        1.0  0.7953512925759368  0.56686987449244  0.8721110488505703  1.0000
  C   C3        1.0  0.428857871678602  0.27146149017990245  0.24886384847047793  1.0000
  C   C4        1.0  0.5711435399826639  0.7285394846892572  0.751134650605323  1.0000
  C   C5        1.0  0.6527942529802926  0.07770150305446322  0.3245182147823229  1.0000
  C   C6        1.0  0.3471877745175576  0.9222984826303959  0.6754830653636574  1.0000
  C   C7        1.0  0.6252261203601605  0.05341816276910553  0.2182985727931808  1.0000
  C   C8        1.0  0.37475321801366596  0.9465781007320259  0.7817048300036761  1.0000
  C   C9        1.0  0.4874165453117599  0.14331323699401113  0.1254164665640332  1.0000
  C   C10       1.0  0.5125682685457775  0.8566867628820419  0.8745838617026467  1.0000
  N   N1        1.0  0.2414134200675804  0.35480741863018045  0.0662905104349321  1.0000
  N   N2        1.0  0.7585935258948596  0.645193569760494  0.9337077547933957  1.0000
  N   N3        1.0  0.3140799176391909  0.3880585118405336  0.23782534190696233  1.0000
  N   N4        1.0  0.6859325140066018  0.6119443440679079  0.7621721040881014  1.0000
  N   N5        1.0  0.5601736065151925  0.18557206811063753  0.3402304885448402  1.0000
  N   N6        1.0  0.4398222708448856  0.8144288932370148  0.6597682443784406  1.0000
  N   N7        1.0  0.3860524308366138  0.25204069261708645  0.1431671858792924  1.0000
  N   N8        1.0  0.6139406409546808  0.7479602471089277  0.8568333338788463  1.0000
  N   N9        1.0  0.7716017851348199  0.39179005181862453  0.48906538269840644  1.0000
  N   N10       1.0  0.22839963162626023  0.6082099886219582  0.5109342440258544  1.0000
  N   N11       1.0  0.8047849334701593  0.2801623297009003  0.5383287665765479  1.0000
  N   N12       1.0  0.19521374044924758  0.7198367769807918  0.4616712697643449  1.0000
  N   N13       1.0  0.8423360332182952  0.17536612756336473  0.586653947162084  1.0000
  N   N14       1.0  0.15766259718309783  0.8246338986860238  0.4133466314414704  1.0000
  N   N15       1.0  0.8410840813824195  0.623910543158381  0.26913914848704923  1.0000
  N   N16       1.0  0.1589201460472651  0.37608858447526944  0.7308598190508065  1.0000
  N   N17       1.0  0.87095145207428  0.7239541381015827  0.19113954506342876  1.0000
  N   N18       1.0  0.12904994037788237  0.2760468293371332  0.8088597889679363  1.0000
  N   N19       1.0  0.9036566281353303  0.8202960107985433  0.11580958013787782  1.0000
  N   N20       1.0  0.09634756087616128  0.17970310197422634  0.8841910573110994  1.0000
