data_image0
_chemical_formula_structural       Cd2H44C48N8O8
_chemical_formula_sum              "Cd2 H44 C48 N8 O8"
_cell_length_a       10.29132774825761
_cell_length_b       11.450208799921489
_cell_length_c       11.460959685018079
_cell_angle_alpha    119.68707569812129
_cell_angle_beta     100.81729598402605
_cell_angle_gamma    98.15360146514965

_space_group_name_H-M_alt    "P 1"
_space_group_IT_number       1

loop_
  _space_group_symop_operation_xyz
  'x, y, z'

loop_
  _atom_site_type_symbol
  _atom_site_label
  _atom_site_symmetry_multiplicity
  _atom_site_fract_x
  _atom_site_fract_y
  _atom_site_fract_z
  _atom_site_occupancy
  Cd  Cd1       1.0  0.1055385434623943  0.05493438940527539  0.4102411647226845  1.0000
  Cd  Cd2       1.0  0.8944615981153491  0.945064913692086  0.5897569481331787  1.0000
  H   H1        1.0  0.14683529627362196  0.45180461639728264  0.8924362816509941  1.0000
  H   H2        1.0  0.853162852341008  0.5481946920575355  0.10756322892859786  1.0000
  H   H3        1.0  0.1733320293769367  0.3884084146501293  0.7231772401324149  1.0000
  H   H4        1.0  0.8266697837515622  0.611589865660683  0.2768241562899476  1.0000
  H   H5        1.0  0.9916441901514191  0.3648110963451359  0.5276871610475595  1.0000
  H   H6        1.0  0.008355242872624988  0.6351892503721998  0.4723113378214379  1.0000
  H   H7        1.0  0.8089313010236907  0.4624444323541965  0.4647240718290959  1.0000
  H   H8        1.0  0.1910722061873997  0.53756011711625  0.5352798159423813  1.0000
  H   H9        1.0  0.7852245976669536  0.6646465192899739  0.8886472282095212  1.0000
  H   H10       1.0  0.21478159766714816  0.3353569906079059  0.11135662320168653  1.0000
  H   H11       1.0  0.9691770877643793  0.571026710080936  0.9528278204537415  1.0000
  H   H12       1.0  0.0308263244889844  0.42897363062392907  0.04716875665608466  1.0000
  H   H13       1.0  0.5930731592665311  0.5440503365065084  0.5336196109070883  1.0000
  H   H14       1.0  0.4069301927147109  0.455950046520215  0.46638482939744824  1.0000
  H   H15       1.0  0.6213866521994333  0.6695910462939735  0.715307248040041  1.0000
  H   H16       1.0  0.37861431298045295  0.3304114078417085  0.2846951683994234  1.0000
  H   H17       1.0  0.02444061989663032  0.21068305222462413  0.2197807798786471  1.0000
  H   H18       1.0  0.9755572407901526  0.7893152152889441  0.7802190435496711  1.0000
  H   H19       1.0  0.7736445980994658  0.8669350308628833  0.19153305119178302  1.0000
  H   H20       1.0  0.2263538317461169  0.1330653232356127  0.8084670202273757  1.0000
  H   H21       1.0  0.6425157421926854  0.9018907225371958  0.9790877748784153  1.0000
  H   H22       1.0  0.3574784472833343  0.09810857782279919  0.020911036395439484  1.0000
  H   H23       1.0  0.7589660908588415  0.0429274147018859  0.8780858027191342  1.0000
  H   H24       1.0  0.24103332877139402  0.9570729414203144  0.1219144435264641  1.0000
  H   H25       1.0  0.897733555027969  0.1924308955778855  0.9979433315614017  1.0000
  H   H26       1.0  0.10226812540252439  0.8075705102354006  0.0020578251766353584  1.0000
  H   H27       1.0  0.7487413055504036  0.2649462777770849  0.23935905732670898  1.0000
  H   H28       1.0  0.2512564090445721  0.7350551246438072  0.7606422737938913  1.0000
  H   H29       1.0  0.5985561722412882  0.4212582593341736  0.3143491940039382  1.0000
  H   H30       1.0  0.4014427117146581  0.5787399866909481  0.6856464358093105  1.0000
  H   H31       1.0  0.4553124796791864  0.4607316702904996  0.14150885881262107  1.0000
  H   H32       1.0  0.5446839772939925  0.5392686750581531  0.8584899892653723  1.0000
  H   H33       1.0  0.4754852516387515  0.3511670142723631  0.8998556827952555  1.0000
  H   H34       1.0  0.5245126291387336  0.6488312391339123  0.1001415195681687  1.0000
  H   H35       1.0  0.6644325365926848  0.269584650609552  0.7649851540503504  1.0000
  H   H36       1.0  0.3355728150485717  0.7304157223572928  0.23501701484214985  1.0000
  H   H37       1.0  0.708352040344849  0.12600930958688392  0.7617236010323367  1.0000
  H   H38       1.0  0.29165244325708517  0.8739952513121235  0.23828220894217364  1.0000
  H   H39       1.0  0.4243856997761668  0.23531537038962816  0.6264430820104465  1.0000
  H   H40       1.0  0.5756141471768218  0.7646828964689121  0.3735562173824435  1.0000
  H   H41       1.0  0.4978892874363937  0.9050336307568755  0.6745333028274915  1.0000
  H   H42       1.0  0.5021072821440739  0.09496360319659658  0.3254684059997359  1.0000
  H   H43       1.0  0.2330371503630317  0.820233173151827  0.4911628782887263  1.0000
  H   H44       1.0  0.7669600017700446  0.17976613798170854  0.5088373311527334  1.0000
  C   C1        1.0  0.021805910037023972  0.24365478665328763  0.7312057930651648  1.0000
  C   C2        1.0  0.9781949400944255  0.7563434728240991  0.2687919337775568  1.0000
  C   C3        1.0  0.09625333405612932  0.392213419636242  0.7783463779594868  1.0000
  C   C4        1.0  0.9037487803940252  0.6077858922109627  0.22165295823754153  1.0000
  C   C5        1.0  0.9905019371809446  0.45784228580129144  0.7434228721033094  1.0000
  C   C6        1.0  0.009495520529554798  0.5421507461127247  0.2565725745769925  1.0000
  C   C7        1.0  0.9443875683126353  0.42865769073004856  0.6060432237528914  1.0000
  C   C8        1.0  0.055610445162855536  0.5713374371737598  0.3939542182948584  1.0000
  C   C9        1.0  0.8409400090218073  0.4818885646235456  0.5703430029168644  1.0000
  C   C10       1.0  0.15905983123428774  0.5181097069374231  0.429657170164326  1.0000
  C   C11       1.0  0.7802751887553115  0.5653242354619792  0.670336013351239  1.0000
  C   C12       1.0  0.21972749485364326  0.4346771629701465  0.3296635708366225  1.0000
  C   C13       1.0  0.8276481165174377  0.5957829683668621  0.80792730227752  1.0000
  C   C14       1.0  0.1723548349286546  0.40421948511380623  0.1920745901265164  1.0000
  C   C15       1.0  0.9314868217869546  0.5425463069189005  0.8440214737719315  1.0000
  C   C16       1.0  0.06851630923546283  0.45745298814228624  0.15597454249832782  1.0000
  C   C17       1.0  0.6713664113719559  0.6264557002895896  0.6326223378185887  1.0000
  C   C18       1.0  0.3286342725769771  0.373545708202414  0.3673795177813091  1.0000
  C   C19       1.0  0.7296635759937402  0.7416944730864329  0.6100970309882924  1.0000
  C   C20       1.0  0.2703388062935517  0.25830589380930036  0.3899046134249033  1.0000
  C   C21       1.0  0.9403070206387768  0.12113576340279049  0.18536622800486668  1.0000
  C   C22       1.0  0.05969183652955928  0.8788625014320457  0.8146328965615834  1.0000
  C   C23       1.0  0.8066704432654815  0.9429970423173446  0.16555115134410428  1.0000
  C   C24       1.0  0.19332845408426644  0.05700119430292011  0.8344427310925439  1.0000
  C   C25       1.0  0.7407319994791025  0.9590130690538458  0.06055086883780087  1.0000
  C   C26       1.0  0.2592698471339077  0.040985187744816194  0.9394461591430527  1.0000
  C   C27       1.0  0.7991480036923805  0.131121356900195  0.9878260733850226  1.0000
  C   C28       1.0  0.20085240572250748  0.868879001245702  0.012174347687008208  1.0000
  C   C29       1.0  0.7015796018924265  0.22177220849817306  0.02841376732636296  1.0000
  C   C30       1.0  0.2984223597690204  0.7782302429587844  0.9715879502512409  1.0000
  C   C31       1.0  0.6891157943224046  0.2844601429806417  0.16475927652084726  1.0000
  C   C32       1.0  0.31088291005722374  0.7155412614639616  0.8352422294261858  1.0000
  C   C33       1.0  0.6030348421135586  0.3711014364909531  0.206576798179924  1.0000
  C   C34       1.0  0.3969638957505808  0.6288999444414997  0.7934203393255997  1.0000
  C   C35       1.0  0.525030142514389  0.3950138435529239  0.11094843032617525  1.0000
  C   C36       1.0  0.4749666023866368  0.6049875427369783  0.8890501049030846  1.0000
  C   C37       1.0  0.5366840828893515  0.3333331851209137  0.9752647098191571  1.0000
  C   C38       1.0  0.4633146348840853  0.666668209918832  0.024735048751274764  1.0000
  C   C39       1.0  0.6248816104970274  0.24774664216563744  0.9326184907544499  1.0000
  C   C40       1.0  0.37512035786132003  0.7522558045888912  0.06738235313485318  1.0000
  C   C41       1.0  0.6325977570272416  0.1858649968617669  0.7834212908237248  1.0000
  C   C42       1.0  0.36740209662265505  0.8141332652943518  0.2165771348808648  1.0000
  C   C43       1.0  0.40587900070519833  0.1337753397642345  0.6145378558151363  1.0000
  C   C44       1.0  0.5941208261570878  0.8662229412015916  0.38546406464265454  1.0000
  C   C45       1.0  0.4403132748246393  0.9593053138412773  0.6383457612504985  1.0000
  C   C46       1.0  0.5596845992559452  0.04069294426743399  0.3616523148012191  1.0000
  C   C47       1.0  0.3115958075862365  0.9192362172820049  0.5469722308873058  1.0000
  C   C48       1.0  0.6884031378429328  0.08076626102084822  0.4530350780291029  1.0000
  N   N1        1.0  0.9310789300288604  0.044646277560040894  0.24265959151635028  1.0000
  N   N2        1.0  0.06891921858577628  0.9553530308947698  0.7573399190632413  1.0000
  N   N3        1.0  0.8273530108699206  0.0721027187510401  0.07415938559796588  1.0000
  N   N4        1.0  0.1726455717643702  0.9278944957376892  0.9258383044406173  1.0000
  N   N5        1.0  0.49882988456659677  0.0955022154102849  0.679731520410904  1.0000
  N   N6        1.0  0.5011719419557041  0.9044960554956704  0.3202681286348581  1.0000
  N   N7        1.0  0.2917897925237369  0.029099644824874798  0.532987444013898  1.0000
  N   N8        1.0  0.7082098681560326  0.9709017851555757  0.46701860520107646  1.0000
  O   O1        1.0  0.029444146302296303  0.14232074138389808  0.6143510900033959  1.0000
  O   O2        1.0  0.9705550121876955  0.8576785549873305  0.3856459743377201  1.0000
  O   O3        1.0  0.9529232174513852  0.2237080412863078  0.8023817814790914  1.0000
  O   O4        1.0  0.047079032137908323  0.776295451111906  0.19761962324977847  1.0000
  O   O5        1.0  0.7855046915857214  0.7091216303859367  0.5116672697600322  1.0000
  O   O6        1.0  0.21449599906011946  0.2908797734036384  0.4883337121515723  1.0000
  O   O7        1.0  0.7231550684385368  0.8647283242882648  0.6920913504745201  1.0000
  O   O8        1.0  0.2768460428331565  0.13527099494009315  0.3079095582726765  1.0000
