data_image0
_chemical_formula_structural       AlH12C27O6F3
_chemical_formula_sum              "Al1 H12 C27 O6 F3"
_cell_length_a       3.99571326355529
_cell_length_b       16.029148729951917
_cell_length_c       16.06795130185486
_cell_angle_alpha    119.801002845774
_cell_angle_beta     90.0172348532622
_cell_angle_gamma    91.34192911843641

_space_group_name_H-M_alt    "P 1"
_space_group_IT_number       1

loop_
  _space_group_symop_operation_xyz
  'x, y, z'

loop_
  _atom_site_type_symbol
  _atom_site_label
  _atom_site_symmetry_multiplicity
  _atom_site_fract_x
  _atom_site_fract_y
  _atom_site_fract_z
  _atom_site_occupancy
  Al  Al1       1.0  0.9965111007020583  0.5008061570829908  0.5010954736979372  1.0000
  H   H1        1.0  0.49755399390333827  0.923246611878291  0.07782190377474761  1.0000
  H   H2        1.0  0.473824657998044  0.655188034522581  0.07771405023009233  1.0000
  H   H3        1.0  0.5239016001094399  0.9223481087019606  0.3446139269774661  1.0000
  H   H4        1.0  0.7485323696721694  0.2373184130341599  0.2524028823670932  1.0000
  H   H5        1.0  0.7641081895823021  0.059791304237727196  0.16309768096414248  1.0000
  H   H6        1.0  0.22538207578762132  0.05170278071072689  0.39267099415571494  1.0000
  H   H7        1.0  0.24083240391698277  0.8389541641809687  0.9423714704496715  1.0000
  H   H8        1.0  0.7687410159160211  0.5200159185498024  0.7699231683709726  1.0000
  H   H9        1.0  0.7688871817382222  0.6087720790893415  0.9472993628371711  1.0000
  H   H10       1.0  0.7621310482862711  0.6062517510767264  0.15943082104454467  1.0000
  H   H11       1.0  0.23900627858817103  0.7421700912583873  0.47895709793372987  1.0000
  H   H12       1.0  0.2380931821561987  0.8358619905737186  0.39412793395338497  1.0000
  C   C1        1.0  0.5052737623059258  0.5758798608083993  0.6486975557115784  1.0000
  C   C2        1.0  0.5015167397114696  0.5711437127498372  0.4239919555540084  1.0000
  C   C3        1.0  0.48461682041626375  0.3525728021608075  0.4288849750228607  1.0000
  C   C4        1.0  0.49770008737363713  0.7830081358507285  0.06535403215767117  1.0000
  C   C5        1.0  0.49787528113323287  0.8837636461716726  0.11681224186775531  1.0000
  C   C6        1.0  0.4988235733327145  0.9350521348887071  0.21729825499674138  1.0000
  C   C7        1.0  0.5045983582123342  0.8833841443314513  0.2665650225283541  1.0000
  C   C8        1.0  0.4988840767239894  0.7826215224196034  0.21733181354776573  1.0000
  C   C9        1.0  0.49239408946667146  0.733486336374611  0.11675943200576461  1.0000
  C   C10       1.0  0.6333572732667605  0.1958727081070819  0.2823302314447957  1.0000
  C   C11       1.0  0.6383340344291072  0.09581072935768023  0.2319001174938506  1.0000
  C   C12       1.0  0.496360467332231  0.0412993458377358  0.2702061232839412  1.0000
  C   C13       1.0  0.34933894288347744  0.09024694639267493  0.3609495450102785  1.0000
  C   C14       1.0  0.3507607282983258  0.18984702659008693  0.41037109266225263  1.0000
  C   C15       1.0  0.4886825711392363  0.2447903046696568  0.37308194921883603  1.0000
  C   C16       1.0  0.3657642069823695  0.7703757763384543  0.9070850964442199  1.0000
  C   C17       1.0  0.3772564095230564  0.7203429819091481  0.8078297456697712  1.0000
  C   C18       1.0  0.5133497638281597  0.6294770898664764  0.7563017829847283  1.0000
  C   C19       1.0  0.651998640216334  0.5898004765090408  0.8084710835149808  1.0000
  C   C20       1.0  0.648181393885338  0.6396122914670457  0.9083476925976228  1.0000
  C   C21       1.0  0.5023572491968055  0.7302177355110543  0.9593399479068764  1.0000
  C   C22       1.0  0.6424219062377787  0.6380164901474927  0.22908616221413772  1.0000
  C   C23       1.0  0.6435602213123559  0.5875462666294029  0.2784174532092366  1.0000
  C   C24       1.0  0.5018287727032487  0.6234258120457811  0.36932375149983443  1.0000
  C   C25       1.0  0.35592244175234095  0.7141100646866574  0.40915043792180217  1.0000
  C   C26       1.0  0.3583444431343495  0.7665221260989483  0.3616106583288  1.0000
  C   C27       1.0  0.5005111017310214  0.7290220010530674  0.2701118405062103  1.0000
  O   O1        1.0  0.24711138547064593  0.39267222409490193  0.4105414697619878  1.0000
  O   O2        1.0  0.26167900567538993  0.5164797366145991  0.6082285962913901  1.0000
  O   O3        1.0  0.2698814028052184  0.5907935934143181  0.4853790444797994  1.0000
  O   O4        1.0  0.7204330314633723  0.39575588868219574  0.4894379261386277  1.0000
  O   O5        1.0  0.732298460016928  0.5116576092039083  0.40814742398980997  1.0000
  O   O6        1.0  0.7419791769817865  0.5930750660259392  0.6061872494751553  1.0000
  F   F1        1.0  0.20748107251520764  0.23573218981135108  0.49843137716060687  1.0000
  F   F2        1.0  0.2447881269416997  0.7611188395462206  0.7587845585962398  1.0000
  F   F3        1.0  0.7835712924823212  0.4997225703885063  0.23410025312916355  1.0000
