data_image0
_chemical_formula_structural       Er2CoH28C16O18
_chemical_formula_sum              "Er2 Co1 H28 C16 O18"
_cell_length_a       8.74737862223691
_cell_length_b       8.913756473781728
_cell_length_c       10.366609725006036
_cell_angle_alpha    84.14547893948335
_cell_angle_beta     70.57739979048193
_cell_angle_gamma    80.68566081735149

_space_group_name_H-M_alt    "P 1"
_space_group_IT_number       1

loop_
  _space_group_symop_operation_xyz
  'x, y, z'

loop_
  _atom_site_type_symbol
  _atom_site_label
  _atom_site_symmetry_multiplicity
  _atom_site_fract_x
  _atom_site_fract_y
  _atom_site_fract_z
  _atom_site_occupancy
  Er  Er1       1.0  0.9235777660499452  0.07804813190853109  0.6868322869315335  1.0000
  Er  Er2       1.0  0.07644712079779475  0.9219669633447295  0.3131551472625276  1.0000
  Co  Co1       1.0  7.110242854962939e-06  0.9999938167584046  0.999995524545163  1.0000
  H   H1        1.0  0.8517770850484041  0.35285435834747136  0.08147347952321841  1.0000
  H   H2        1.0  0.1482243944206161  0.6471104477571217  0.9185335488680691  1.0000
  H   H3        1.0  0.6695763190446372  0.4370474552598722  0.04155252522930646  1.0000
  H   H4        1.0  0.3304197219389027  0.5629128256873059  0.9584592974625322  1.0000
  H   H5        1.0  0.8612225313926561  0.49987606837252224  0.9506677741624542  1.0000
  H   H6        1.0  0.13876504440245446  0.500114673720489  0.0493608481572707  1.0000
  H   H7        1.0  0.728887586594489  0.7448076404007367  0.08334864604724856  1.0000
  H   H8        1.0  0.271119273874703  0.25521983106533247  0.916645642731922  1.0000
  H   H9        1.0  0.5909552994463568  0.7237545766300642  0.9920840518685167  1.0000
  H   H10       1.0  0.40904697600788614  0.2762509138159928  0.007910154335668633  1.0000
  H   H11       1.0  0.5513576156918276  0.882838536297278  0.0908451045255347  1.0000
  H   H12       1.0  0.4486439831631729  0.11717238906404497  0.909143784236818  1.0000
  H   H13       1.0  0.5023713714853884  0.8710507280389733  0.5639757516078632  1.0000
  H   H14       1.0  0.4976403765109296  0.1288606148012263  0.43603419038102226  1.0000
  H   H15       1.0  0.449594330171273  0.7174247817388277  0.6862384420319145  1.0000
  H   H16       1.0  0.5503725220237571  0.28251838291460973  0.3137942862971101  1.0000
  H   H17       1.0  0.530463567275561  0.8690085978414  0.7283667481075965  1.0000
  H   H18       1.0  0.4695361917355499  0.13092214584104056  0.27164867018318256  1.0000
  H   H19       1.0  0.196313529337182  0.3228578277715144  0.24755616931118854  1.0000
  H   H20       1.0  0.8036263425982855  0.6772119641385429  0.7524351738164512  1.0000
  H   H21       1.0  0.252753616261927  0.42193805026942494  0.36370998681339023  1.0000
  H   H22       1.0  0.7472134466752466  0.5781357378089069  0.6362741213384807  1.0000
  H   H23       1.0  0.055669907290550213  0.4677313361254816  0.3512367484369179  1.0000
  H   H24       1.0  0.9442741836781746  0.5323106697625803  0.6487907113461661  1.0000
  H   H25       1.0  0.74445427110836  0.12247335260399689  0.4897998711302379  1.0000
  H   H26       1.0  0.25557627655469173  0.8775205407311687  0.5101954716199515  1.0000
  H   H27       1.0  0.6167855510140753  0.17252962392291238  0.6358104544336598  1.0000
  H   H28       1.0  0.38323240064578096  0.8274397862940644  0.364186130290129  1.0000
  C   C1        1.0  0.27909201397730504  0.9195184502086561  0.735969225768514  1.0000
  C   C2        1.0  0.7209189664239447  0.0804555307993056  0.26403143991921507  1.0000
  C   C3        1.0  0.8014010623705091  0.399885781010937  1.02564123946262e-06  1.0000
  C   C4        1.0  0.19860489646534768  0.6000877690746333  1.0458640524352522e-05  1.0000
  C   C5        1.0  0.6505837621766661  0.8044886414004465  0.025834468540267542  1.0000
  C   C6        1.0  0.3494122347692326  0.1955454984938925  0.9741626830271457  1.0000
  C   C7        1.0  0.8366007010416896  0.28562354601601914  0.8937319274980953  1.0000
  C   C8        1.0  0.1634181457093362  0.7143707297783378  0.10625661220887389  1.0000
  C   C9        1.0  0.7464284988166272  0.8944195547417235  0.904895392555332  1.0000
  C   C10       1.0  0.25356792287397667  0.10560137720124628  0.09509067954049749  1.0000
  C   C11       1.0  0.4516582752502387  0.8412160235025538  0.6736682595897038  1.0000
  C   C12       1.0  0.5483398933592626  0.1587169687240433  0.326347283300592  1.0000
  C   C13       1.0  0.15418095409758342  0.37251868924203535  0.3474165560198585  1.0000
  C   C14       1.0  0.845762268749219  0.6275416207588974  0.6525886242421705  1.0000
  C   C15       1.0  0.09009584699597181  0.2592578943767521  0.4616000164112251  1.0000
  C   C16       1.0  0.909905802798292  0.7407786467193914  0.5383954421536573  1.0000
  O   O1        1.0  0.19253821201289162  0.9625106675027338  0.6559417298438248  1.0000
  O   O2        1.0  0.8074928662592529  0.0374886861906418  0.34404799253086077  1.0000
  O   O3        1.0  0.056084438884767024  0.29212021751181527  0.5849558000200474  1.0000
  O   O4        1.0  0.9439133976878651  0.7079173842490575  0.4150404781787813  1.0000
  O   O5        1.0  0.902280936282985  0.8944887118513446  0.879868185006636  1.0000
  O   O6        1.0  0.09771909223329091  0.10550968026261387  0.12012356771586502  1.0000
  O   O7        1.0  0.9684959605573413  0.18613670788024447  0.8715466836231655  1.0000
  O   O8        1.0  0.0315213293026062  0.8138607534098339  0.12843799423109203  1.0000
  O   O9        1.0  0.6800085093147958  0.9709250129763302  0.8227730431562392  1.0000
  O   O10       1.0  0.3199925629861795  0.0291011442709888  0.17722187513709284  1.0000
  O   O11       1.0  0.7460846972108542  0.28587419272432857  0.8210676071047301  1.0000
  O   O12       1.0  0.25393791993266035  0.7141347911588907  0.1789143614767141  1.0000
  O   O13       1.0  0.06240719681129291  0.12792635343544842  0.43789350364694  1.0000
  O   O14       1.0  0.937628106048777  0.8720962683029752  0.5620991350995225  1.0000
  O   O15       1.0  0.7285371514925247  0.17545377603533296  0.5758578992311385  1.0000
  O   O16       1.0  0.27148193373935225  0.8245442862560779  0.42413689028995083  1.0000
  O   O17       1.0  0.22969958097392873  0.93556800953948  0.8635396561539891  1.0000
  O   O18       1.0  0.7703070663408624  0.06440349568863009  0.13646045096001563  1.0000
