data_image0
_chemical_formula_structural       Zn2H48C48N12O8
_chemical_formula_sum              "Zn2 H48 C48 N12 O8"
_cell_length_a       10.329229882267601
_cell_length_b       10.509046768064383
_cell_length_c       12.534
_cell_angle_alpha    113.1800890209676
_cell_angle_beta     97.01518191561014
_cell_angle_gamma    105.2387806620168

_space_group_name_H-M_alt    "P 1"
_space_group_IT_number       1

loop_
  _space_group_symop_operation_xyz
  'x, y, z'

loop_
  _atom_site_type_symbol
  _atom_site_label
  _atom_site_symmetry_multiplicity
  _atom_site_fract_x
  _atom_site_fract_y
  _atom_site_fract_z
  _atom_site_occupancy
  Zn  Zn1       1.0  0.8965434408752913  0.8893154024342919  0.6877332505474102  1.0000
  Zn  Zn2       1.0  0.103456964253887  0.1106871310239299  0.3122684241757057  1.0000
  H   H1        1.0  0.4873076745650451  0.5767938976982663  0.4482215270028718  1.0000
  H   H2        1.0  0.5126959251589653  0.4232064337102202  0.5517837316594836  1.0000
  H   H3        1.0  0.23255438068490258  0.45104474647751397  0.359774642625915  1.0000
  H   H4        1.0  0.767448243610488  0.5489555849309724  0.6402305178606512  1.0000
  H   H5        1.0  0.06848791810136129  0.573003069077096  0.44803195670346707  1.0000
  H   H6        1.0  0.9315139990743972  0.426995060281655  0.5519732036995535  1.0000
  H   H7        1.0  0.41359026683096534  0.938260361924776  0.7175022154494215  1.0000
  H   H8        1.0  0.5864085410008073  0.06174327255830998  0.28249806621902723  1.0000
  H   H9        1.0  0.6900155449978911  0.7948419636193191  0.8360354446074397  1.0000
  H   H10       1.0  0.3099853967492479  0.2051561657394245  0.16396403281047614  1.0000
  H   H11       1.0  0.1182765338145231  0.8712607966457284  0.8942240743701079  1.0000
  H   H12       1.0  0.8817252003030944  0.1287428378373647  0.10577650182571573  1.0000
  H   H13       1.0  0.7468545204480816  0.80438234410218  0.10405195589680012  1.0000
  H   H14       1.0  0.2531484574071357  0.1956190883311706  0.8959480187371655  1.0000
  H   H15       1.0  0.7968373174244121  0.646603278440935  0.053030457423908245  1.0000
  H   H16       1.0  0.2031633560137536  0.3533970529675514  0.9469681240718446  1.0000
  H   H17       1.0  0.7501345151161729  0.4154871483593466  0.7978117390058943  1.0000
  H   H18       1.0  0.24986748731042496  0.584514284074011  0.20218973311208538  1.0000
  H   H19       1.0  0.643746478605685  0.2835006912602935  0.8329109251125074  1.0000
  H   H20       1.0  0.3562528658440414  0.7164985391233216  0.16708875491054448  1.0000
  H   H21       1.0  0.7601258538986854  0.45044688997408844  0.949025139825473  1.0000
  H   H22       1.0  0.2398741124198338  0.5495512393846624  0.0509766329063481  1.0000
  H   H23       1.0  0.5141867587635786  0.20832821838467908  0.6713749359764378  1.0000
  H   H24       1.0  0.48581578028097283  0.7916688099492006  0.3286243388363346  1.0000
  H   H25       1.0  0.35577967537608396  0.20264362699021624  0.5977208250114145  1.0000
  H   H26       1.0  0.6442216199308745  0.7973556033933988  0.40227905136321596  1.0000
  H   H27       1.0  0.3636682928338431  0.1556287640936702  0.7192343251258323  1.0000
  H   H28       1.0  0.636335038581187  0.8443737693645517  0.280765250634957  1.0000
  H   H29       1.0  0.2629361059541182  0.7434285063743573  0.9510313310782906  1.0000
  H   H30       1.0  0.7370681156386922  0.2565707240092577  0.04897043548352538  1.0000
  H   H31       1.0  0.1567024225937956  0.5938520759811254  0.8157668735622539  1.0000
  H   H32       1.0  0.8432975437247237  0.4061460533776255  0.18423489916957442  1.0000
  H   H33       1.0  0.28027000640668825  0.7467624096752343  0.8136049948593894  1.0000
  H   H34       1.0  0.7197303134716578  0.25323682070838055  0.18639398550954672  1.0000
  H   H35       1.0  0.45857542020254977  0.8588192156351935  0.08236293414019964  1.0000
  H   H36       1.0  0.541427204092841  0.1411811157732927  0.9176398328566577  1.0000
  H   H37       1.0  0.5063228105115911  0.8998059673783985  0.9666241901510093  1.0000
  H   H38       1.0  0.49367981378379966  0.1001943640300809  0.03337777901594307  1.0000
  H   H39       1.0  0.6338875085273585  0.9051888779589774  0.07765051917133549  1.0000
  H   H40       1.0  0.3661146769573733  0.094807049350031  0.9223491545146204  1.0000
  H   H41       1.0  0.17679742306373206  0.45818158967311706  0.6511982106914688  1.0000
  H   H42       1.0  0.8232029820654531  0.5418209437851047  0.34880266620174183  1.0000
  H   H43       1.0  0.2374825619083509  0.3121790860020184  0.5849641901540324  1.0000
  H   H44       1.0  0.762517136101195  0.6878212454064678  0.41503349533603284  1.0000
  H   H45       1.0  0.12190585007106587  0.07024648761533567  0.5972634165220897  1.0000
  H   H46       1.0  0.8780964206645052  0.9297527427682795  0.40273655802833747  1.0000
  H   H47       1.0  0.8561924791713268  0.2156335183851184  0.8080751581360915  1.0000
  H   H48       1.0  0.1437972940503656  0.7843602068741617  0.19191057207837053  1.0000
  C   C1        1.0  0.6192197576935426  0.843828762054798  0.645122521478541  1.0000
  C   C2        1.0  0.3807810009954622  0.15617487242829498  0.35488194569100534  1.0000
  C   C3        1.0  0.4665438923751494  0.7665984737005329  0.5876479545790545  1.0000
  C   C4        1.0  0.5334526110395714  0.2334040597576887  0.41235252961098473  1.0000
  C   C5        1.0  0.41487874679451403  0.6287809888995568  0.48657306385980803  1.0000
  C   C6        1.0  0.5851245846205159  0.371221544558665  0.5134297032205879  1.0000
  C   C7        1.0  0.27213767274697176  0.5591995203046025  0.43676350030373357  1.0000
  C   C8        1.0  0.7278644149304724  0.44080521520335475  0.563241463998324  1.0000
  C   C9        1.0  0.17999451898416646  0.6265117766462182  0.4863942684902725  1.0000
  C   C10       1.0  0.8200065080138116  0.3734896557871323  0.5136094989416193  1.0000
  C   C11       1.0  0.23053324608105893  0.7637071823966649  0.5879475137313649  1.0000
  C   C12       1.0  0.7694652081908943  0.23629535106155689  0.41205396464016536  1.0000
  C   C13       1.0  0.13431729053041144  0.8366104430189479  0.6461732841260216  1.0000
  C   C14       1.0  0.865682139170154  0.1633920904392738  0.3538298880811084  1.0000
  C   C15       1.0  0.37361800077807317  0.8324573772161372  0.6380734104512272  1.0000
  C   C16       1.0  0.6263794780652674  0.1675451562420847  0.3619287675744118  1.0000
  C   C17       1.0  0.7946643921145551  0.8025513397463797  0.8699566633890472  1.0000
  C   C18       1.0  0.20533397690655159  0.1974478906372354  0.13004212062830334  1.0000
  C   C19       1.0  0.012801644259411665  0.8408306713387148  0.9027379391459435  1.0000
  C   C20       1.0  0.9871970783215218  0.1591696600697716  0.0972612438281288  1.0000
  C   C21       1.0  0.7458158173883119  0.7103449111350102  0.02358320519576298  1.0000
  C   C22       1.0  0.2541857462276198  0.2896521171988695  0.9764159714412204  1.0000
  C   C23       1.0  0.6024105586055556  0.6185315484015845  0.9416480410685111  1.0000
  C   C24       1.0  0.3975903831415764  0.3814665809571665  0.05835063851949945  1.0000
  C   C25       1.0  0.5767112330025341  0.47070794959850554  0.860192224675977  1.0000
  C   C26       1.0  0.4232890868758047  0.5292912807851164  0.13980755352286417  1.0000
  C   C27       1.0  0.6878641714328708  0.40184545024247587  0.8605406123916454  1.0000
  C   C28       1.0  0.31213747743390025  0.5981548811660033  0.1394604607696124  1.0000
  C   C29       1.0  0.4482002707992621  0.3898101474083049  0.7736506237881714  1.0000
  C   C30       1.0  0.5518003173880501  0.6101868809255748  0.2263468590132121  1.0000
  C   C31       1.0  0.4190283876970256  0.2316677435405552  0.6861707541042961  1.0000
  C   C32       1.0  0.580972907609933  0.7683314868430599  0.31382912227034154  1.0000
  C   C33       1.0  0.3477713128713518  0.4583874813234701  0.7705911335344453  1.0000
  C   C34       1.0  0.6522277632693942  0.5416139511098876  0.22941004405615226  1.0000
  C   C35       1.0  0.3707311287337589  0.6027648722891142  0.8563543095134352  1.0000
  C   C36       1.0  0.6292717638706122  0.3972332570696366  0.14364695991586274  1.0000
  C   C37       1.0  0.2616767192084523  0.6743380948706201  0.8583029166140648  1.0000
  C   C38       1.0  0.7383242225386866  0.3256600344881305  0.1416973586337491  1.0000
  C   C39       1.0  0.5005683335013983  0.6848462762126174  0.9408573897486293  1.0000
  C   C40       1.0  0.4994316328171209  0.3151518531461335  0.05914278732339543  1.0000
  C   C41       1.0  0.5277095975814844  0.8444838718513665  0.02155357608221928  1.0000
  C   C42       1.0  0.4722926731540936  0.1555153585322486  0.9784479941280111  1.0000
  C   C43       1.0  0.21716049206465726  0.380081491672982  0.6687449405812843  1.0000
  C   C44       1.0  0.7828417786709139  0.6199177387106332  0.33125264047943404  1.0000
  C   C45       1.0  0.07034209628032068  0.13766994746863753  0.6527791580848686  1.0000
  C   C46       1.0  0.9296578700381983  0.8623281818901062  0.3472178276675422  1.0000
  C   C47       1.0  0.9371665113886393  0.21616751544618745  0.760750309279061  1.0000
  C   C48       1.0  0.0628259198099315  0.783828411862828  0.2392396065200373  1.0000
  N   N1        1.0  0.9059086582740787  0.8493349874206118  0.8327932207082827  1.0000
  N   N2        1.0  0.09409139329528667  0.15066644501274595  0.1672072572282062  1.0000
  N   N3        1.0  0.9731642048169391  0.7916776181481493  0.9802584984038702  1.0000
  N   N4        1.0  0.026835846752419488  0.2083238142852082  0.0197411817027202  1.0000
  N   N5        1.0  0.8343751078009234  0.7678712584481602  0.9577553595781299  1.0000
  N   N6        1.0  0.1656252120774226  0.23212797193545498  0.0422444186207116  1.0000
  N   N7        1.0  0.9647011262978253  0.09159646083439547  0.6961504668150696  1.0000
  N   N8        1.0  0.035294231186590294  0.9083994664746199  0.303841339171214  1.0000
  N   N9        1.0  0.02034140616274269  0.3354591558150091  0.7596306600213509  1.0000
  N   N10       1.0  0.9796539513216728  0.6645367714939993  0.24036114596493258  1.0000
  N   N11       1.0  0.10405500349667555  0.2827641056234781  0.6902233901193497  1.0000
  N   N12       1.0  0.8959443409530506  0.717235124760137  0.309772300754183  1.0000
  O   O1        1.0  0.7006061311525399  0.7792723709582603  0.5910366607898611  1.0000
  O   O2        1.0  0.2993914329416398  0.22073346557456827  0.4089706050796665  1.0000
  O   O3        1.0  0.6624315020376912  0.9611870027550822  0.7407988249637613  1.0000
  O   O4        1.0  0.3375650013770297  0.038815530703139686  0.25920564837579013  1.0000
  O   O5        1.0  0.005013841904272473  0.7812817413427026  0.5865232834220536  1.0000
  O   O6        1.0  0.9949859413561128  0.2187218931403834  0.4134802877417912  1.0000
  O   O7        1.0  0.1804332322319411  0.945680168511501  0.7481937310340997  1.0000
  O   O8        1.0  0.8195674412062173  0.05432016289697829  0.2518088396111651  1.0000
