data_image0
_chemical_formula_structural       Al4H36C64O28
_chemical_formula_sum              "Al4 H36 C64 O28"
_cell_length_a       6.671109420310612
_cell_length_b       24.11677190504764
_cell_length_c       25.093895168118358
_cell_angle_alpha    89.89054127543832
_cell_angle_beta     89.09539078979411
_cell_angle_gamma    89.35374341780714

_space_group_name_H-M_alt    "P 1"
_space_group_IT_number       1

loop_
  _space_group_symop_operation_xyz
  'x, y, z'

loop_
  _atom_site_type_symbol
  _atom_site_label
  _atom_site_symmetry_multiplicity
  _atom_site_fract_x
  _atom_site_fract_y
  _atom_site_fract_z
  _atom_site_occupancy
  Al  Al1       1.0  0.9465019769700403  0.9982306962132127  0.4994779496884688  1.0000
  Al  Al2       1.0  0.44643323412223157  0.0021609359715882015  0.4990226933133144  1.0000
  Al  Al3       1.0  0.053486370544398185  0.4979215426663828  0.0009546925191159997  1.0000
  Al  Al4       1.0  0.5534289140255594  0.5018133458161742  0.0004777526577654997  1.0000
  H   H1        1.0  0.18376333608351558  0.073011665938445  0.5084301271105858  1.0000
  H   H2        1.0  0.687769207140576  0.9305963558376292  0.5209858703544156  1.0000
  H   H3        1.0  0.3160942427708875  0.4270555334220845  0.9915041499381089  1.0000
  H   H4        1.0  0.8120662133241652  0.5694879459259213  0.9790056502885207  1.0000
  H   H5        1.0  0.466367874802664  0.41276320689367907  0.1353803664912974  1.0000
  H   H6        1.0  0.4379166019673021  0.33832552966234175  0.20444895978201313  1.0000
  H   H7        1.0  0.0933260210947964  0.3734067982497751  0.11263408304397157  1.0000
  H   H8        1.0  0.4065379736357926  0.1265586289704146  0.3871239448322683  1.0000
  H   H9        1.0  0.033664088060732  0.08727926329479632  0.3646279005640308  1.0000
  H   H10       1.0  0.0622642040524468  0.16166407924251305  0.2955307436436669  1.0000
  H   H11       1.0  0.9707259658732424  0.6054788307122011  0.8853190671585125  1.0000
  H   H12       1.0  0.9341141005351118  0.6791295399334134  0.8161063136695716  1.0000
  H   H13       1.0  0.6119677415910942  0.6070915237551588  0.8642026505349988  1.0000
  H   H14       1.0  0.8880462217218363  0.8931706873165054  0.6359134632694889  1.0000
  H   H15       1.0  0.5292883410483923  0.8944850294078537  0.6145872977608916  1.0000
  H   H16       1.0  0.5656639028068893  0.8207803918997174  0.6837683231338474  1.0000
  H   H17       1.0  0.5975930948086585  0.6320293607314938  0.0997252358454759  1.0000
  H   H18       1.0  0.5952925950986907  0.7036412516243402  0.1714560175337922  1.0000
  H   H19       1.0  0.9749509145834164  0.5984623864291478  0.1327035087140871  1.0000
  H   H20       1.0  0.5248198699147152  0.9016827405769094  0.3671703488687257  1.0000
  H   H21       1.0  0.9024599795748216  0.8679712668927383  0.4003378448701723  1.0000
  H   H22       1.0  0.904693061156266  0.796349936796588  0.3286123958964494  1.0000
  H   H23       1.0  0.4744248229510362  0.38466442326099326  0.8961288337688131  1.0000
  H   H24       1.0  0.43741481889956185  0.3142830040659419  0.8241506338894523  1.0000
  H   H25       1.0  0.11339177737855269  0.3850536120561685  0.8698603775118912  1.0000
  H   H26       1.0  0.38680239076876427  0.11530719259862109  0.62994061078264  1.0000
  H   H27       1.0  0.026112216450421492  0.11466310683223921  0.6043689633794003  1.0000
  H   H28       1.0  0.06362601870416999  0.1847988951811175  0.6765690831065924  1.0000
  H   H29       1.0  0.06296205534047057  0.2655043256477256  0.2096661422689579  1.0000
  H   H30       1.0  0.4370618327725352  0.23434853974931263  0.2900354563057093  1.0000
  H   H31       1.0  0.569277828535988  0.7120091351944994  0.7639995691542082  1.0000
  H   H32       1.0  0.9305156994589436  0.7882882161865652  0.7361452766579432  1.0000
  H   H33       1.0  0.9624201319808705  0.69811175217216  0.23736804269476858  1.0000
  H   H34       1.0  0.5372535226380748  0.8020198405511111  0.2625048382890114  1.0000
  H   H35       1.0  0.070270201284103  0.28513217974587945  0.7657242077787245  1.0000
  H   H36       1.0  0.43059420951760785  0.2149188403199602  0.7343426393000242  1.0000
  C   C1        1.0  0.6883378737479475  0.07117280378636791  0.567875277864303  1.0000
  C   C2        1.0  0.7097145161808952  0.06188984973321961  0.4242474459315915  1.0000
  C   C3        1.0  0.21271719862503596  0.9303092250376822  0.4315469081384293  1.0000
  C   C4        1.0  0.19129953617563436  0.937303700554928  0.5752302958408109  1.0000
  C   C5        1.0  0.8117649751325471  0.42883570845386737  0.932151961561999  1.0000
  C   C6        1.0  0.7901565008982556  0.43815399082333073  0.07570754156405  1.0000
  C   C7        1.0  0.2872011276036943  0.5697577910654418  0.0684317353609174  1.0000
  C   C8        1.0  0.3087138689955252  0.5627755378064735  0.9247471223107978  1.0000
  C   C9        1.0  0.7805229705278547  0.3969502185596525  0.12005030512055727  1.0000
  C   C10       1.0  0.596241087077935  0.38776723393341683  0.1463822118215106  1.0000
  C   C11       1.0  0.5812937990249623  0.3467074254566569  0.18486881050306178  1.0000
  C   C12       1.0  0.7502996185111  0.3139749189913701  0.19780128346911852  1.0000
  C   C13       1.0  0.9369716768457151  0.3245898246858446  0.17186469984195438  1.0000
  C   C14       1.0  0.9512681583228114  0.3659260923314065  0.13324015459934907  1.0000
  C   C15       1.0  0.74289515508179  0.26985984460102236  0.2347347249242233  1.0000
  C   C16       1.0  0.757349949051111  0.23009023749703064  0.26510517714984155  1.0000
  C   C17       1.0  0.7498789418952398  0.18598852369045465  0.3020491095632778  1.0000
  C   C18       1.0  0.5630963308863669  0.17531788139925908  0.3279098623657645  1.0000
  C   C19       1.0  0.5487105254263013  0.13401076720505506  0.36654373723606426  1.0000
  C   C20       1.0  0.719418273856725  0.10303343952275411  0.37985278026097546  1.0000
  C   C21       1.0  0.9037571498978136  0.11222624708402407  0.3535641815812339  1.0000
  C   C22       1.0  0.9187925359257745  0.1532639669627684  0.3150539029401216  1.0000
  C   C23       1.0  0.2927651139773601  0.6032000893178875  0.8797493546218647  1.0000
  C   C24       1.0  0.10187901073841493  0.6227378187992727  0.8653709732224257  1.0000
  C   C25       1.0  0.0818476352579651  0.6636863099866729  0.8270426081970539  1.0000
  C   C26       1.0  0.25355943489338273  0.6860205802269377  0.8020916847974957  1.0000
  C   C27       1.0  0.4454767704787486  0.6642112404622011  0.8149623393559507  1.0000
  C   C28       1.0  0.46455494307183187  0.6231895443493299  0.853745512843183  1.0000
  C   C29       1.0  0.24416086440549378  0.7303609089517948  0.7654572203850377  1.0000
  C   C30       1.0  0.255501155087721  0.769670397684962  0.73447237002528  1.0000
  C   C31       1.0  0.2461880346042662  0.8140341980282173  0.6978723733967342  1.0000
  C   C32       1.0  0.05439769302515878  0.8359643438557144  0.6850842306518317  1.0000
  C   C33       1.0  0.035440589970903595  0.8769655604458111  0.6462765085472383  1.0000
  C   C34       1.0  0.20726294752836336  0.8968857546551303  0.6202348011332289  1.0000
  C   C35       1.0  0.3981124017361849  0.8772846720465001  0.6345786469145338  1.0000
  C   C36       1.0  0.41796066397541415  0.8363074570027466  0.6728839151914128  1.0000
  C   C37       1.0  0.28619940353550527  0.6119141830160545  0.11182361433930768  1.0000
  C   C38       1.0  0.4617572299727256  0.6411816505565542  0.1228043423047254  1.0000
  C   C39       1.0  0.45954406121890645  0.6810508214824083  0.1624986566303832  1.0000
  C   C40       1.0  0.28228161389888123  0.6922396405210735  0.1921662704830851  1.0000
  C   C41       1.0  0.10699447334636857  0.6614642701268423  0.1814075047576225  1.0000
  C   C42       1.0  0.10946632674561839  0.6218319585721943  0.1412087022775168  1.0000
  C   C43       1.0  0.26822427477366517  0.7329777091908127  0.23237079813996078  1.0000
  C   C44       1.0  0.23163146852835578  0.767087755312602  0.2675960244901674  1.0000
  C   C45       1.0  0.21752303696285938  0.807817599226901  0.3078106312049442  1.0000
  C   C46       1.0  0.3927731847631292  0.8386324614491018  0.3185248062466997  1.0000
  C   C47       1.0  0.3903806286422763  0.8782712857233578  0.35872423110651397  1.0000
  C   C48       1.0  0.21369930490923386  0.8881624024312132  0.3881526711744455  1.0000
  C   C49       1.0  0.038245929541659486  0.858844966403865  0.3772239715811452  1.0000
  C   C50       1.0  0.040420294997744584  0.8189712961617418  0.3375269542962229  1.0000
  C   C51       1.0  0.7955556685578031  0.3879251882826155  0.8878303825891933  1.0000
  C   C52       1.0  0.6049952589602225  0.3684820372354098  0.874530633598546  1.0000
  C   C53       1.0  0.5847602996785852  0.3293716660298501  0.834742335472569  1.0000
  C   C54       1.0  0.7556080077128585  0.3088508851877024  0.8072005679046725  1.0000
  C   C55       1.0  0.9471691517275288  0.32980164157573444  0.8198615913408035  1.0000
  C   C56       1.0  0.9665497612945585  0.3690028713661275  0.8600935794078097  1.0000
  C   C57       1.0  0.7452360524943911  0.2677429068484329  0.7674779668427049  1.0000
  C   C58       1.0  0.7558263534160189  0.23179101249076692  0.732983635090143  1.0000
  C   C59       1.0  0.7452510130415319  0.190749336748425  0.6931972459949803  1.0000
  C   C60       1.0  0.5534069545535089  0.17012350967196002  0.6802914440991117  1.0000
  C   C61       1.0  0.5338424046707856  0.1310570164397404  0.6399485399603363  1.0000
  C   C62       1.0  0.704819443335232  0.11194014949445832  0.6123179539586444  1.0000
  C   C63       1.0  0.8955986807782705  0.1310609711783712  0.6258478703810084  1.0000
  C   C64       1.0  0.916087898025509  0.17001035249700186  0.6657704710550618  1.0000
  O   O1        1.0  0.8524591115153013  0.05818062547560741  0.544008961812608  1.0000
  O   O2        1.0  0.5406523712430625  0.0545976189533022  0.44760859159579514  1.0000
  O   O3        1.0  0.3780349625162741  0.9535108046653563  0.44186228983227227  1.0000
  O   O4        1.0  0.017958295262530996  0.9555310232339379  0.5628167040898545  1.0000
  O   O5        1.0  0.046049293848888284  0.9395324037611206  0.4557755323858856  1.0000
  O   O6        1.0  0.3557757350176799  0.949200194971219  0.5514782280239742  1.0000
  O   O7        1.0  0.5154147706076202  0.052990037492790514  0.5564736383492174  1.0000
  O   O8        1.0  0.8736630313910254  0.03804462685916119  0.43663867995528693  1.0000
  O   O9        1.0  0.19281846498665087  0.03442868107164541  0.49799384396774116  1.0000
  O   O10       1.0  0.6949688689976626  0.9660384686207879  0.5028989271445141  1.0000
  O   O11       1.0  0.9846199766136577  0.44709366184937954  0.9435221953677768  1.0000
  O   O12       1.0  0.6262240363593106  0.4620058137259946  0.06332662882103789  1.0000
  O   O13       1.0  0.4538586512079731  0.5605246733557863  0.04420633031059399  1.0000
  O   O14       1.0  0.14419859682008246  0.5509044112771164  0.9484845052956743  1.0000
  O   O15       1.0  0.12187109787572577  0.5465524867308175  0.05812833860292699  1.0000
  O   O16       1.0  0.4820255957643695  0.5445154953894615  0.937167979714573  1.0000
  O   O17       1.0  0.6475608839442372  0.44185917003838426  0.9559586483605357  1.0000
  O   O18       1.0  0.9592535426453564  0.4454714439707745  0.05236542758873239  1.0000
  O   O19       1.0  0.30708698874449414  0.4656335148101505  0.0019692437464016  1.0000
  O   O20       1.0  0.8049450028372785  0.5340366009522414  0.9970820734676025  1.0000
  O   O21       1.0  0.10369638427668798  0.29391453260057426  0.18374950356278666  1.0000
  O   O22       1.0  0.3963321043742951  0.20594123374612386  0.3159465033825768  1.0000
  O   O23       1.0  0.613229802945696  0.6840372045195265  0.7898874091015173  1.0000
  O   O24       1.0  0.8865757153336772  0.8162675973720186  0.7102522237592835  1.0000
  O   O25       1.0  0.9340236788982351  0.6704460193101482  0.2099650663255659  1.0000
  O   O26       1.0  0.5656214026422716  0.8296926681007976  0.2899058764832033  1.0000
  O   O27       1.0  0.1143616566727488  0.31147346982236007  0.7927964889498185  1.0000
  O   O28       1.0  0.38625950266440157  0.188694507159596  0.70720102996502  1.0000
