data_image0
_chemical_formula_structural       Zn6P6H42C18N6O18
_chemical_formula_sum              "Zn6 P6 H42 C18 N6 O18"
_cell_length_a       10.158520972052251
_cell_length_b       10.158555789124883
_cell_length_c       13.26035643890722
_cell_angle_alpha    89.98229034697096
_cell_angle_beta     90.01767218938907
_cell_angle_gamma    120.01997938176899

_space_group_name_H-M_alt    "P 1"
_space_group_IT_number       1

loop_
  _space_group_symop_operation_xyz
  'x, y, z'

loop_
  _atom_site_type_symbol
  _atom_site_label
  _atom_site_symmetry_multiplicity
  _atom_site_fract_x
  _atom_site_fract_y
  _atom_site_fract_z
  _atom_site_occupancy
  Zn  Zn1       1.0  0.228398294887306  0.5897562023157831  0.4091426755781382  1.0000
  Zn  Zn2       1.0  0.41027863291002126  0.6386133333134582  0.07574862644295169  1.0000
  Zn  Zn3       1.0  0.36146272947539165  0.7716703193263469  0.742545003890079  1.0000
  Zn  Zn4       1.0  0.589755457784655  0.22839939118583158  0.5908566515381607  1.0000
  Zn  Zn5       1.0  0.6386093066246518  0.410273646517716  0.9242513977951459  1.0000
  Zn  Zn6       1.0  0.7716744804643838  0.3614657384103592  0.2574549994358931  1.0000
  P   P1        1.0  0.10980495453890181  0.46839434835952426  0.17918389808395566  1.0000
  P   P2        1.0  0.5317575114960748  0.6414927882969437  0.8457968630497985  1.0000
  P   P3        1.0  0.35855587891997964  0.8900949879384042  0.5125988009010811  1.0000
  P   P4        1.0  0.46839497806161023  0.10980229153890521  0.8208117186211792  1.0000
  P   P5        1.0  0.6414940458290134  0.531765480503836  0.15420539176935216  1.0000
  P   P6        1.0  0.8901018845906918  0.3585624957779954  0.48740192774506835  1.0000
  H   H1        1.0  0.07308432402653152  0.31401049361474515  0.18524052220012518  1.0000
  H   H2        1.0  0.6860988276289534  0.7593654701696906  0.8517730351596953  1.0000
  H   H3        1.0  0.24076183706963408  0.9265904402786942  0.518600192560619  1.0000
  H   H4        1.0  0.31401414262433036  0.0730896615978409  0.8147611744274597  1.0000
  H   H5        1.0  0.7593740025524982  0.686103220825963  0.14822764503320227  1.0000
  H   H6        1.0  0.92660440684579  0.24077229927756583  0.4814028190458614  1.0000
  H   H7        1.0  0.5216768525709697  0.6825873702338396  0.5306047646784008  1.0000
  H   H8        1.0  0.3173369097865048  0.8389463120977251  0.19711750004041304  1.0000
  H   H9        1.0  0.1609113625184122  0.47846437034414174  0.8642374107456517  1.0000
  H   H10       1.0  0.6825890611216822  0.5216704097593734  0.46939371353632703  1.0000
  H   H11       1.0  0.8389460560815395  0.31733431191315714  0.8028832518011837  1.0000
  H   H12       1.0  0.478464800814102  0.16091176856137673  0.13576422339547628  1.0000
  H   H13       1.0  0.5572336693479158  0.6439685272927562  0.4049199938380282  1.0000
  H   H14       1.0  0.35616026855275595  0.9131792486515375  0.07141460538458938  1.0000
  H   H15       1.0  0.08670458713502428  0.44266341741826654  0.7385221269556722  1.0000
  H   H16       1.0  0.6439702683567248  0.5572284202728565  0.5950784850035262  1.0000
  H   H17       1.0  0.9131774298151855  0.3561592594397354  0.928585363867654  1.0000
  H   H18       1.0  0.44266332893835175  0.08670358922434213  0.26147878049702905  1.0000
  H   H19       1.0  0.1596729186902125  0.3342607771177626  0.5548620267030911  1.0000
  H   H20       1.0  0.6654908529368699  0.8252891697409979  0.22179038019965694  1.0000
  H   H21       1.0  0.1747715936515065  0.840388568258966  0.8881650479527889  1.0000
  H   H22       1.0  0.33425350440586504  0.15967163629826328  0.4451411511302651  1.0000
  H   H23       1.0  0.8252869399752853  0.6654877903660219  0.7782095342205506  1.0000
  H   H24       1.0  0.8403900736673009  0.1747733527763982  0.11183573865111639  1.0000
  H   H25       1.0  0.2974465751679459  0.5032910625037273  0.6166108178456611  1.0000
  H   H26       1.0  0.49640514607273195  0.7940626068899803  0.2833374670600221  1.0000
  H   H27       1.0  0.205866966438684  0.7025827615225848  0.9499757859207063  1.0000
  H   H28       1.0  0.5032832029761991  0.2974383229488352  0.38338926798956396  1.0000
  H   H29       1.0  0.7940622269068102  0.4964032546103922  0.7166617430863197  1.0000
  H   H30       1.0  0.702584603934966  0.20586930638751968  0.050025027170484286  1.0000
  H   H31       1.0  0.3750493824118664  0.41656886627030315  0.3206282065706389  1.0000
  H   H32       1.0  0.5836184730504071  0.9585176936909147  0.9873230543036086  1.0000
  H   H33       1.0  0.04151075064024231  0.624827060410972  0.6539193311214433  1.0000
  H   H34       1.0  0.4165719939131023  0.37505213817469496  0.6793718815254478  1.0000
  H   H35       1.0  0.9585149510485067  0.5836147802613494  0.012676847369256398  1.0000
  H   H36       1.0  0.6248258655676437  0.04150833340894176  0.3460815423332732  1.0000
  H   H37       1.0  0.20663657934788665  0.2834907831581646  0.38459071431443437  1.0000
  H   H38       1.0  0.716623788493081  0.9232128306575685  0.05140258272964359  1.0000
  H   H39       1.0  0.0768360246305163  0.7932220191081567  0.7178529881246971  1.0000
  H   H40       1.0  0.2834899167744638  0.20664171237575593  0.6154109562069648  1.0000
  H   H41       1.0  0.9232082469638955  0.716619167987204  0.9485972945595262  1.0000
  H   H42       1.0  0.7932239542889336  0.07683740829919118  0.2821485887567405  1.0000
  C   C1        1.0  0.5114763055629368  0.5936574230308123  0.4789630445383891  1.0000
  C   C2        1.0  0.4063709400991088  0.9177332423652942  0.1455054350435958  1.0000
  C   C3        1.0  0.08215561007071409  0.4885396375171851  0.8125089511045898  1.0000
  C   C4        1.0  0.5936568293569097  0.511473487721659  0.5210347034891639  1.0000
  C   C5        1.0  0.9177336667068873  0.4063675025668729  0.8544952752749848  1.0000
  C   C6        1.0  0.4885408177536022  0.0821557862410031  0.18749270021724834  1.0000
  C   C7        1.0  0.2818212915532002  0.41223916879156514  0.5652552804152791  1.0000
  C   C8        1.0  0.5875890494661178  0.869527900318509  0.23203975988828765  1.0000
  C   C9        1.0  0.1304777335507625  0.7182305258677105  0.8985630463330093  1.0000
  C   C10       1.0  0.41223311850102123  0.2818185017994779  0.43474558562655113  1.0000
  C   C11       1.0  0.8695260596045458  0.5875864530668691  0.7679594087599992  1.0000
  C   C12       1.0  0.7182305983237924  0.13047844025413005  0.1014370274599017  1.0000
  C   C13       1.0  0.32898394166708306  0.3629618809921381  0.3938518708870119  1.0000
  C   C14       1.0  0.6371594469169749  0.9660541186602171  0.060582590585155985  1.0000
  C   C15       1.0  0.03395448359149363  0.6708785890454009  0.7271245068505292  1.0000
  C   C16       1.0  0.36296084152603214  0.3289850309938842  0.6061489958116794  1.0000
  C   C17       1.0  0.9660497685050091  0.6371574167566789  0.9394172955280025  1.0000
  C   C18       1.0  0.6708800708161534  0.033955791779852904  0.2728756027875434  1.0000
  N   N1        1.0  0.3460387776825655  0.48346204787107877  0.465616094478932  1.0000
  N   N2        1.0  0.5165514979220517  0.8625265900863182  0.13231021501165688  1.0000
  N   N3        1.0  0.13744223779538317  0.6539435520591395  0.7989805568792431  1.0000
  N   N4        1.0  0.4834587799308494  0.34603505111516586  0.5343847383432134  1.0000
  N   N5        1.0  0.8625222561791902  0.5165477230044003  0.8676897270022079  1.0000
  N   N6        1.0  0.6539451983219068  0.1374446490722435  0.20102028526927995  1.0000
  O   O1        1.0  0.22078689021574852  0.5516250015418931  0.2654615776620446  1.0000
  O   O2        1.0  0.4484713807139545  0.6690370785824911  0.9320907756979009  1.0000
  O   O3        1.0  0.33091692994270255  0.7790679975573621  0.5988340176276168  1.0000
  O   O4        1.0  0.5516257541507843  0.22079981785864075  0.7345354972263322  1.0000
  O   O5        1.0  0.6690347875836409  0.4484759295854984  0.06790772232032789  1.0000
  O   O6        1.0  0.7790710407282901  0.3309131915968777  0.40116372972773456  1.0000
  O   O7        1.0  0.9599668926616405  0.46964442028153286  0.18317976195765337  1.0000
  O   O8        1.0  0.5307709623030592  0.4905400631390506  0.8498060374590892  1.0000
  O   O9        1.0  0.5096054910273012  0.04003244466506569  0.5167348460327545  1.0000
  O   O10       1.0  0.4696454610911973  0.9599717899525615  0.8168081010707836  1.0000
  O   O11       1.0  0.4905527568406073  0.5307861675422102  0.15019927211432818  1.0000
  O   O12       1.0  0.040028181819053474  0.5096105015231557  0.4832660551907253  1.0000
  O   O13       1.0  0.18822918422580415  0.5289771221210984  0.07678600573008507  1.0000
  O   O14       1.0  0.4710208537200559  0.6592376578225154  0.7434284384757958  1.0000
  O   O15       1.0  0.3408155949245569  0.8117809338397063  0.41018557950709306  1.0000
  O   O16       1.0  0.5289860947090119  0.1882277262746043  0.9232125937786434  1.0000
  O   O17       1.0  0.6592416237077929  0.47102253720189674  0.2565723198245279  1.0000
  O   O18       1.0  0.8117820846594412  0.34081554928098956  0.5898136648608838  1.0000
