data_image0
_chemical_formula_structural       Ag4H44C52S4N12O12F12
_chemical_formula_sum              "Ag4 H44 C52 S4 N12 O12 F12"
_cell_length_a       6.694200492452701
_cell_length_b       14.609119622486567
_cell_length_c       16.211829794599403
_cell_angle_alpha    90.00061955382479
_cell_angle_beta     102.73591215956243
_cell_angle_gamma    89.99918291648164

_space_group_name_H-M_alt    "P 1"
_space_group_IT_number       1

loop_
  _space_group_symop_operation_xyz
  'x, y, z'

loop_
  _atom_site_type_symbol
  _atom_site_label
  _atom_site_symmetry_multiplicity
  _atom_site_fract_x
  _atom_site_fract_y
  _atom_site_fract_z
  _atom_site_occupancy
  Ag  Ag1       1.0  0.1530297722110845  0.8018454535123997  0.8396951359150722  1.0000
  Ag  Ag2       1.0  0.34698308622868973  0.3018464725235078  0.6603037942044028  1.0000
  Ag  Ag3       1.0  0.8469726099483734  0.19815045425929867  0.16030784429666062  1.0000
  Ag  Ag4       1.0  0.6530375937126391  0.6981514886841749  0.3396964788721847  1.0000
  H   H1        1.0  0.1026173106785819  0.1343778994715592  0.8883913044434237  1.0000
  H   H2        1.0  0.3973833208682861  0.6343773482398519  0.6116073949137757  1.0000
  H   H3        1.0  0.8973896430082037  0.8656234843118187  0.11161084453900832  1.0000
  H   H4        1.0  0.602602112450782  0.3656240355764736  0.3883885416111923  1.0000
  H   H5        1.0  0.3644929170558838  0.14633942293219349  0.20000102962858793  1.0000
  H   H6        1.0  0.1354904543301458  0.6463346203606907  0.2999981499431215  1.0000
  H   H7        1.0  0.6354941845215691  0.8536640144357222  0.8000024559755019  1.0000
  H   H8        1.0  0.8644995506097145  0.353665394427871  0.6999969553276203  1.0000
  H   H9        1.0  0.22657576683371158  0.9970609992095731  0.9627436033715  1.0000
  H   H10       1.0  0.2734240572363689  0.49706033996361754  0.5372536023856966  1.0000
  H   H11       1.0  0.7734327297322919  0.0029397000693265007  0.037259298282563705  1.0000
  H   H12       1.0  0.7265568044712436  0.5029417283765341  0.46274316539099664  1.0000
  H   H13       1.0  0.24058425901806393  0.287393739735137  0.1255309035428738  1.0000
  H   H14       1.0  0.25939824318407995  0.7873917590331344  0.3744652475673576  1.0000
  H   H15       1.0  0.7594027855705574  0.7126083286065852  0.8744694927846339  1.0000
  H   H16       1.0  0.7405978762464471  0.2126068867271371  0.6255297791232906  1.0000
  H   H17       1.0  0.915133777684609  0.3608711985122925  0.8470999448908858  1.0000
  H   H18       1.0  0.5848627437979133  0.8608683873478854  0.6528954635243096  1.0000
  H   H19       1.0  0.0848623645302382  0.6391288162631951  0.1528963175133882  1.0000
  H   H20       1.0  0.415128838244378  0.13912957393930717  0.3471022479760465  1.0000
  H   H21       1.0  0.1275167153607697  0.29019251325723877  0.8371339234732602  1.0000
  H   H22       1.0  0.3724826325634822  0.7901893154902951  0.6628612370025027  1.0000
  H   H23       1.0  0.872488661242272  0.7098095550196178  0.1628656192745765  1.0000
  H   H24       1.0  0.6275058181517252  0.20980727677541472  0.3371324977273461  1.0000
  H   H25       1.0  0.892450782853963  0.23940329544463881  0.8447416463493198  1.0000
  H   H26       1.0  0.6075505646419543  0.7394010491256466  0.655251776898382  1.0000
  H   H27       1.0  0.1075560910690214  0.7605946657933842  0.15525617764041044  1.0000
  H   H28       1.0  0.39243944033528777  0.2605962276471345  0.344743328362398  1.0000
  H   H29       1.0  0.9340200155324324  0.4262782247044257  0.9610907538603685  1.0000
  H   H30       1.0  0.5659716111501962  0.9262721183732625  0.5389023896460685  1.0000
  H   H31       1.0  0.0659776238995349  0.5737252125756102  0.0389037898132045  1.0000
  H   H32       1.0  0.43401682813546927  0.07372652740061622  0.461090727236936  1.0000
  H   H33       1.0  0.9579944989906507  0.36365362958292025  0.05708507659466732  1.0000
  H   H34       1.0  0.5419972419733198  0.8636456715340091  0.4429105880581902  1.0000
  H   H35       1.0  0.04200323162530851  0.6363518612382466  0.9429144099209453  1.0000
  H   H36       1.0  0.4579911859201928  0.13635228973226532  0.5570819109680017  1.0000
  H   H37       1.0  0.17872718796569126  0.4140957437826954  0.0316315244821297  1.0000
  H   H38       1.0  0.32126710024606797  0.9140910615049832  0.46836319007508115  1.0000
  H   H39       1.0  0.8212719943174562  0.5859090625047046  0.9683637718705498  1.0000
  H   H40       1.0  0.6787213618426049  0.08590758427621381  0.5316311625165611  1.0000
  H   H41       1.0  0.4313247145353926  0.9951884765895614  0.2062697591756617  1.0000
  H   H42       1.0  0.06866735897662579  0.4951846932062837  0.2937255457361588  1.0000
  H   H43       1.0  0.568677599149609  0.0048122226877751004  0.7937295139275946  1.0000
  H   H44       1.0  0.9313195374485161  0.5048132680641685  0.7062668184702332  1.0000
  C   C1        1.0  0.1479418488628639  0.22190474909267982  0.0007859107880889998  1.0000
  C   C2        1.0  0.3520562592876075  0.7219036579667206  0.49921283050974097  1.0000
  C   C3        1.0  0.852065104833265  0.7780959501867529  0.9992162381918563  1.0000
  C   C4        1.0  0.6479398943007052  0.2780984103242544  0.5007840497563265  1.0000
  C   C5        1.0  0.3032619049119346  0.05897503610312779  0.08916087670306891  1.0000
  C   C6        1.0  0.19673457260702068  0.558978690932413  0.4108386106293551  1.0000
  C   C7        1.0  0.6967450830167579  0.9410236096754546  0.9108431258323649  1.0000
  C   C8        1.0  0.8032539578345991  0.4410240618944172  0.5891594491031569  1.0000
  C   C9        1.0  0.12142422580451748  0.008379022277928501  0.6394217711608192  1.0000
  C   C10       1.0  0.3785740742694941  0.5083891041289519  0.8605946251738246  1.0000
  C   C11       1.0  0.878581264813583  0.9916230460355422  0.360583950130227  1.0000
  C   C12       1.0  0.621426890315135  0.4916157022348173  0.1394143987937042  1.0000
  C   C13       1.0  0.3803891780339299  0.9824701543342017  0.1386164842303259  1.0000
  C   C14       1.0  0.11960951689034259  0.4824682179387168  0.3613872994847895  1.0000
  C   C15       1.0  0.6196193527646371  0.017528491443854897  0.8613882709792194  1.0000
  C   C16       1.0  0.880383653637189  0.5175290588586491  0.6386136361044805  1.0000
  C   C17       1.0  0.15625164083268564  0.13765280098711233  0.9567910184012121  1.0000
  C   C18       1.0  0.34374733563636534  0.6376497269425273  0.5432057164051685  1.0000
  C   C19       1.0  0.8437568214914178  0.8623506362965827  0.04321002969986409  1.0000
  C   C20       1.0  0.6562380635155662  0.3623489188470331  0.4567883665468672  1.0000
  C   C21       1.0  0.303028401318258  0.1443418331979203  0.1319187070876566  1.0000
  C   C22       1.0  0.1969564762658891  0.6443381295514925  0.3680762677852557  1.0000
  C   C23       1.0  0.6969678092775736  0.8556602351113727  0.8680812624500192  1.0000
  C   C24       1.0  0.8030319858321346  0.35565983172575955  0.6319180848038997  1.0000
  C   C25       1.0  0.22797760260505837  0.05921004128992989  0.9997328648147673  1.0000
  C   C26       1.0  0.2720204988304502  0.5592082897053388  0.5002655007144554  1.0000
  C   C27       1.0  0.7720293624458419  0.9407940805128802  0.00026990203195251494  1.0000
  C   C28       1.0  0.7279603287474217  0.44078830259227436  0.4997294134793506  1.0000
  C   C29       1.0  0.48278631566645897  0.8269007950146731  0.17859164403115102  1.0000
  C   C30       1.0  0.017212067730703492  0.3268997320240672  0.321412456252979  1.0000
  C   C31       1.0  0.5172237124146478  0.17309648174033043  0.8214113924302566  1.0000
  C   C32       1.0  0.9827826342838929  0.6730961757612307  0.6785886141511099  1.0000
  C   C33       1.0  0.22844310950498678  0.22343831137605724  0.09029565000783892  1.0000
  C   C34       1.0  0.2715426594642664  0.7234332508518834  0.4096995524641116  1.0000
  C   C35       1.0  0.7715515240071082  0.7765644414267072  0.9097017132952417  1.0000
  C   C36       1.0  0.7284472998976099  0.27656471041019876  0.5902930813818801  1.0000
  C   C37       1.0  0.3999639672001011  0.8909483526525649  0.11555667891516921  1.0000
  C   C38       1.0  0.1000372386312876  0.3909468199400123  0.3844470563812621  1.0000
  C   C39       1.0  0.6000461291872198  0.10905645366779032  0.8844500646995713  1.0000
  C   C40       1.0  0.8999574063944776  0.6090477188190917  0.6155509247462376  1.0000
  C   C41       1.0  0.9958177926628976  0.2968144911043353  0.8670052275137365  1.0000
  C   C42       1.0  0.5041819983160919  0.7968112830638462  0.6329892315356318  1.0000
  C   C43       1.0  0.0041875953790438  0.7031848391604002  0.13299493307845722  1.0000
  C   C44       1.0  0.4958095039343603  0.20318530918982697  0.3670041549794973  1.0000
  C   C45       1.0  0.0327611520623634  0.37985374975392017  0.0049054716867403  1.0000
  C   C46       1.0  0.46723402569179473  0.8798504894266518  0.4950865221782337  1.0000
  C   C47       1.0  0.9672441219364813  0.6201476339860365  0.9950885103697261  1.0000
  C   C48       1.0  0.532752927731522  0.12014815636604939  0.5049089313022465  1.0000
  C   C49       1.0  0.3436609613420174  0.8561656581384226  0.0329323257650813  1.0000
  C   C50       1.0  0.1563503261528041  0.35616953911030447  0.467068875981859  1.0000
  C   C51       1.0  0.6563520954432815  0.14383367210906073  0.9670691267804443  1.0000
  C   C52       1.0  0.8436519761400374  0.6438304756594279  0.5329297792645847  1.0000
  S   S1        1.0  0.9778504552270559  0.022160601153260004  0.7253495921337816  1.0000
  S   S2        1.0  0.5221755790554495  0.5221658170517217  0.7746642566545462  1.0000
  S   S3        1.0  0.022174978749802697  0.9778366755891809  0.27465973536020993  1.0000
  S   S4        1.0  0.47782833450695245  0.47783488224339266  0.2253388583944371  1.0000
  N   N1        1.0  0.06227973543821721  0.2969029632139454  0.9590222732571763  1.0000
  N   N2        1.0  0.4377164005227883  0.796897196368569  0.5409745199843599  1.0000
  N   N3        1.0  0.9377195038431123  0.7031025275957106  0.040976112369598604  1.0000
  N   N4        1.0  0.5622766331866842  0.20310008038486424  0.4590190013530631  1.0000
  N   N5        1.0  0.296911105473761  0.8272134462168809  0.9642298943492236  1.0000
  N   N6        1.0  0.20309803139935667  0.3272159656847506  0.5357708043768881  1.0000
  N   N7        1.0  0.7030973340566788  0.1727893065555506  0.0357699180407138  1.0000
  N   N8        1.0  0.7969058251461688  0.6727854180960123  0.4642292214029808  1.0000
  N   N9        1.0  0.5507769340209379  0.7739100152788083  0.23116136580548396  1.0000
  N   N10       1.0  0.9492236002991133  0.27390892923582305  0.2688459240543324  1.0000
  N   N11       1.0  0.4492437573405893  0.2260865769246507  0.7688395251204414  1.0000
  N   N12       1.0  0.05076810720646559  0.7260856095719249  0.7311585838310963  1.0000
  O   O1        1.0  0.0987393302634914  0.9672783272819387  0.7946109490176312  1.0000
  O   O2        1.0  0.40129830190034  0.46727474063889224  0.7054022505284223  1.0000
  O   O3        1.0  0.9012998071088132  0.0327196339011664  0.20539526687682746  1.0000
  O   O4        1.0  0.5987056345211599  0.5327218516398916  0.2946021002142558  1.0000
  O   O5        1.0  0.7766594486324578  0.9853532193696565  0.6864546003321621  1.0000
  O   O6        1.0  0.7233555810515497  0.48536098615898043  0.8135689338492469  1.0000
  O   O7        1.0  0.223358430737612  0.014635158875393  0.31355961371931335  1.0000
  O   O8        1.0  0.27664532657229296  0.51464039766676  0.1864370008342249  1.0000
  O   O9        1.0  0.9843095580383903  0.12030279946453963  0.7416169129550099  1.0000
  O   O10       1.0  0.5156939097266926  0.6203017022447953  0.7583971333322026  1.0000
  O   O11       1.0  0.0156929723312942  0.8796937928587027  0.2583940993653826  1.0000
  O   O12       1.0  0.4843023465218933  0.3796969435594164  0.24160530761029264  1.0000
  F   F1        1.0  0.05162854491384652  0.06753643125880872  0.5747127015433052  1.0000
  F   F2        1.0  0.44835261970749946  0.5675406723132854  0.9252916558574924  1.0000
  F   F3        1.0  0.9483647166948684  0.9324704286230698  0.4252931769154173  1.0000
  F   F4        1.0  0.5516481853027955  0.43246071147950715  0.07470871813709583  1.0000
  F   F5        1.0  0.3254129038429311  0.024455469665134903  0.6675082775547452  1.0000
  F   F6        1.0  0.1745938496253814  0.5244596998507802  0.8324929805008667  1.0000
  F   F7        1.0  0.6745955584157457  0.9755527591461688  0.3324927705637678  1.0000
  F   F8        1.0  0.8254085666544668  0.47554236846739434  0.16751185329625431  1.0000
  F   F9        1.0  0.0997984561487115  0.9218145065363714  0.6077112557062136  1.0000
  F   F10       1.0  0.4002021536081912  0.4218213786369986  0.8922994781169964  1.0000
  F   F11       1.0  0.9002161320114864  0.07819166874636352  0.3922903316840305  1.0000
  F   F12       1.0  0.5997987767906138  0.5781820587078954  0.1077076922825952  1.0000
