data_image0
_chemical_formula_structural       Cu2H20C12N16Cl8
_chemical_formula_sum              "Cu2 H20 C12 N16 Cl8"
_cell_length_a       6.669639373015036
_cell_length_b       7.341029849701696
_cell_length_c       13.868599002370242
_cell_angle_alpha    98.88284462189316
_cell_angle_beta     90.00057680949335
_cell_angle_gamma    89.99864266959906

_space_group_name_H-M_alt    "P 1"
_space_group_IT_number       1

loop_
  _space_group_symop_operation_xyz
  'x, y, z'

loop_
  _atom_site_type_symbol
  _atom_site_label
  _atom_site_symmetry_multiplicity
  _atom_site_fract_x
  _atom_site_fract_y
  _atom_site_fract_z
  _atom_site_occupancy
  Cu  Cu1       1.0  0.9999966178088682  0.9999986153813152  0.9999991862369556  1.0000
  Cu  Cu2       1.0  0.5000000773391305  0.5000017154803018  0.9999987001675594  1.0000
  H   H1        1.0  0.5380066908633195  0.9770550667926016  0.08575226574855319  1.0000
  H   H2        1.0  0.038000977902221685  0.5229409538539329  0.9142475500654188  1.0000
  H   H3        1.0  0.461983929627685  0.0229435591402236  0.9142476423697233  1.0000
  H   H4        1.0  0.9620016372184066  0.47705347302969864  0.0857477050810971  1.0000
  H   H5        1.0  0.3052988898175143  0.076480552929489  0.2320044727456931  1.0000
  H   H6        1.0  0.8053084141804091  0.42352966143197085  0.767996249048885  1.0000
  H   H7        1.0  0.6946872326150096  0.9235388372963412  0.7680028187636339  1.0000
  H   H8        1.0  0.19469869906556167  0.576453819426021  0.23200392344445223  1.0000
  H   H9        1.0  0.39240777835359353  0.2894696112492312  0.2977118729358494  1.0000
  H   H10       1.0  0.8924008483973009  0.2105338933836194  0.702296647059903  1.0000
  H   H11       1.0  0.6075993347196798  0.7105483894902134  0.702294589487849  1.0000
  H   H12       1.0  0.10760476545960528  0.789455070934572  0.2977017886482898  1.0000
  H   H13       1.0  0.5465625954397166  0.12622266425189824  0.4254653971252368  1.0000
  H   H14       1.0  0.04654746374549749  0.373765258109259  0.5745360432295215  1.0000
  H   H15       1.0  0.4534400196343212  0.8737883802859656  0.5745361978703087  1.0000
  H   H16       1.0  0.9534431567557744  0.6262278216328523  0.4254612703474194  1.0000
  H   H17       1.0  0.46495228179789183  0.9090495221330455  0.3610066710120208  1.0000
  H   H18       1.0  0.9649411343563015  0.5909415184365087  0.638989612795342  1.0000
  H   H19       1.0  0.5350563305861156  0.09096150139436791  0.6389934802147154  1.0000
  H   H20       1.0  0.035056982907136096  0.40904614050651833  0.36101376889786263  1.0000
  C   C1        1.0  0.6500978550253007  0.03962341265877  0.1372870533769159  1.0000
  C   C2        1.0  0.15008786776500924  0.46037636433482726  0.8627078385286638  1.0000
  C   C3        1.0  0.3499062593928243  0.9603765290155903  0.862708630650012  1.0000
  C   C4        1.0  0.8499192453268589  0.5396166419401353  0.1372844218528044  1.0000
  C   C5        1.0  0.4217115792023093  0.1407484549194606  0.2817764061831411  1.0000
  C   C6        1.0  0.9216939187907156  0.3592568190500813  0.7182266133960908  1.0000
  C   C7        1.0  0.5782865379028691  0.8592584535774109  0.718224867148642  1.0000
  C   C8        1.0  0.07831319448920479  0.640721146994039  0.28177313021838307  1.0000
  C   C9        1.0  0.4332520554262657  0.057130343724807596  0.3755836380272228  1.0000
  C   C10       1.0  0.9332401480710854  0.4428620609981166  0.6244112214353024  1.0000
  C   C11       1.0  0.5667565569474745  0.9428862259933054  0.6244191077408489  1.0000
  C   C12       1.0  0.06675347105182537  0.5571351338902345  0.3755849700288962  1.0000
  N   N1        1.0  0.6125565859224548  0.11519697085375921  0.22980703622509685  1.0000
  N   N2        1.0  0.11257710309078557  0.3848040900189318  0.7701964411687003  1.0000
  N   N3        1.0  0.3874220398801213  0.8848141158901299  0.7701974462957466  1.0000
  N   N4        1.0  0.8874315093743587  0.6151834118779577  0.22979611222293536  1.0000
  N   N5        1.0  0.7873127138523797  0.17628566209402402  0.2734111176382115  1.0000
  N   N6        1.0  0.2873241296910932  0.3237196972200279  0.7265963571708625  1.0000
  N   N7        1.0  0.212677906571919  0.8237212151417309  0.72658799002339  1.0000
  N   N8        1.0  0.7126859821261887  0.6762747818426079  0.2734025074208191  1.0000
  N   N9        1.0  0.9278790927339171  0.1377053620619293  0.2088688648956136  1.0000
  N   N10       1.0  0.4278614049367062  0.3622926711246635  0.791122802954398  1.0000
  N   N11       1.0  0.07212202300554788  0.862294558740835  0.7911253753532534  1.0000
  N   N12       1.0  0.5721427094820156  0.6377058813872906  0.20887205196532221  1.0000
  N   N13       1.0  0.8464500520329491  0.05348545048828159  0.12359431774901712  1.0000
  N   N14       1.0  0.3464660500698996  0.44651802052059253  0.8764089473390728  1.0000
  N   N15       1.0  0.15352407582681588  0.9465159749418034  0.8764086923417055  1.0000
  N   N16       1.0  0.6535545570092507  0.5534833309795175  0.1235890095870005  1.0000
  Cl  Cl1       1.0  0.21095853065354928  0.8057416362495929  0.0680972542946918  1.0000
  Cl  Cl2       1.0  0.7109493991121879  0.6942628013440597  0.9319018236771015  1.0000
  Cl  Cl3       1.0  0.789039586468604  0.1942625148403394  0.9319038045976528  1.0000
  Cl  Cl4       1.0  0.2890532159636264  0.30574407570656353  0.06809728399682771  1.0000
  Cl  Cl5       1.0  0.19634017008252863  0.08547653995365322  0.4365666290508443  1.0000
  Cl  Cl6       1.0  0.6963273146686219  0.4145191672948486  0.563436084259017  1.0000
  Cl  Cl7       1.0  0.8036684424403971  0.9145235480764883  0.5634391614055759  1.0000
  Cl  Cl8       1.0  0.30366330590010887  0.585482341552229  0.43657270094858097  1.0000
