data_image0
_chemical_formula_structural       Cd3H16C20N2O12
_chemical_formula_sum              "Cd3 H16 C20 N2 O12"
_cell_length_a       7.735696728012399
_cell_length_b       8.96024724023368
_cell_length_c       9.507980588325983
_cell_angle_alpha    62.936712122529514
_cell_angle_beta     86.79404020433341
_cell_angle_gamma    70.04844119854614

_space_group_name_H-M_alt    "P 1"
_space_group_IT_number       1

loop_
  _space_group_symop_operation_xyz
  'x, y, z'

loop_
  _atom_site_type_symbol
  _atom_site_label
  _atom_site_symmetry_multiplicity
  _atom_site_fract_x
  _atom_site_fract_y
  _atom_site_fract_z
  _atom_site_occupancy
  Cd  Cd1       1.0  0.4999995943900044  0.9999981522736475  0.5000005888781944  1.0000
  Cd  Cd2       1.0  0.7170280826036759  0.5498355909552757  0.5148397918790337  1.0000
  Cd  Cd3       1.0  0.28297259336755337  0.4501643910513946  0.4851612722574574  1.0000
  H   H1        1.0  0.5260939652579425  0.8277953203105922  0.15867749063749412  1.0000
  H   H2        1.0  0.4739020498046926  0.1722032877641695  0.8413233043522297  1.0000
  H   H3        1.0  0.49344643585344977  0.8502163383345476  0.8866264980344527  1.0000
  H   H4        1.0  0.5065528875686809  0.1497769045460373  0.11337745250484235  1.0000
  H   H5        1.0  0.9173407413825244  0.3269365859496745  0.06784982722095383  1.0000
  H   H6        1.0  0.0826676905060282  0.6730634081217559  0.9321550956325098  1.0000
  H   H7        1.0  0.9246179182869695  0.320349298216108  0.335103152192417  1.0000
  H   H8        1.0  0.07538282366078877  0.6796573955505919  0.6648961458151349  1.0000
  H   H9        1.0  0.1659744263111732  0.9367637419990373  0.8705729307864088  1.0000
  H   H10       1.0  0.8340216474316052  0.0632416082620608  0.12942398200233646  1.0000
  H   H11       1.0  0.09322847453923801  0.9243167788193175  0.7059407612042536  1.0000
  H   H12       1.0  0.9067722014319912  0.0756832031873529  0.2940603029322305  1.0000
  H   H13       1.0  0.846062540950314  0.9685982332760259  0.8909384485667219  1.0000
  H   H14       1.0  0.153935322987671  0.031405803817648306  0.10905788388600264  1.0000
  H   H15       1.0  0.8464421723470607  0.1901885904141736  0.8194341468583775  1.0000
  H   H16       1.0  0.15355540861543904  0.8098127534596529  0.1805633277079011  1.0000
  C   C1        1.0  0.6068433944964154  0.7182733999414737  0.1339916979396421  1.0000
  C   C2        1.0  0.3931554253030781  0.281721183472591  0.8660117126618022  1.0000
  C   C3        1.0  0.5900653374677346  0.7307884025631138  0.9838682411775611  1.0000
  C   C4        1.0  0.40993168484016707  0.2692075244446882  0.01613363368786483  1.0000
  C   C5        1.0  0.7006551295877871  0.5864661703372319  0.9592269686719848  1.0000
  C   C6        1.0  0.2993434659163654  0.41353246204332084  0.04077370184203492  1.0000
  C   C7        1.0  0.8258007744190226  0.43820992833664  0.08546210531402922  1.0000
  C   C8        1.0  0.1742050587870665  0.5617901174947874  0.9145376518350263  1.0000
  C   C9        1.0  0.8308859056422121  0.43472759457077365  0.23296731680125043  1.0000
  C   C10       1.0  0.16911813736866324  0.5652737644280775  0.7670330206838262  1.0000
  C   C11       1.0  0.14028645298316889  0.16271217264464607  0.6476814536499307  1.0000
  C   C12       1.0  0.8597172997558499  0.8372865235606568  0.35231790987666056  1.0000
  C   C13       1.0  0.07276546724603608  0.015085557593096195  0.7586352959532834  1.0000
  C   C14       1.0  0.9272308271438874  0.9849157589146742  0.24136329888686708  1.0000
  C   C15       1.0  0.8714681731439669  0.0807422683696757  0.7891707081316429  1.0000
  C   C16       1.0  0.1285286248686005  0.919257707604615  0.21082842664635842  1.0000
  C   C17       1.0  0.7318938403322194  0.1388699798172865  0.6505183080635819  1.0000
  C   C18       1.0  0.26810173343610444  0.8611366957641378  0.3494791228233326  1.0000
  C   C19       1.0  0.683745713076533  0.5907659869960112  0.8007238495114425  1.0000
  C   C20       1.0  0.3162567567380989  0.4092326666300821  0.19927769232504747  1.0000
  N   N1        1.0  0.7223128757488552  0.5718606514810672  0.25748426257451495  1.0000
  N   N2        1.0  0.2776852197808494  0.4281393062198049  0.7425169260376737  1.0000
  O   O1        1.0  0.6201250171129188  0.30198827378379883  0.580917446876093  1.0000
  O   O2        1.0  0.3798738504221502  0.6980130974560836  0.41907890741631365  1.0000
  O   O3        1.0  0.028164475689983676  0.31769535362175827  0.5572585951476726  1.0000
  O   O4        1.0  0.9718305357755525  0.6823059203067955  0.4427421780023696  1.0000
  O   O5        1.0  0.316604783957608  0.1258361605816205  0.6488420861800749  1.0000
  O   O6        1.0  0.6833930799803768  0.8741678765120608  0.35115424627264263  1.0000
  O   O7        1.0  0.7346991349837707  0.0158703515747192  0.6171930939327269  1.0000
  O   O8        1.0  0.2652981557068658  0.9841283295055658  0.3828034066750592  1.0000
  O   O9        1.0  0.8026977320409969  0.4673403439062013  0.77773634325785  1.0000
  O   O10       1.0  0.19731040592751015  0.5326570025848555  0.22226654760110165  1.0000
  O   O11       1.0  0.5490308653625816  0.7150597401931692  0.6976811179004588  1.0000
  O   O12       1.0  0.45097361529440855  0.28493356651216584  0.3023215256514079  1.0000
