data_image0
_chemical_formula_structural       Cu4H32C48I4N8O4
_chemical_formula_sum              "Cu4 H32 C48 I4 N8 O4"
_cell_length_a       3.967194640097457
_cell_length_b       14.650595931874758
_cell_length_c       20.564352895735137
_cell_angle_alpha    104.20653794956216
_cell_angle_beta     90.00038523573525
_cell_angle_gamma    90.00057711217292

_space_group_name_H-M_alt    "P 1"
_space_group_IT_number       1

loop_
  _space_group_symop_operation_xyz
  'x, y, z'

loop_
  _atom_site_type_symbol
  _atom_site_label
  _atom_site_symmetry_multiplicity
  _atom_site_fract_x
  _atom_site_fract_y
  _atom_site_fract_z
  _atom_site_occupancy
  Cu  Cu1       1.0  0.25713127392153007  0.4385383622136275  0.9985202408337415  1.0000
  Cu  Cu2       1.0  0.2571485977363678  0.06146106748422401  0.5014774428832139  1.0000
  Cu  Cu3       1.0  0.7428400538964864  0.561470218424276  0.0014833972037351104  1.0000
  Cu  Cu4       1.0  0.7428605397806862  0.9385341262797057  0.49851754211412913  1.0000
  H   H1        1.0  0.3386520035303136  0.0993585133939021  0.017104046471203598  1.0000
  H   H2        1.0  0.33867560187344026  0.40064326252767307  0.4828967224908212  1.0000
  H   H3        1.0  0.6613520931571626  0.9006514831625554  0.9829051872474466  1.0000
  H   H4        1.0  0.6613385771732749  0.5993589750216871  0.5171014343622035  1.0000
  H   H5        1.0  0.5665267522402927  0.8614960591951474  0.2800641032363842  1.0000
  H   H6        1.0  0.5664888515051629  0.6384907809780673  0.21993112290862632  1.0000
  H   H7        1.0  0.43348994718336087  0.13849350248674602  0.7199303871673592  1.0000
  H   H8        1.0  0.4334497071773101  0.36150160184365626  0.7800672627203086  1.0000
  H   H9        1.0  0.5305593759486484  0.0340955095970301  0.2919368288126236  1.0000
  H   H10       1.0  0.5305431981498643  0.46589002653492884  0.208063310727951  1.0000
  H   H11       1.0  0.4694270754452035  0.965892650106291  0.7080617939115469  1.0000
  H   H12       1.0  0.4694356912655877  0.534102353568578  0.7919331293398243  1.0000
  H   H13       1.0  0.45004927975602277  0.2371577521421457  0.9687237796288599  1.0000
  H   H14       1.0  0.45008511602817697  0.2628395226022349  0.5312752427626748  1.0000
  H   H15       1.0  0.5499170065841951  0.7628466004094181  0.031276690653378125  1.0000
  H   H16       1.0  0.5499366249753949  0.7371606012695794  0.4687215734223784  1.0000
  H   H17       1.0  0.13096065399094667  0.8211991610074064  0.09525840254414672  1.0000
  H   H18       1.0  0.13092300083159367  0.6788066080433739  0.4047385716473997  1.0000
  H   H19       1.0  0.869081252625044  0.1788136331963699  0.9047381889122689  1.0000
  H   H20       1.0  0.8690508473102979  0.3211942121809488  0.5952530167172867  1.0000
  H   H21       1.0  0.8618477348741324  0.7571605120255712  0.18337635905365346  1.0000
  H   H22       1.0  0.8617942971586673  0.7428343749217207  0.31661822766242415  1.0000
  H   H23       1.0  0.13822441956071432  0.24284031254744323  0.8166181478050447  1.0000
  H   H24       1.0  0.1381493028797749  0.2571608201237865  0.6833777300719959  1.0000
  H   H25       1.0  0.889244048731335  0.2936363533905181  0.1883872463693095  1.0000
  H   H26       1.0  0.8892445523656247  0.20636589182728224  0.3116114147867037  1.0000
  H   H27       1.0  0.11079029610615979  0.7063771637124672  0.8116226005038527  1.0000
  H   H28       1.0  0.11075450252839401  0.7936321190120809  0.6883845471013359  1.0000
  H   H29       1.0  0.012459623932016902  0.4228983868528858  0.1308831139897961  1.0000
  H   H30       1.0  0.0124548192387053  0.07710086532387092  0.3691162977582465  1.0000
  H   H31       1.0  0.9875167452702271  0.5771116026883478  0.869121255702673  1.0000
  H   H32       1.0  0.9875417151260137  0.9228999688748942  0.6308850186273744  1.0000
  C   C1        1.0  0.2625370061685501  0.16982488260974557  0.04430947120701491  1.0000
  C   C2        1.0  0.26255960101653386  0.33017452157786664  0.4556912703135652  1.0000
  C   C3        1.0  0.7374670905708027  0.8301879296458029  0.9556997666120779  1.0000
  C   C4        1.0  0.7374671812809551  0.6698227866034755  0.5443055417758771  1.0000
  C   C5        1.0  0.8139064735747609  0.02500180535812291  0.19990641815704177  1.0000
  C   C6        1.0  0.8138836983251565  0.47499033123020246  0.30009475935057855  1.0000
  C   C7        1.0  0.18610266408588672  0.974996211769515  0.8000939213402987  1.0000
  C   C8        1.0  0.18608510845545112  0.5250027564389657  0.6999042353324256  1.0000
  C   C9        1.0  0.6841639475459685  0.8918221190287667  0.2423246657899867  1.0000
  C   C10       1.0  0.6841186610221541  0.608165835631418  0.2576767453644848  1.0000
  C   C11       1.0  0.3158653554075244  0.10817167353952331  0.757674937976077  1.0000
  C   C12       1.0  0.3158299803333832  0.39182373429558487  0.7423235817735119  1.0000
  C   C13       1.0  0.6624275732634571  0.9887178267247663  0.24969412698880689  1.0000
  C   C14       1.0  0.6624137587445489  0.5112749837888799  0.2503090736877951  1.0000
  C   C15       1.0  0.3375740023984264  0.011278786372720603  0.7503088856508313  1.0000
  C   C16       1.0  0.337542444840409  0.48872444353659733  0.7496929702088693  1.0000
  C   C17       1.0  0.3248363740118306  0.24606738871687384  0.017117772487388497  1.0000
  C   C18       1.0  0.32484701163765106  0.25393081668401163  0.4828804112427463  1.0000
  C   C19       1.0  0.675165201819098  0.7539390782822439  0.9828845249038736  1.0000
  C   C20       1.0  0.6751671673388984  0.7460693064780985  0.5171159185350973  1.0000
  C   C21       1.0  0.098142595368536  0.1855387762865135  0.1065690099179903  1.0000
  C   C22       1.0  0.09815743933086908  0.3144621755600171  0.39342983861273956  1.0000
  C   C23       1.0  0.9019043528200043  0.8144733340336361  0.8934415645169693  1.0000
  C   C24       1.0  0.9018668222670883  0.6855358332320663  0.6065646640995936  1.0000
  C   C25       1.0  0.00025273063371150005  0.8676431158882638  0.13704167518881863  1.0000
  C   C26       1.0  0.0002169794617259  0.6323544690317464  0.36295904987041894  1.0000
  C   C27       1.0  0.9997664897805691  0.13236052917086744  0.8629562405192885  1.0000
  C   C28       1.0  0.999739224036382  0.36764284251290763  0.6370401941511403  1.0000
  C   C29       1.0  0.9767078685275264  0.964071381299647  0.14516095106181845  1.0000
  C   C30       1.0  0.9766859360407809  0.5359246114069124  0.35484030177542547  1.0000
  C   C31       1.0  0.023286145144368196  0.035930856912038706  0.8548376921718343  1.0000
  C   C32       1.0  0.023272788083438894  0.4640712905505424  0.6451577241984339  1.0000
  C   C33       1.0  0.8491928933833676  0.8326521234183133  0.18736482905266877  1.0000
  C   C34       1.0  0.8491390622169277  0.6673448381500365  0.3126339924699195  1.0000
  C   C35       1.0  0.1508414509663822  0.16734870178687083  0.8126301641697397  1.0000
  C   C36       1.0  0.1508045378801057  0.33265387599674767  0.6873616055900911  1.0000
  C   C37       1.0  0.008756146036923  0.1098516489381822  0.13722100401007248  1.0000
  C   C38       1.0  0.008765163567929299  0.3901497022052354  0.3627782821244381  1.0000
  C   C39       1.0  0.9912555125974549  0.8901569359493422  0.8627855524658301  1.0000
  C   C40       1.0  0.9912364120575672  0.6098518277397033  0.637217320091608  1.0000
  C   C41       1.0  0.0109043769350592  0.278486517406094  0.139313928833829  1.0000
  C   C42       1.0  0.0109121592854606  0.22151413837164577  0.3606862115939578  1.0000
  C   C43       1.0  0.9891249265633562  0.7215277030904589  0.8606955542596423  1.0000
  C   C44       1.0  0.9890994990230623  0.7784838766699522  0.6393126687059194  1.0000
  C   C45       1.0  0.0807000667053259  0.34993921931032196  0.10796579259475439  1.0000
  C   C46       1.0  0.08069873102024872  0.15005955920615585  0.3920316817958422  1.0000
  C   C47       1.0  0.9193090711660545  0.6500686552028726  0.8920362636539991  1.0000
  C   C48       1.0  0.9193078859542893  0.8499405653365955  0.6079656207746709  1.0000
  I   I1        1.0  0.24615120710783603  0.598875147303652  0.08894729729895803  1.0000
  I   I2        1.0  0.2461547190065261  0.9011246806946432  0.4110502534060529  1.0000
  I   I3        1.0  0.753825161955696  0.4011299107576747  0.9110542684179777  1.0000
  I   I4        1.0  0.753846856622438  0.09887895806328831  0.5889432846854987  1.0000
  N   N1        1.0  0.2328415295719708  0.3349746133700506  0.04741374243418759  1.0000
  N   N2        1.0  0.2328579414753875  0.16502538993420052  0.4525846327589846  1.0000
  N   N3        1.0  0.7671499637362019  0.6650381932896893  0.9525916041731506  1.0000
  N   N4        1.0  0.767163799514755  0.8349733271332486  0.5474129109757868  1.0000
  N   N5        1.0  0.8396516712841373  0.11665944484179393  0.1928470543756902  1.0000
  N   N6        1.0  0.8396534927061123  0.38333700715680413  0.3071568538773235  1.0000
  N   N7        1.0  0.16036754928857283  0.8833442134562265  0.8071601029316327  1.0000
  N   N8        1.0  0.16035060356358602  0.6166588976653244  0.6928431177398764  1.0000
  O   O1        1.0  0.1020994629948078  0.0184813894521767  0.10446148582447279  1.0000
  O   O2        1.0  0.10210792267154288  0.4815223950895204  0.3955398063884346  1.0000
  O   O3        1.0  0.8979021128729343  0.9815271891470658  0.895540693042136  1.0000
  O   O4        1.0  0.8978886117251149  0.518482658825562  0.6044588409480767  1.0000
