data_image0
_chemical_formula_structural       Gd4H20C16S4N8O28
_chemical_formula_sum              "Gd4 H20 C16 S4 N8 O28"
_cell_length_a       6.501336130001052
_cell_length_b       11.203513186221915
_cell_length_c       12.209961420752238
_cell_angle_alpha    108.38198498998888
_cell_angle_beta     90.00003209490548
_cell_angle_gamma    89.99993579217767

_space_group_name_H-M_alt    "P 1"
_space_group_IT_number       1

loop_
  _space_group_symop_operation_xyz
  'x, y, z'

loop_
  _atom_site_type_symbol
  _atom_site_label
  _atom_site_symmetry_multiplicity
  _atom_site_fract_x
  _atom_site_fract_y
  _atom_site_fract_z
  _atom_site_occupancy
  Gd  Gd1       1.0  0.8637387674520485  0.8396423128258161  0.39286775939903146  1.0000
  Gd  Gd2       1.0  0.3637374394271404  0.1603575483077648  0.10713170863339631  1.0000
  Gd  Gd3       1.0  0.13626138590170464  0.16035714361620987  0.6071325019546805  1.0000
  Gd  Gd4       1.0  0.6362611757800565  0.8396428451996908  0.8928680018226628  1.0000
  H   H1        1.0  0.7206917274705021  0.4367895949311205  0.5596512375868983  1.0000
  H   H2        1.0  0.22068689364994756  0.5632112868012769  0.940350365627694  1.0000
  H   H3        1.0  0.2793115021748349  0.5632098685060855  0.4403506637868588  1.0000
  H   H4        1.0  0.779310183411461  0.4367891032085893  0.05964852481834269  1.0000
  H   H5        1.0  0.7785488473701748  0.4830121228690772  0.23164769786332326  1.0000
  H   H6        1.0  0.2785500743097131  0.5169877933678959  0.26835257977115384  1.0000
  H   H7        1.0  0.22145438227704523  0.5169845153810185  0.7683525761633874  1.0000
  H   H8        1.0  0.7214500790401034  0.4830154183300905  0.7316471180121837  1.0000
  H   H9        1.0  0.7241479320998039  0.32935580877707343  0.3470473976288702  1.0000
  H   H10       1.0  0.2241487394182471  0.6706450844759363  0.15295396248147602  1.0000
  H   H11       1.0  0.27585222125558323  0.6706427140980439  0.6529542346323254  1.0000
  H   H12       1.0  0.7758498757865553  0.3293571831614416  0.8470446461794623  1.0000
  H   H13       1.0  0.0446761881027058  0.913592055764795  0.1963604355616297  1.0000
  H   H14       1.0  0.5446742678486133  0.0864070650829163  0.3036403643969479  1.0000
  H   H15       1.0  0.9553224271049247  0.08640834124071971  0.8036400949043596  1.0000
  H   H16       1.0  0.45532280921485585  0.9135923948580923  0.6963607169665026  1.0000
  H   H17       1.0  0.07126240642435991  0.0337156640968317  0.3120657812603511  1.0000
  H   H18       1.0  0.5712617346094931  0.9662843777101316  0.18793447104890507  1.0000
  H   H19       1.0  0.9287362087824959  0.9662856734716955  0.687935018318008  1.0000
  H   H20       1.0  0.4287353424535496  0.03371507873282549  0.8120657903046222  1.0000
  C   C1        1.0  0.7389278975397459  0.48705809209423023  0.4978653188348972  1.0000
  C   C2        1.0  0.23892423706509905  0.5129418516437525  0.002135773968539883  1.0000
  C   C3        1.0  0.26107379396133723  0.512939486719354  0.5021352243040907  1.0000
  C   C4        1.0  0.7610728399959684  0.48705948242718483  0.9978642055997966  1.0000
  C   C5        1.0  0.7721732588681931  0.5087696770358008  0.3245162206198842  1.0000
  C   C6        1.0  0.27217136148778565  0.491232124190347  0.1754845944602152  1.0000
  C   C7        1.0  0.2278315089213052  0.4912307234658968  0.6754851298564118  1.0000
  C   C8        1.0  0.7278287918640062  0.5087692098796596  0.8245153851083132  1.0000
  C   C9        1.0  0.7674865264372316  0.6121982138423759  0.5079287573131666  1.0000
  C   C10       1.0  0.26748208723716266  0.3878026360446185  0.9920720316086432  1.0000
  C   C11       1.0  0.23251824135260796  0.38780124259825033  0.4920715040408226  1.0000
  C   C12       1.0  0.7325165279696934  0.6121987015239085  0.007928767969708905  1.0000
  C   C13       1.0  0.7792502041256598  0.7265946882164585  0.6081632400170704  1.0000
  C   C14       1.0  0.2792489572609399  0.2734061545434017  0.89183755034216  1.0000
  C   C15       1.0  0.2207499492281002  0.27340476822556786  0.3918370213366416  1.0000
  C   C16       1.0  0.7207511960912785  0.7265951830246635  0.10816324923629139  1.0000
  S   S1        1.0  0.322359322943683  0.8357811232950851  0.4608307760588701  1.0000
  S   S2        1.0  0.8223585110043459  0.1642187664031241  0.03916950692800469  1.0000
  S   S3        1.0  0.6776392922651483  0.1642183366454617  0.5391703053046797  1.0000
  S   S4        1.0  0.17764010420405194  0.835780690039371  0.9608307544256078  1.0000
  N   N1        1.0  0.7436715377925793  0.4240750590522495  0.3820427477306723  1.0000
  N   N2        1.0  0.24366941553528684  0.5759258223746997  0.11795861476478821  1.0000
  N   N3        1.0  0.2563332299988872  0.575923463821475  0.6179588845308076  1.0000
  N   N4        1.0  0.7563307378160717  0.42407550819725504  0.8820405447938099  1.0000
  N   N5        1.0  0.7883021788002011  0.6237522360202945  0.3987395876088513  1.0000
  N   N6        1.0  0.2882988878941504  0.37624861487272204  0.10126096032932712  1.0000
  N   N7        1.0  0.2117041271361941  0.37624628335490234  0.6012612246427906  1.0000
  N   N8        1.0  0.7117028036017957  0.6237536562617835  0.8987384683417332  1.0000
  O   O1        1.0  0.7258919985312958  0.7213739978990504  0.7065116164520262  1.0000
  O   O2        1.0  0.22588909965573123  0.27862687368643446  0.7934883473781654  1.0000
  O   O3        1.0  0.2741096929666256  0.2786263956074677  0.2934880940042177  1.0000
  O   O4        1.0  0.7741095155514656  0.7213735198210146  0.20651136307789386  1.0000
  O   O5        1.0  0.844141373642124  0.8256107362174062  0.5874267277718913  1.0000
  O   O6        1.0  0.34414034061261134  0.17438912666977302  0.9125738014030275  1.0000
  O   O7        1.0  0.15585877971162893  0.17438872022461993  0.41257353358182064  1.0000
  O   O8        1.0  0.655858274595012  0.8256112703357417  0.08742672906296176  1.0000
  O   O9        1.0  0.508456396952738  0.8631629298575948  0.4035261743453377  1.0000
  O   O10       1.0  0.008455103283800702  0.13683714999601904  0.09647407029058291  1.0000
  O   O11       1.0  0.491542218256086  0.1368365300829524  0.5964749070182052  1.0000
  O   O12       1.0  0.9915435119238227  0.8631632470094955  0.9035264601753993  1.0000
  O   O13       1.0  0.37303053310988327  0.8016372254041289  0.5641347980049576  1.0000
  O   O14       1.0  0.8730300734346698  0.19836356054549495  0.9358660038118884  1.0000
  O   O15       1.0  0.6269680820989479  0.1983622345364182  0.4358662833585925  1.0000
  O   O16       1.0  0.12696854177296052  0.8016368364600124  0.06413452665410083  1.0000
  O   O17       1.0  0.19636988891916468  0.7359948455082518  0.37676108204362896  1.0000
  O   O18       1.0  0.6963689722076724  0.264006064572591  0.12324027467284539  1.0000
  O   O19       1.0  0.8036302644338279  0.26400555149679406  0.6232394484224528  1.0000
  O   O20       1.0  0.30362964299995804  0.7359943324329166  0.8767602557931369  1.0000
  O   O21       1.0  0.18106981168043756  0.948808702737729  0.4923076069624485  1.0000
  O   O22       1.0  0.6810691856614924  0.05119127255039759  0.0076926587624654985  1.0000
  O   O23       1.0  0.8189288035271858  0.051191694267785706  0.5076929235035337  1.0000
  O   O24       1.0  0.31892942954613807  0.94880912445511  0.9923078717035239  1.0000
  O   O25       1.0  0.9940010487538942  0.9543027216015574  0.275747247960993  1.0000
  O   O26       1.0  0.49400006656490797  0.04569706412004141  0.22425305599610823  1.0000
  O   O27       1.0  0.005997566453736201  0.0456976754039502  0.7242532825049963  1.0000
  O   O28       1.0  0.5059970104981347  0.9543023923229158  0.775747205357412  1.0000
