data_image0
_chemical_formula_structural       Al6H40C95Cl8O33
_chemical_formula_sum              "Al6 H40 C95 Cl8 O33"
_cell_length_a       12.371411474027388
_cell_length_b       12.225734144500144
_cell_length_c       27.89734165107418
_cell_angle_alpha    94.31968081643991
_cell_angle_beta     90.25510736226265
_cell_angle_gamma    121.32353637199722

_space_group_name_H-M_alt    "P 1"
_space_group_IT_number       1

loop_
  _space_group_symop_operation_xyz
  'x, y, z'

loop_
  _atom_site_type_symbol
  _atom_site_label
  _atom_site_symmetry_multiplicity
  _atom_site_fract_x
  _atom_site_fract_y
  _atom_site_fract_z
  _atom_site_occupancy
  Al  Al1       1.0  0.4108987214283957  0.8123799022840075  0.4950382565460956  1.0000
  Al  Al2       1.0  0.6628568397088515  0.08842035292189367  0.5026821643279789  1.0000
  Al  Al3       1.0  0.41429957652603383  0.07773823763069738  0.5052511284983012  1.0000
  Al  Al4       1.0  0.9058119061567069  0.8365983435421424  0.010211361276709888  1.0000
  Al  Al5       1.0  0.9086456571646337  0.5763291387102  0.005553863320187698  1.0000
  Al  Al6       1.0  0.6554927783067653  0.5575142050603076  0.006030791153655495  1.0000
  H   H1        1.0  0.8746005911031317  0.4728265038636577  0.3203476174366386  1.0000
  H   H2        1.0  0.9824847166456575  0.47408595329942216  0.7098626354342628  1.0000
  H   H3        1.0  0.4905199460102593  0.296575891174207  0.8794946441246908  1.0000
  H   H4        1.0  0.3564063825111319  0.20867463184129054  0.8028527600729661  1.0000
  H   H5        1.0  0.3401947735358775  0.17396661937011254  0.7139407349064015  1.0000
  H   H6        1.0  0.4426431473919977  0.18808036030895883  0.6364709932705424  1.0000
  H   H7        1.0  0.27344094347208875  0.7393156650405783  0.7074392803648378  1.0000
  H   H8        1.0  0.7164095928295638  0.033039312359022695  0.7330266417180908  1.0000
  H   H9        1.0  0.69747896685881  0.9781234679340752  0.8178784112385246  1.0000
  H   H10       1.0  0.5885996180382165  0.5892319230345606  0.7688785399867583  1.0000
  H   H11       1.0  0.6064653706423541  0.6438641578919684  0.6839859648965358  1.0000
  H   H12       1.0  0.2517982889757421  0.04874317373776899  0.3795783063980381  1.0000
  H   H13       1.0  0.4666381910428541  0.2653099015425937  0.2974107919904796  1.0000
  H   H14       1.0  0.08229366427485721  0.6102506292481847  0.1296921003660358  1.0000
  H   H15       1.0  0.14132284467427775  0.5408515453299855  0.2018394720611738  1.0000
  H   H16       1.0  0.09113786471001338  0.9666361130702439  0.1404221890835871  1.0000
  H   H17       1.0  0.7456796149549446  0.1084109791238674  0.07727198844969511  1.0000
  H   H18       1.0  0.6505507159851475  0.9367075325607028  0.06471762750307869  1.0000
  H   H19       1.0  0.8148706844829263  0.022166396104786698  0.0495735633944392  1.0000
  H   H20       1.0  0.722797007544557  0.1635273794351946  0.3749168502245368  1.0000
  H   H21       1.0  0.8605697804732275  0.24878385146652696  0.3410927120335003  1.0000
  H   H22       1.0  0.8741608591313934  0.2625920687470681  0.40568751092481387  1.0000
  H   H23       1.0  0.9029362082194369  0.1507842297221273  0.2933541576199516  1.0000
  H   H24       1.0  0.04284233956317955  0.27363040035211833  0.24749797267323  1.0000
  H   H25       1.0  0.9138235341181868  0.3007668441288515  0.2472068769945395  1.0000
  H   H26       1.0  0.014834444197404621  0.33970905287140596  0.1971362658137323  1.0000
  H   H27       1.0  0.40160969458246126  0.719426597106583  0.7614956098029282  1.0000
  H   H28       1.0  0.2540574269582265  0.5703472407109514  0.7471229830530604  1.0000
  H   H29       1.0  0.34207638912678806  0.5974577310228069  0.8027316999098204  1.0000
  H   H30       1.0  0.9245354478753852  0.801389395487774  0.8380797721998334  1.0000
  H   H31       1.0  0.8907158450579257  0.8657711182112703  0.7879393567939204  1.0000
  H   H32       1.0  0.9283235963065125  0.9496546911381003  0.8472003428363877  1.0000
  H   H33       1.0  0.5312976668318967  0.5787118436457349  0.1330528782334852  1.0000
  H   H34       1.0  0.44508868271825713  0.49303264745655184  0.2105480598966523  1.0000
  H   H35       1.0  0.4481120410597014  0.5234683588135168  0.29888129683240544  1.0000
  H   H36       1.0  0.8966519198356905  0.49171698518546236  0.23230690169283721  1.0000
  H   H37       1.0  0.8947372040273223  0.46857311144935915  0.8768427862286288  1.0000
  H   H38       1.0  0.9985800748152232  0.502277591048113  0.7986846865499828  1.0000
  H   H39       1.0  0.32843403604181987  0.6038654424259916  0.5175806417352931  1.0000
  H   H40       1.0  0.02378564423035099  0.046390391341304786  0.9865877702159124  1.0000
  C   C1        1.0  0.6320475193805278  0.9099394611396503  0.4285256776633021  1.0000
  C   C2        1.0  0.16147481906620692  0.7270444306047351  0.3042772352593417  1.0000
  C   C3        1.0  0.12366401450529446  0.70814196018528  0.20155732148042196  1.0000
  C   C4        1.0  0.6049770207749178  0.2456333748454256  0.44723366831217254  1.0000
  C   C5        1.0  0.13914809821108062  0.616381706099716  0.224311982232706  1.0000
  C   C6        1.0  0.1572605422370613  0.6245571650112679  0.2731720144482779  1.0000
  C   C7        1.0  0.09687750440662769  0.6946468432246817  0.1518139597364367  1.0000
  C   C8        1.0  0.0852060738114273  0.7880163081959918  0.1305742109602903  1.0000
  C   C9        1.0  0.22024084101781916  0.9581097321516763  0.35821600884239047  1.0000
  C   C10       1.0  0.18734486865035613  0.9435406463336585  0.309084084634371  1.0000
  C   C11       1.0  0.16350818952212615  0.8294450419283308  0.2810824037354038  1.0000
  C   C12       1.0  0.5741365223876687  0.322715388842184  0.23399711008165983  1.0000
  C   C13       1.0  0.18046579802028617  0.04089106253191939  0.28561710532735424  1.0000
  C   C14       1.0  0.1508895254334348  0.02554454751893329  0.2370373650884829  1.0000
  C   C15       1.0  0.13142428087179056  0.9141057698753839  0.20778001375647656  1.0000
  C   C16       1.0  0.269413759038457  0.8870470766207034  0.4315746154063477  1.0000
  C   C17       1.0  0.1400819457880542  0.8176971773035572  0.23041577401954066  1.0000
  C   C18       1.0  0.10257231563637242  0.8967522725283884  0.15816590745047418  1.0000
  C   C19       1.0  0.21289909061314186  0.8575297267098275  0.381361125739005  1.0000
  C   C20       1.0  0.7510688356207424  0.9758451657112843  0.3518886958187508  1.0000
  C   C21       1.0  0.7509653819744525  0.9571203039455862  0.30120465483551573  1.0000
  C   C22       1.0  0.7375957629125195  0.9257380561598794  0.19803993208623177  1.0000
  C   C23       1.0  0.5607441656480604  0.31419805507432835  0.2832178712998967  1.0000
  C   C24       1.0  0.8216790473714398  0.04900850029708439  0.22458306933550892  1.0000
  C   C25       1.0  0.8325653093546279  0.06057539369730588  0.2740328202519536  1.0000
  C   C26       1.0  0.7276423187511227  0.9058372302202428  0.1465808153811707  1.0000
  C   C27       1.0  0.6591254833522557  0.7779878685796647  0.12389300588801433  1.0000
  C   C28       1.0  0.6327497158186546  0.9088403508575593  0.565296936646078  1.0000
  C   C29       1.0  0.5843318419603492  0.7520813429957085  0.35440961393849335  1.0000
  C   C30       1.0  0.585248800729488  0.7291186860534751  0.3039761605368696  1.0000
  C   C31       1.0  0.6651233052155943  0.834901601773943  0.2768528817546567  1.0000
  C   C32       1.0  0.5073684168847662  0.6046607060360428  0.2783911808598987  1.0000
  C   C33       1.0  0.5057034017366816  0.5881500170834426  0.22944442415484897  1.0000
  C   C34       1.0  0.669182866101238  0.3669537472865584  0.31462034282855456  1.0000
  C   C35       1.0  0.5817238224379152  0.6931370190202201  0.20134368443984127  1.0000
  C   C36       1.0  0.6627952880965398  0.8186735799765259  0.225405130849218  1.0000
  C   C37       1.0  0.5839535396749723  0.6753890401427964  0.15140838946816612  1.0000
  C   C38       1.0  0.6601457628234259  0.8775158899502812  0.3788864999892851  1.0000
  C   C39       1.0  0.7639818320929879  0.34859675528169015  0.6531841365697701  1.0000
  C   C40       1.0  0.6187713992714663  0.2307274512053822  0.5770133086508552  1.0000
  C   C41       1.0  0.7768380612527538  0.37180642481179393  0.704002398101025  1.0000
  C   C42       1.0  0.7954172473155767  0.4068311320240524  0.8068292554528327  1.0000
  C   C43       1.0  0.9061347497850678  0.4530980261050672  0.779341870707377  1.0000
  C   C44       1.0  0.8973334621370768  0.4374586456720236  0.7301968961404413  1.0000
  C   C45       1.0  0.6955863908565334  0.3863112120892893  0.21468413681752452  1.0000
  C   C46       1.0  0.8028667817164036  0.42172104041271297  0.8572684179052105  1.0000
  C   C47       1.0  0.6932733804099556  0.3817941330417368  0.8829985155262606  1.0000
  C   C48       1.0  0.5350308185335068  0.24040735296475182  0.6558070030971308  1.0000
  C   C49       1.0  0.542868328862518  0.2627390237837872  0.7060237719519975  1.0000
  C   C50       1.0  0.6647222461244979  0.3265042364416074  0.7306000234806975  1.0000
  C   C51       1.0  0.4323508735397326  0.2215966147566703  0.733371672991808  1.0000
  C   C52       1.0  0.2776653891633031  0.8995018673237141  0.5684767225235774  1.0000
  C   C53       1.0  0.4413658638853518  0.24088853619957712  0.7824630643570671  1.0000
  C   C54       1.0  0.5621637759408742  0.3026173473695337  0.8083969952772846  1.0000
  C   C55       1.0  0.6741198112692146  0.34515450158415467  0.7818275254161406  1.0000
  C   C56       1.0  0.7074121723640872  0.39460224838020247  0.1645915940329843  1.0000
  C   C57       1.0  0.5741700715891795  0.3241572404276951  0.858819829757863  1.0000
  C   C58       1.0  0.6430484456822257  0.27943534381176244  0.6291236113946042  1.0000
  C   C59       1.0  0.22994885065872236  0.8799038583575651  0.6159115316228991  1.0000
  C   C60       1.0  0.23112412168091367  0.7822503389178407  0.729898660451042  1.0000
  C   C61       1.0  0.21640542739240937  0.7653526398396338  0.778700454074297  1.0000
  C   C62       1.0  0.12413335576120223  0.9010771061078698  0.7851063684646391  1.0000
  C   C63       1.0  0.1357753378384458  0.9144964961027426  0.7356798446902673  1.0000
  C   C64       1.0  0.6361341897768398  0.3143500955162323  0.4050439090791329  1.0000
  C   C65       1.0  0.1904057732585186  0.8559139423695753  0.7079466056073614  1.0000
  C   C66       1.0  0.16173418202140502  0.8242243216179546  0.8068917467499759  1.0000
  C   C67       1.0  0.6530738820767611  0.3446641759826861  0.363846665528726  1.0000
  C   C68       1.0  0.13914065732508596  0.8039045656406923  0.8557134562101965  1.0000
  C   C69       1.0  0.2083884855708572  0.8707016407387012  0.658435324497276  1.0000
  C   C70       1.0  0.11064086058947703  0.7862581458592643  0.8974101880075906  1.0000
  C   C71       1.0  0.665325530619128  0.8904930680571749  0.612433066880449  1.0000
  C   C72       1.0  0.6881124577318543  0.9360569045704634  0.7410618384546696  1.0000
  C   C73       1.0  0.6770819385585938  0.905368332653282  0.7883625166966013  1.0000
  C   C74       1.0  0.6158150512988881  0.6859292880978598  0.7608200305738109  1.0000
  C   C75       1.0  0.6263419853501943  0.716455491571878  0.7134949873592831  1.0000
  C   C76       1.0  0.7909235604144059  0.43215246675688934  0.2959825447937661  1.0000
  C   C77       1.0  0.6628660794639103  0.8419869073081258  0.7028609999164743  1.0000
  C   C78       1.0  0.7126040347064447  0.4011837407776396  0.1211680456038451  1.0000
  C   C79       1.0  0.6414555421691829  0.7801134487813072  0.7990053729816183  1.0000
  C   C80       1.0  0.6389905431616613  0.752673032480935  0.8474898375009232  1.0000
  C   C81       1.0  0.6685312450658429  0.8707320534177041  0.6544459086476948  1.0000
  C   C82       1.0  0.6466943464489247  0.7355583567819933  0.8895554788972504  1.0000
  C   C83       1.0  0.04277456770773824  0.7675947013495731  0.07895615346495082  1.0000
  C   C84       1.0  0.7262544061413081  0.4348389067369778  0.0725145147417479  1.0000
  C   C85       1.0  0.6850026847438713  0.7455478432313709  0.07483483423840909  1.0000
  C   C86       1.0  0.05060471652434711  0.7577943720852216  0.9424362133459567  1.0000
  C   C87       1.0  0.7094956692520071  0.4162879578174596  0.9358569890495686  1.0000
  C   C88       1.0  0.8030554427310577  0.44180172064271517  0.2468704278770204  1.0000
  C   C89       1.0  0.16881238035615792  0.7369948652366601  0.35526303659427333  1.0000
  C   C90       1.0  0.6823970130349508  0.7226479956645021  0.9371400894761451  1.0000
  C   C91       1.0  0.7462126387426197  0.018599547806083198  0.0751991095437319  1.0000
  C   C92       1.0  0.8238011409671059  0.19748972056843428  0.37354897880985766  1.0000
  C   C93       1.0  0.9697697224473387  0.27262200283966814  0.2246684321059007  1.0000
  C   C94       1.0  0.315742479331284  0.642553278849192  0.7763672137505538  1.0000
  C   C95       1.0  0.9472218984993716  0.889625134467984  0.8218035127139415  1.0000
  Cl  Cl1       1.0  0.13585846605518978  0.13774838005213033  0.2095283470402123  1.0000
  Cl  Cl2       1.0  0.20775074121212359  0.17690985615888613  0.3199325396978026  1.0000
  Cl  Cl3       1.0  0.4905255972022573  0.6202526580463824  0.38571807872897074  1.0000
  Cl  Cl4       1.0  0.8996724990202835  0.4113976344054108  0.6213011065863653  1.0000
  Cl  Cl5       1.0  0.4413610128671408  0.25356174655758673  0.1959154088852628  1.0000
  Cl  Cl6       1.0  0.08289374180604629  0.002043245660168202  0.7092505190734498  1.0000
  Cl  Cl7       1.0  0.11221935984649171  0.6029196938703406  0.3860898407819421  1.0000
  Cl  Cl8       1.0  0.1949770985684792  0.5194076346256293  0.2950991749136378  1.0000
  O   O1        1.0  0.3031455920062738  0.8136387021273987  0.44591746438037205  1.0000
  O   O2        1.0  0.6384342073865097  0.445904273223263  0.05356748766937609  1.0000
  O   O3        1.0  0.604727674169318  0.6332751920352492  0.0532572179878414  1.0000
  O   O4        1.0  0.5288252864000356  0.8294994983043935  0.4455437385779391  1.0000
  O   O5        1.0  0.7908319744513862  0.810878665850815  0.9538615063812159  1.0000
  O   O6        1.0  0.021588532791355305  0.8359500305158178  0.9612956883511502  1.0000
  O   O7        1.0  0.02596930001742226  0.6513887074689746  0.9586740093912951  1.0000
  O   O8        1.0  0.8142009202331764  0.44354894462291106  0.9566083982068747  1.0000
  O   O9        1.0  0.6225712895742886  0.4255422625032138  0.9570963547475771  1.0000
  O   O10       1.0  0.603831358293931  0.6215163701736373  0.9575329100368322  1.0000
  O   O11       1.0  0.8222832447943207  0.6540964794441422  0.006182299403633408  1.0000
  O   O12       1.0  0.698194984931952  0.20777218633616454  0.5568211698434666  1.0000
  O   O13       1.0  0.7092011132242889  0.0225883940649609  0.4505807364577663  1.0000
  O   O14       1.0  0.6855874080176039  0.22093258173317304  0.4639470832781996  1.0000
  O   O15       1.0  0.4949571366404157  0.20733366178031784  0.4631039927061167  1.0000
  O   O16       1.0  0.28982976852179826  0.9914724881733648  0.4551173192003191  1.0000
  O   O17       1.0  0.3032322109553363  0.8197536345173404  0.5491830734457253  1.0000
  O   O18       1.0  0.5235224351915021  0.8238368206320601  0.5479483850741715  1.0000
  O   O19       1.0  0.7130827963108287  0.010717481996920197  0.5458828982532111  1.0000
  O   O20       1.0  0.7855325285867067  0.011731893761428596  0.12292117152158971  1.0000
  O   O21       1.0  0.8434372099267194  0.09158123393342517  0.3742168383688663  1.0000
  O   O22       1.0  0.8907161475432233  0.1508261104265429  0.1985302040931742  1.0000
  O   O23       1.0  0.5139933916973832  0.20500077744845405  0.5569897324186925  1.0000
  O   O24       1.0  0.25046011320233663  0.6944172357170401  0.8025436328056655  1.0000
  O   O25       1.0  0.08056369512856064  0.9650592914720377  0.8129454644907383  1.0000
  O   O26       1.0  0.29557658122970315  0.0025294813422646984  0.5508669663492327  1.0000
  O   O27       1.0  0.496364190773562  0.9954199409809376  0.5019628146256423  1.0000
  O   O28       1.0  0.7892457503148904  0.8246133159050472  0.0578661742703304  1.0000
  O   O29       1.0  0.012959773553553754  0.843166313939349  0.0634278367973451  1.0000
  O   O30       1.0  0.033746682871324506  0.6695286621618093  0.05396328858521569  1.0000
  O   O31       1.0  0.828301029049527  0.45798403780360525  0.0526043657466815  1.0000
  O   O32       1.0  0.325795274439315  0.6439158135298795  0.4893812272767022  1.0000
  O   O33       1.0  0.9752408316690904  0.004422133514921697  0.013618835400791299  1.0000
