data_image0
_chemical_formula_structural       Mg6H24C24O36
_chemical_formula_sum              "Mg6 H24 C24 O36"
_cell_length_a       8.170441382370885
_cell_length_b       8.17043502218061
_cell_length_c       16.332681581706456
_cell_angle_alpha    90.14991373414256
_cell_angle_beta     90.14998991599138
_cell_angle_gamma    90.61124877377657

_space_group_name_H-M_alt    "P 1"
_space_group_IT_number       1

loop_
  _space_group_symop_operation_xyz
  'x, y, z'

loop_
  _atom_site_type_symbol
  _atom_site_label
  _atom_site_symmetry_multiplicity
  _atom_site_fract_x
  _atom_site_fract_y
  _atom_site_fract_z
  _atom_site_occupancy
  Mg  Mg1       1.0  0.9968173163394881  0.003183352044978  0.7500004224888528  1.0000
  Mg  Mg2       1.0  0.003180237235113698  0.9968200445272044  0.2499997776316505  1.0000
  Mg  Mg3       1.0  0.999999668411526  0.5000007222856693  0.5000005355854567  1.0000
  Mg  Mg4       1.0  0.4999996903904035  0.9999982702233157  0.9999994512296198  1.0000
  Mg  Mg5       1.0  0.4999980358199494  0.999999673521742  0.4999998245525319  1.0000
  Mg  Mg6       1.0  1.7376906740007936e-06  0.4999996837633134  0.9999999791901004  1.0000
  H   H1        1.0  0.9370580252960821  0.8087548085553351  0.6203562839092526  1.0000
  H   H2        1.0  0.19124719657376232  0.0629418402058377  0.8796436615138956  1.0000
  H   H3        1.0  0.06294196311635862  0.19124615306325407  0.37964391621179056  1.0000
  H   H4        1.0  0.8087515613021454  0.9370578909315908  0.12035653281775177  1.0000
  H   H5        1.0  0.8047708818823693  0.9541587062805659  0.6196199171680019  1.0000
  H   H6        1.0  0.045844667525777504  0.19522850535105357  0.8803805500278796  1.0000
  H   H7        1.0  0.1952278759935382  0.045841024856862596  0.3803802771636455  1.0000
  H   H8        1.0  0.9541565540026866  0.8047736893289965  0.11961904362268427  1.0000
  H   H9        1.0  0.19065712718686711  0.24173070684319234  0.5324447817767035  1.0000
  H   H10       1.0  0.7582698857023046  0.809342833964301  0.9675551007361844  1.0000
  H   H11       1.0  0.8093416306890405  0.758269024294236  0.4675554125549438  1.0000
  H   H12       1.0  0.2417313252880362  0.1906569153380744  0.032443874865364784  1.0000
  H   H13       1.0  0.0400373009074855  0.23980964585454245  0.5959777233786097  1.0000
  H   H14       1.0  0.7601892490241937  0.9599628131402366  0.9040221059173771  1.0000
  H   H15       1.0  0.9599614635272291  0.7601913092618701  0.404022473847604  1.0000
  H   H16       1.0  0.2398095088517138  0.04003691799719179  0.09597808841427018  1.0000
  H   H17       1.0  0.7607299954096832  0.06369880279432749  0.40514576563214877  1.0000
  H   H18       1.0  0.9363019573031794  0.23926942101315518  0.09485435246396179  1.0000
  H   H19       1.0  0.23926754762678126  0.9363021484001877  0.5948538164393468  1.0000
  H   H20       1.0  0.06369803110926851  0.7607315406054412  0.9051458476570884  1.0000
  H   H21       1.0  0.7626161621281895  0.19335670261153834  0.47982052916207607  1.0000
  H   H22       1.0  0.8066439803279764  0.23738201714395046  0.0201801555097845  1.0000
  H   H23       1.0  0.23738259972704875  0.8066442499245808  0.5201802803240196  1.0000
  H   H24       1.0  0.19335722152406737  0.7626165055991548  0.9798194294570874  1.0000
  C   C1        1.0  0.9863957437654279  0.3827860614054259  0.7277090330524414  1.0000
  C   C2        1.0  0.6172179592221952  0.013605341767537001  0.7722923030140547  1.0000
  C   C3        1.0  0.013605481742367004  0.6172173546733076  0.2722911757525708  1.0000
  C   C4        1.0  0.3827820226314459  0.986394395872075  0.22770789421242904  1.0000
  C   C5        1.0  0.9922225614430007  0.4586275616311895  0.8097870136595587  1.0000
  C   C6        1.0  0.5413736850396873  0.0077772381828609015  0.690214901782191  1.0000
  C   C7        1.0  0.007778645788221199  0.5413734013290037  0.19021441387609164  1.0000
  C   C8        1.0  0.45862752337116325  0.9922225085392284  0.3097846860792473  1.0000
  C   C9        1.0  0.9992567585962818  0.6225370839637776  0.7720598825187323  1.0000
  C   C10       1.0  0.3774640554548086  0.0007407719191121011  0.7279407504800444  1.0000
  C   C11       1.0  0.0007407832605465994  0.3774650834688415  0.22794153922697544  1.0000
  C   C12       1.0  0.6225346867240019  0.9992565086800619  0.2720600503223522  1.0000
  C   C13       1.0  0.9897351360021461  0.5467992968546155  0.690039578822983  1.0000
  C   C14       1.0  0.4531986507457901  0.010262423186539098  0.8099629056295468  1.0000
  C   C15       1.0  0.010263638970705804  0.4532041036394643  0.3099612364522456  1.0000
  C   C16       1.0  0.5468013219695534  0.9897360878938031  0.19003790096225254  1.0000
  C   C17       1.0  0.3802744297806626  0.5426957650397455  0.49660412950390753  1.0000
  C   C18       1.0  0.45730336929121046  0.6197256364318235  0.0033950874451562996  1.0000
  C   C19       1.0  0.6197255469140189  0.4573039674392802  0.5033972922423402  1.0000
  C   C20       1.0  0.5426990588978385  0.3802704603372503  0.9966008210681205  1.0000
  C   C21       1.0  0.45570300594501123  0.3801554074161259  0.5048247190820374  1.0000
  C   C22       1.0  0.619846568357481  0.5442944953237756  0.9951727540316282  1.0000
  C   C23       1.0  0.544294527953163  0.619844317219119  0.49517547235477355  1.0000
  C   C24       1.0  0.38015832466376764  0.45570284874980854  0.004820714126353198  1.0000
  O   O1        1.0  0.9146690399665758  0.9218425697886229  0.6391526929955588  1.0000
  O   O2        1.0  0.07815810329923073  0.08532997907422409  0.8608478144009124  1.0000
  O   O3        1.0  0.08532972446814571  0.07815838532778939  0.360847504230655  1.0000
  O   O4        1.0  0.9218406611354909  0.9146709760421814  0.13915238282530137  1.0000
  O   O5        1.0  0.9815537616904705  0.2386373494301992  0.6998877556199188  1.0000
  O   O6        1.0  0.7613631094075402  0.0184442788488468  0.8001117745392603  1.0000
  O   O7        1.0  0.018445011882540996  0.7613648322454833  0.30011183224097937  1.0000
  O   O8        1.0  0.23863809900331032  0.9815554678732351  0.19988781332217798  1.0000
  O   O9        1.0  0.9915068432016769  0.4029111447163415  0.8817492999798515  1.0000
  O   O10       1.0  0.59708876660239  0.008494169224832102  0.6182489598806669  1.0000
  O   O11       1.0  0.0084968105851573  0.5970886124298145  0.11825090593113427  1.0000
  O   O12       1.0  0.4029112021336304  0.991503120456819  0.3817512315566843  1.0000
  O   O13       1.0  0.011970955746939203  0.7665568522889712  0.7999340172091534  1.0000
  O   O14       1.0  0.23344356390040127  0.9880293856784302  0.7000674680179129  1.0000
  O   O15       1.0  0.9880278023491728  0.23344531390496565  0.20006924421104338  1.0000
  O   O16       1.0  0.7665539713976203  0.0119715577752189  0.2999339508332284  1.0000
  O   O17       1.0  0.9857734581866353  0.6022979395429714  0.6179567917374695  1.0000
  O   O18       1.0  0.39770527314663434  0.014225379730596899  0.8820426269229241  1.0000
  O   O19       1.0  0.0142253036685958  0.3977030129931477  0.3820440177486261  1.0000
  O   O20       1.0  0.6022971501036595  0.9857731469343988  0.11795757319866597  1.0000
  O   O21       1.0  0.07662045250733482  0.2779909243923909  0.541409136139947  1.0000
  O   O22       1.0  0.7220088412166491  0.923378861581341  0.9585913050619437  1.0000
  O   O23       1.0  0.9233783053685728  0.7220088067450374  0.4585910581917004  1.0000
  O   O24       1.0  0.277991140636992  0.07662087605827138  0.0414088921645401  1.0000
  O   O25       1.0  0.2365090076423613  0.5968966917688119  0.49206769943056367  1.0000
  O   O26       1.0  0.4031042280605988  0.7634851480903461  0.007931441805439499  1.0000
  O   O27       1.0  0.7634897424951036  0.4031030316277437  0.5079343316807297  1.0000
  O   O28       1.0  0.5968981975489739  0.23651094609843426  0.9920650789677192  1.0000
  O   O29       1.0  0.40013730165030387  0.23589702516382255  0.5111753696955643  1.0000
  O   O30       1.0  0.7641036945959174  0.5998621460481883  0.9888239714317778  1.0000
  O   O31       1.0  0.5998614602049345  0.7641039273722966  0.4888254397905312  1.0000
  O   O32       1.0  0.23589750821555813  0.40013272540030437  0.011170706772332999  1.0000
  O   O33       1.0  0.7230032597842496  0.0840872452437296  0.4618270731735733  1.0000
  O   O34       1.0  0.9159127500593487  0.27699721794148496  0.0381736385136549  1.0000
  O   O35       1.0  0.276995498091658  0.9159124858936989  0.5381731211580741  1.0000
  O   O36       1.0  0.08408723577361601  0.7230037410968179  0.9618271738672772  1.0000
