data_image0
_chemical_formula_structural       Co18H64C88N36O40
_chemical_formula_sum              "Co18 H64 C88 N36 O40"
_cell_length_a       10.966287104083424
_cell_length_b       10.966130671163045
_cell_length_c       32.05763470305314
_cell_angle_alpha    85.2135128530681
_cell_angle_beta     85.21682437525676
_cell_angle_gamma    81.64394919111218

_space_group_name_H-M_alt    "P 1"
_space_group_IT_number       1

loop_
  _space_group_symop_operation_xyz
  'x, y, z'

loop_
  _atom_site_type_symbol
  _atom_site_label
  _atom_site_symmetry_multiplicity
  _atom_site_fract_x
  _atom_site_fract_y
  _atom_site_fract_z
  _atom_site_occupancy
  Co  Co1       1.0  0.9333738388424424  0.06664151400404698  0.7499857736817572  1.0000
  Co  Co2       1.0  0.0665882564648967  0.9334058329923565  0.25001391288444796  1.0000
  Co  Co3       1.0  0.10200112752028193  0.9148322124526659  0.5824707701718238  1.0000
  Co  Co4       1.0  0.08515268483225213  0.8979837808768777  0.9175288031073376  1.0000
  Co  Co5       1.0  0.898038089030564  0.08515688941754715  0.41754272039644036  1.0000
  Co  Co6       1.0  0.9148408734490021  0.10198648087195748  0.08245754208213188  1.0000
  Co  Co7       1.0  0.0028173976277727974  0.8439386285203836  0.4983681912190929  1.0000
  Co  Co8       1.0  0.15603504159904702  0.9971672052502285  0.0016448376096676004  1.0000
  Co  Co9       1.0  0.997217965005291  0.1560337142228646  0.5016605565673089  1.0000
  Co  Co10      1.0  0.8439566971843394  0.0028069758953391914  0.9983367677538837  1.0000
  Co  Co11      1.0  0.8630148229528204  0.9668746961138694  0.6685597431929933  1.0000
  Co  Co12      1.0  0.0332136469500668  0.13697800802589197  0.8314162924263611  1.0000
  Co  Co13      1.0  0.13696848176004295  0.0331657937276901  0.33143921656073866  1.0000
  Co  Co14      1.0  0.9667592932744712  0.8630493662392453  0.16857274037941747  1.0000
  Co  Co15      1.0  0.1731376633566839  0.013724701421395492  0.6632329953200866  1.0000
  Co  Co16      1.0  0.9862418676614341  0.8268917562713083  0.8367530266576748  1.0000
  Co  Co17      1.0  0.8268891466576492  0.9862333089804376  0.33677707404645923  1.0000
  Co  Co18      1.0  0.013763027910897603  0.17309694902217387  0.16323807224975437  1.0000
  H   H1        1.0  0.3574958722306505  0.12881223390647278  0.8380352821250482  1.0000
  H   H2        1.0  0.8711806233445574  0.6425285321264622  0.661935194389116  1.0000
  H   H3        1.0  0.6424992086452691  0.8712063442942224  0.16196272311363907  1.0000
  H   H4        1.0  0.1288335152683899  0.3575384067228313  0.3380558702256664  1.0000
  H   H5        1.0  0.5761498809876003  0.11183313327337875  0.8064676828266855  1.0000
  H   H6        1.0  0.8881806497530463  0.42387042783926876  0.6935048860573189  1.0000
  H   H7        1.0  0.42383879663945834  0.8881946122815378  0.19351994843932366  1.0000
  H   H8        1.0  0.11184362377422732  0.5761931445228894  0.3064831754602579  1.0000
  H   H9        1.0  0.46357084814754773  0.038415538018647055  0.6861457712609891  1.0000
  H   H10       1.0  0.961634388353446  0.536452193471426  0.8138203058635651  1.0000
  H   H11       1.0  0.5363805044309233  0.9615849041801212  0.3138493436418344  1.0000
  H   H12       1.0  0.038420227320365506  0.46359399220503417  0.18616644544859887  1.0000
  H   H13       1.0  0.6806103557667741  0.8428589320688786  0.4946897427420822  1.0000
  H   H14       1.0  0.15717941844096123  0.31932948324399035  0.0052996078309846045  1.0000
  H   H15       1.0  0.31942209027180724  0.15710555854989391  0.5053224717759051  1.0000
  H   H16       1.0  0.8428593969845226  0.6806339373002287  0.9946787641283379  1.0000
  H   H17       1.0  0.46030553026798066  0.8738694930217717  0.5246833321920191  1.0000
  H   H18       1.0  0.12612477860339064  0.5396494275904472  0.9753153745616173  1.0000
  H   H19       1.0  0.5397332736896417  0.1260848830699785  0.4753274313385133  1.0000
  H   H20       1.0  0.8738974135035564  0.46031650774638416  0.02466652465224679  1.0000
  H   H21       1.0  0.5715141009352324  0.9459960710645701  0.6452653104900817  1.0000
  H   H22       1.0  0.05392905102189621  0.4284817545083612  0.8547320931572527  1.0000
  H   H23       1.0  0.42852243001633644  0.05400256545536307  0.354741431263747  1.0000
  H   H24       1.0  0.9460460194232923  0.5714912845482657  0.14525221070664426  1.0000
  H   H25       1.0  0.17109758407703177  0.5575794895060184  0.634717342179492  1.0000
  H   H26       1.0  0.4423717414357355  0.8289118681567798  0.8653028172186408  1.0000
  H   H27       1.0  0.8288500611419993  0.4424079486410974  0.3653284780955629  1.0000
  H   H28       1.0  0.5576213032731517  0.17109596652927192  0.13467465771795867  1.0000
  H   H29       1.0  0.05841758036127942  0.44711958911657496  0.5192631257349163  1.0000
  H   H30       1.0  0.5529069066135649  0.9416029711107752  0.9807429735897555  1.0000
  H   H31       1.0  0.94159479320966  0.5528644720432749  0.4807715626792514  1.0000
  H   H32       1.0  0.4470840983831153  0.058387793278576766  0.019238173388373494  1.0000
  H   H33       1.0  0.18659052380373004  0.34031698890380113  0.6673739179281738  1.0000
  H   H34       1.0  0.6596029305955043  0.8133991104861878  0.8326318667235808  1.0000
  H   H35       1.0  0.8133792305564429  0.6596625260428935  0.3326665012751348  1.0000
  H   H36       1.0  0.3403843857138328  0.18659402462454008  0.16734463925789098  1.0000
  H   H37       1.0  0.1853491361418378  0.956409903184287  0.5084210371205485  1.0000
  H   H38       1.0  0.04354445178634591  0.8146461214877474  0.9915735948951362  1.0000
  H   H39       1.0  0.8146422560467388  0.04361104573778356  0.4915723271214815  1.0000
  H   H40       1.0  0.9564417850188889  0.18533074243355677  0.008415266534832702  1.0000
  H   H41       1.0  0.9380782774400276  0.17351162506400886  0.679303853579256  1.0000
  H   H42       1.0  0.8265690950766569  0.061953697660953794  0.8206921028279196  1.0000
  H   H43       1.0  0.061914000664572214  0.8265064377756702  0.3206873849480159  1.0000
  H   H44       1.0  0.17340024986449273  0.9380779443250447  0.17931687456093925  1.0000
  H   H45       1.0  0.1007334616617754  0.8057075304723967  0.6534548028839424  1.0000
  H   H46       1.0  0.19431991653670624  0.8992498229748945  0.8465502397561337  1.0000
  H   H47       1.0  0.8992965570036022  0.19428842458528803  0.3465515808204031  1.0000
  H   H48       1.0  0.8056812167746801  0.1007339552001412  0.1534401746030056  1.0000
  H   H49       1.0  0.16296018018921643  0.7725295725026627  0.4277381887918707  1.0000
  H   H50       1.0  0.2274005345449339  0.8370366379387234  0.0722676799580739  1.0000
  H   H51       1.0  0.8370415997042572  0.22758142749712112  0.5722831526972596  1.0000
  H   H52       1.0  0.7725268123581799  0.1629719590136531  0.927716351409394  1.0000
  H   H53       1.0  0.3784896073210931  0.7500543540978697  0.4382658047440628  1.0000
  H   H54       1.0  0.2498915872269124  0.6215221283256653  0.0617296109187677  1.0000
  H   H55       1.0  0.6214913658350342  0.24993445643947604  0.5617752690295743  1.0000
  H   H56       1.0  0.7500858008730165  0.3784908332200558  0.9382550310429278  1.0000
  H   H57       1.0  0.3285071113112111  0.8021091132328521  0.48909816143554236  1.0000
  H   H58       1.0  0.19785269964500435  0.6715177944914003  0.010894496978494303  1.0000
  H   H59       1.0  0.6714751910104512  0.19783284692496744  0.5109510915063777  1.0000
  H   H60       1.0  0.8021420111093536  0.328473325693281  0.9890862206335739  1.0000
  H   H61       1.0  0.29251756757243197  0.6575582937560824  0.4760539319013048  1.0000
  H   H62       1.0  0.342399150489058  0.7075014518514989  0.023947554021603402  1.0000
  H   H63       1.0  0.7074124272441297  0.34242898873112165  0.5239711913496734  1.0000
  H   H64       1.0  0.6575783285649663  0.2925188243419753  0.9760390573349439  1.0000
  C   C1        1.0  0.3194057367731561  0.06554392773271189  0.736434746152369  1.0000
  C   C2        1.0  0.9344927606663307  0.6806170074703103  0.76352976238239  1.0000
  C   C3        1.0  0.680565947935989  0.9344516484138979  0.2635683439952671  1.0000
  C   C4        1.0  0.06553230823119091  0.3194354612203228  0.23645797338971863  1.0000
  C   C5        1.0  0.2896564312292115  0.09290465341063477  0.7788769556473056  1.0000
  C   C6        1.0  0.907111803448956  0.7103850934488278  0.721090476540702  1.0000
  C   C7        1.0  0.71032830518503  0.907099021908081  0.22112521098792826  1.0000
  C   C8        1.0  0.09289667017750251  0.2896726271666593  0.278899458761046  1.0000
  C   C9        1.0  0.3809274962642562  0.11011610491751606  0.8052541876722328  1.0000
  C   C10       1.0  0.8899058006601095  0.6191053729541663  0.6947159214516956  1.0000
  C   C11       1.0  0.6190647440406424  0.8898965013502432  0.194745944034544  1.0000
  C   C12       1.0  0.1101155335174866  0.380944001924263  0.3052732595248954  1.0000
  C   C13       1.0  0.5010003999552524  0.10054925555467518  0.7876472403841887  1.0000
  C   C14       1.0  0.8994771979062508  0.4990248149047217  0.7123232700446565  1.0000
  C   C15       1.0  0.49898166650881853  0.899465776219827  0.21234625266505697  1.0000
  C   C16       1.0  0.10054790269779801  0.501030394456663  0.2876643855484957  1.0000
  C   C17       1.0  0.5316758939341782  0.07529491253589526  0.744884317465491  1.0000
  C   C18       1.0  0.9247525965096275  0.46834020355177575  0.755086385992257  1.0000
  C   C19       1.0  0.4682978369886542  0.9247195468671948  0.2551100570042023  1.0000
  C   C20       1.0  0.07527517048367831  0.5317054525826989  0.2449014687991351  1.0000
  C   C21       1.0  0.441247292496307  0.05786140292488534  0.7187829970296703  1.0000
  C   C22       1.0  0.9421811601356113  0.5587691102828883  0.7811837069996839  1.0000
  C   C23       1.0  0.5587281370932901  0.9421390835322186  0.281214851823023  1.0000
  C   C24       1.0  0.05785583380354351  0.44127423744836847  0.21880301197541024  1.0000
  C   C25       1.0  0.6646766002212844  0.06453533552072335  0.7286297498360311  1.0000
  C   C26       1.0  0.9355274735862196  0.3353357203753403  0.7713382603333796  1.0000
  C   C27       1.0  0.33528821807672676  0.9355088363392596  0.2713640230009489  1.0000
  C   C28       1.0  0.06448281414766652  0.6647198823030321  0.22864731663357668  1.0000
  C   C29       1.0  0.7172656880291159  0.9096894935113297  0.5960390787607179  1.0000
  C   C30       1.0  0.09030708378256953  0.2827239643805726  0.9039544467103082  1.0000
  C   C31       1.0  0.2827762349485212  0.09029461053177103  0.4039701109633923  1.0000
  C   C32       1.0  0.9096949957053084  0.7172633093410781  0.09602897655256018  1.0000
  C   C33       1.0  0.747924484883491  0.8782870039683883  0.5540299742116017  1.0000
  C   C34       1.0  0.12172716617958912  0.25205151393146963  0.9459590435638032  1.0000
  C   C35       1.0  0.25212388239346245  0.12169429577230768  0.4459781744874789  1.0000
  C   C36       1.0  0.8782886120115094  0.7479208684352799  0.054019735245503915  1.0000
  C   C37       1.0  0.6565989305676255  0.8644612561303829  0.527178954803638  1.0000
  C   C38       1.0  0.13555150622858042  0.3433688510705649  0.9728108434652964  1.0000
  C   C39       1.0  0.3434418413581213  0.1355028941875034  0.47283271690670137  1.0000
  C   C40       1.0  0.8644743489523563  0.6565946887752998  0.027166963923626507  1.0000
  C   C41       1.0  0.5355778220255233  0.8814460446929927  0.5439306110286282  1.0000
  C   C42       1.0  0.1185434924785724  0.46439635078456115  0.9560639610387935  1.0000
  C   C43       1.0  0.4644574144841513  0.11851985272800651  0.4560805463123145  1.0000
  C   C44       1.0  0.881472230124011  0.5355714611437037  0.0439140157426436  1.0000
  C   C45       1.0  0.5040387391918913  0.9098129778314002  0.5863508575320536  1.0000
  C   C46       1.0  0.09015009986136852  0.49593235282272724  0.9136449280811688  1.0000
  C   C47       1.0  0.495981837491705  0.09016701095259799  0.4136559489690015  1.0000
  C   C48       1.0  0.909851832169146  0.5040430349280596  0.086335411872497  1.0000
  C   C49       1.0  0.5945386727996721  0.9240421175131672  0.612897774520931  1.0000
  C   C50       1.0  0.07591790184575592  0.4054462240671341  0.8870959385415202  1.0000
  C   C51       1.0  0.4054884952322837  0.07594785588066341  0.3871073049001623  1.0000
  C   C52       1.0  0.9240730548805163  0.5945399769607673  0.11288690150063728  1.0000
  C   C53       1.0  0.3705622683631731  0.9254151591689137  0.6019968713098933  1.0000
  C   C54       1.0  0.0745356642021591  0.629426896301922  0.898003238494354  1.0000
  C   C55       1.0  0.6294656885375504  0.07456189759360399  0.3980129260021314  1.0000
  C   C56       1.0  0.9254716556889236  0.37053305160751643  0.10198175936130127  1.0000
  C   C57       1.0  0.1311859905291968  0.27278442543418185  0.6107365391869803  1.0000
  C   C58       1.0  0.7271820158941865  0.8688211599172034  0.8892637673039727  1.0000
  C   C59       1.0  0.868815204691636  0.7271939925934345  0.3892967639786064  1.0000
  C   C60       1.0  0.27280513771698633  0.13115736447521434  0.110715349503991  1.0000
  C   C61       1.0  0.0933726880290564  0.3028867597353083  0.5693447127095721  1.0000
  C   C62       1.0  0.6970942208898594  0.906638395747386  0.9306562779087739  1.0000
  C   C63       1.0  0.906640511197445  0.697088033713136  0.430692715371343  1.0000
  C   C64       1.0  0.3028966825838921  0.09334414043729566  0.0693229264008224  1.0000
  C   C65       1.0  0.15075889810869822  0.4829911235395485  0.6172176993160078  1.0000
  C   C66       1.0  0.5169647172247451  0.849250916454224  0.8827959756047574  1.0000
  C   C67       1.0  0.8492035278656619  0.516994083561208  0.3828265104000578  1.0000
  C   C68       1.0  0.4830226845501074  0.15074952799648852  0.1171806284526582  1.0000
  C   C69       1.0  0.11487251942968871  0.5139316480712353  0.5755072892104849  1.0000
  C   C70       1.0  0.4860500604145984  0.8851445002459498  0.9245082178646127  1.0000
  C   C71       1.0  0.8851085166330536  0.48606173998162205  0.4245370816829065  1.0000
  C   C72       1.0  0.5139419182996079  0.11485159299625278  0.07546806777001079  1.0000
  C   C73       1.0  0.085926526757703  0.4242230328905945  0.5510899692200723  1.0000
  C   C74       1.0  0.5757691936068599  0.9140877211969002  0.9489190358638451  1.0000
  C   C75       1.0  0.914071899946336  0.5757539995658759  0.44895187639821177  1.0000
  C   C76       1.0  0.4242227501500653  0.08590472489464668  0.05105985176793839  1.0000
  C   C77       1.0  0.1598041314308318  0.36353437464163824  0.6353868275877159  1.0000
  C   C78       1.0  0.6364041501503053  0.8401986020379367  0.8646200547585605  1.0000
  C   C79       1.0  0.8401702058637215  0.636441698230328  0.3646516870340476  1.0000
  C   C80       1.0  0.3635794296095868  0.15979143749133576  0.13535727265441713  1.0000
  C   C81       1.0  0.10616660676529933  0.6463980060676207  0.5585426774983872  1.0000
  C   C82       1.0  0.35360038563982954  0.8938401202353886  0.9414756538700998  1.0000
  C   C83       1.0  0.8938375428497168  0.3535937206563986  0.4414982657561025  1.0000
  C   C84       1.0  0.6464026854525146  0.10615340297305659  0.05850537641482129  1.0000
  C   C85       1.0  0.3039769294293749  0.7519426427068155  0.46352344398318474  1.0000
  C   C86       1.0  0.24800877327975004  0.696049181020591  0.036473470080714776  1.0000
  C   C87       1.0  0.6959984384942787  0.2480424273997315  0.536515092573566  1.0000
  C   C88       1.0  0.751966729573276  0.30396131298508766  0.9635094261176461  1.0000
  N   N1        1.0  0.21042089086350305  0.05097879872847237  0.7200889587113577  1.0000
  N   N2        1.0  0.9490211446482991  0.789603483556881  0.7798812715202175  1.0000
  N   N3        1.0  0.7895544628165183  0.9490134842935518  0.279915680294394  1.0000
  N   N4        1.0  0.0509825663734276  0.2104421486657202  0.22011102271047625  1.0000
  N   N5        1.0  0.12136809523028805  0.06862792109416199  0.7509865633991665  1.0000
  N   N6        1.0  0.9313505280781841  0.8786621045567954  0.7489862126101838  1.0000
  N   N7        1.0  0.8786046270177438  0.931377562305428  0.24901527441119947  1.0000
  N   N8        1.0  0.06862270106605452  0.12138813251628729  0.2510105729727527  1.0000
  N   N9        1.0  0.1650458974937976  0.09513726305891618  0.7861311429859084  1.0000
  N   N10       1.0  0.9048466660243407  0.8350033719931673  0.7138389046870512  1.0000
  N   N11       1.0  0.8349324709390162  0.9048765170559107  0.21386904388543823  1.0000
  N   N12       1.0  0.09513130550170253  0.16505712724359967  0.2861558873060587  1.0000
  N   N13       1.0  0.8265373641263807  0.9208957985679831  0.6127460356822354  1.0000
  N   N14       1.0  0.0791123684230044  0.17344300187063058  0.8872496145066433  1.0000
  N   N15       1.0  0.17349733523911948  0.07910313231374025  0.38726636540496867  1.0000
  N   N16       1.0  0.9208766983844117  0.8265389204266923  0.11273714718156208  1.0000
  N   N17       1.0  0.9163738072609535  0.8975824343530477  0.582435661113017  1.0000
  N   N18       1.0  0.10242993850140177  0.08358609974920478  0.9175556209262009  1.0000
  N   N19       1.0  0.08365992305898123  0.10241297886636151  0.4175759339083171  1.0000
  N   N20       1.0  0.8975645962416579  0.9163894935063654  0.08242679857921328  1.0000
  N   N21       1.0  0.8731766949752927  0.8704453336852042  0.5473443138373851  1.0000
  N   N22       1.0  0.12956990993070866  0.12679556471363904  0.9526426301840016  1.0000
  N   N23       1.0  0.12687078272657712  0.12953884859937398  0.45266471303051486  1.0000
  N   N24       1.0  0.8704376076158129  0.8731826410647585  0.04733715484800879  1.0000
  N   N25       1.0  0.12955221351819557  0.14899052940264568  0.6188917747370366  1.0000
  N   N26       1.0  0.8509686406672048  0.8704666840583427  0.8811008432350887  1.0000
  N   N27       1.0  0.8704738510295444  0.8509795362666491  0.3811320047675294  1.0000
  N   N28       1.0  0.14901482690277132  0.12951240694195573  0.11888179507748477  1.0000
  N   N29       1.0  0.0915997565302149  0.10612985094796558  0.5852262030486202  1.0000
  N   N30       1.0  0.8938424046384629  0.9084210385898568  0.9147641573177052  1.0000
  N   N31       1.0  0.9084438861537338  0.8938403004956047  0.41479363444766176  1.0000
  N   N32       1.0  0.10613920614039782  0.09155741906126022  0.08521917687078677  1.0000
  N   N33       1.0  0.06947944905044781  0.19499524559446973  0.5545439865337511  1.0000
  N   N34       1.0  0.8049901154900709  0.9305394848716799  0.9454487242585115  1.0000
  N   N35       1.0  0.9305550516467138  0.80498361976629  0.445480542332426  1.0000
  N   N36       1.0  0.19499615494936515  0.06944192825702795  0.054533453923674785  1.0000
  O   O1        1.0  0.9619059684678393  0.0853154110438083  0.6857165404801504  1.0000
  O   O2        1.0  0.9147493678607362  0.038094858383146836  0.8142572122515472  1.0000
  O   O3        1.0  0.03806325248961429  0.9147070776804326  0.3142864664421693  1.0000
  O   O4        1.0  0.0852154812290422  0.9619520532629692  0.18573616851999467  1.0000
  O   O5        1.0  0.07568200888815112  0.893359121054871  0.6463689260183684  1.0000
  O   O6        1.0  0.1066628087422714  0.9243132862469919  0.8536179998071487  1.0000
  O   O7        1.0  0.9243488305488087  0.10663027157703192  0.3536276417143468  1.0000
  O   O8        1.0  0.893335610922364  0.07567728944552946  0.14636699346245047  1.0000
  O   O9        1.0  0.10072658797275123  0.9567783032078621  0.5202637349378492  1.0000
  O   O10       1.0  0.0432023277858988  0.8992825018876759  0.9797438927393003  1.0000
  O   O11       1.0  0.8992962932644846  0.043236175378289846  0.4797607237756266  1.0000
  O   O12       1.0  0.9567848569272074  0.10069605258210858  0.0202458282091769  1.0000
  O   O13       1.0  0.6920711630093734  0.03375332512027998  0.6907734858208485  1.0000
  O   O14       1.0  0.9663523682949491  0.30792431175300555  0.8091921478428643  1.0000
  O   O15       1.0  0.30790572138430156  0.9662936055587964  0.3092201703229306  1.0000
  O   O16       1.0  0.03365869550102471  0.6921183619092589  0.19079378060423113  1.0000
  O   O17       1.0  0.7415704778647765  0.08565105282414008  0.7537091718702412  1.0000
  O   O18       1.0  0.9143845741158216  0.25844204863427916  0.74626421004168  1.0000
  O   O19       1.0  0.25838433834006486  0.9144083573397951  0.24628569718938556  1.0000
  O   O20       1.0  0.08560260880510381  0.7416161271605902  0.2537241440648828  1.0000
  O   O21       1.0  0.3439957043983811  0.951742269281766  0.6403401607227578  1.0000
  O   O22       1.0  0.04819869713323752  0.6560126142157686  0.8596594831708512  1.0000
  O   O23       1.0  0.6560386421279106  0.04822741362449526  0.35966810542286237  1.0000
  O   O24       1.0  0.9518125155039672  0.34396322703365456  0.14032712606321948  1.0000
  O   O25       1.0  0.29261214146709597  0.9117057307267801  0.5762000643367455  1.0000
  O   O26       1.0  0.0882647665972698  0.7073524136922416  0.9238042494290679  1.0000
  O   O27       1.0  0.7074066537303667  0.08827911754972459  0.42381133220663963  1.0000
  O   O28       1.0  0.9117461528565942  0.29259785061732646  0.07618404380136917  1.0000
  O   O29       1.0  0.06994990605473111  0.6729687926357216  0.5213590400846684  1.0000
  O   O30       1.0  0.32702074216445004  0.9300572685135292  0.9786589303387316  1.0000
  O   O31       1.0  0.9300558600122744  0.32700255828222424  0.4786827576586814  1.0000
  O   O32       1.0  0.672984842273067  0.06991300342199477  0.0213245713581216  1.0000
  O   O33       1.0  0.1356174057645916  0.7229587662352659  0.5822681773578322  1.0000
  O   O34       1.0  0.27703532324859753  0.864379973901528  0.9177525909985959  1.0000
  O   O35       1.0  0.8644228585995608  0.27703573614269306  0.4177657146722638  1.0000
  O   O36       1.0  0.7229769771255763  0.13561214649897116  0.08222446976534309  1.0000
  O   O37       1.0  0.19038466969972492  0.8183162658115392  0.44906861202748866  1.0000
  O   O38       1.0  0.1816399123142745  0.8096378006385264  0.05092529046672918  1.0000
  O   O39       1.0  0.8096192084134304  0.18173223800681623  0.5509697612241309  1.0000
  O   O40       1.0  0.8183142061348365  0.19036583124489667  0.9490531194821372  1.0000
