data_image0
_chemical_formula_structural       Cu12H48C60N28
_chemical_formula_sum              "Cu12 H48 C60 N28"
_cell_length_a       20.755732789741135
_cell_length_b       23.543010039133897
_cell_length_c       24.008181737630217
_cell_angle_alpha    79.10116946570886
_cell_angle_beta     84.94676911120051
_cell_angle_gamma    87.50178239620703

_space_group_name_H-M_alt    "P 1"
_space_group_IT_number       1

loop_
  _space_group_symop_operation_xyz
  'x, y, z'

loop_
  _atom_site_type_symbol
  _atom_site_label
  _atom_site_symmetry_multiplicity
  _atom_site_fract_x
  _atom_site_fract_y
  _atom_site_fract_z
  _atom_site_occupancy
  Cu  Cu1       1.0  0.6690727731214211  0.3079932520116203  0.3163994168668721  1.0000
  Cu  Cu2       1.0  0.6904001606280802  0.27731666660433524  0.44390733295119134  1.0000
  Cu  Cu3       1.0  0.7148599545331181  0.406201962122367  0.3766864093032397  1.0000
  Cu  Cu4       1.0  0.9018042508257057  0.6509672056095753  0.8352566027593155  1.0000
  Cu  Cu5       1.0  0.8084850464679647  0.6579360987554496  0.9481137277872093  1.0000
  Cu  Cu6       1.0  0.7814162235022692  0.5706388355264381  0.8688882078682383  1.0000
  Cu  Cu7       1.0  0.4167511482640265  0.869803298163639  0.16564334137866146  1.0000
  Cu  Cu8       1.0  0.33580950097644563  0.8469642718316238  0.06744103169575055  1.0000
  Cu  Cu9       1.0  0.27913532964094406  0.9371212873912854  0.13982762228626916  1.0000
  Cu  Cu10      1.0  0.10702292953224912  0.1728361925770656  0.6747406494992988  1.0000
  Cu  Cu11      1.0  0.17207953932382486  0.21775277137682994  0.5509560045774862  1.0000
  Cu  Cu12      1.0  0.1945943537293999  0.08747330078931982  0.6099806987661581  1.0000
  H   H1        1.0  0.5833625533338991  0.2060575574199959  0.3005128256500385  1.0000
  H   H2        1.0  0.5904393419503294  0.17377244053568575  0.48368659991490404  1.0000
  H   H3        1.0  0.6800798018966248  0.517253502017276  0.2824408341892877  1.0000
  H   H4        1.0  0.6519333746388514  0.3771109126874991  0.19412294733191257  1.0000
  H   H5        1.0  0.7744642835629564  0.274733466832089  0.5475994752290845  1.0000
  H   H6        1.0  0.7905046098238699  0.4549668240838116  0.4669050029389155  1.0000
  H   H7        1.0  0.991316932658549  0.7571666542011782  0.8333756275041325  1.0000
  H   H8        1.0  0.8796873745046627  0.7530676133094831  0.9950950896704287  1.0000
  H   H9        1.0  0.8034366402176262  0.48936567611289683  0.7776512814768779  1.0000
  H   H10       1.0  0.9753481330228413  0.5918341671650182  0.7368240895960625  1.0000
  H   H11       1.0  0.6877655998506713  0.6342578793611865  0.04183652256086391  1.0000
  H   H12       1.0  0.6479686798437001  0.5202312099072374  0.9276323046073216  1.0000
  H   H13       1.0  0.5217243616145383  0.7645881539138628  0.1690036244163409  1.0000
  H   H14       1.0  0.4180266829016759  0.7464290604980235  0.0247360995085018  1.0000
  H   H15       1.0  0.2670629937265759  0.0111627714726339  0.23639747999105512  1.0000
  H   H16       1.0  0.45929737064410153  0.9359188970460651  0.2589793422189217  1.0000
  H   H17       1.0  0.23019801853752137  0.8532524095299295  0.9791082825704295  1.0000
  H   H18       1.0  0.1540850599289669  0.9855371274860193  0.071935441627673  1.0000
  H   H19       1.0  0.0160826876844098  0.2800666349459959  0.6928650864202126  1.0000
  H   H20       1.0  0.08764860237014462  0.3330085409015879  0.516349205598523  1.0000
  H   H21       1.0  0.1731845809001911  0.968890532864016  0.6965431349889073  1.0000
  H   H22       1.0  0.06243866270254732  0.08697328588485928  0.7887111925018006  1.0000
  H   H23       1.0  0.27863645958366595  0.22736836514039285  0.4465477353077462  1.0000
  H   H24       1.0  0.30085366237326383  0.04582312555950812  0.5214396217610542  1.0000
  H   H25       1.0  0.9943413266406087  0.8230354292495792  0.9756624962749  1.0000
  H   H26       1.0  0.004992229670698098  0.8689767436338585  0.8458712977742309  1.0000
  H   H27       1.0  0.486304616691733  0.12269633040724413  0.44381507030014694  1.0000
  H   H28       1.0  0.5186380674006729  0.1137725689245599  0.3177123928595549  1.0000
  H   H29       1.0  0.9733407690566979  0.3914955760116713  0.5506434773829483  1.0000
  H   H30       1.0  0.9607514736866778  0.38441341709724236  0.6810446366939189  1.0000
  H   H31       1.0  0.5076943393048553  0.6608895526465944  0.05031796420584557  1.0000
  H   H32       1.0  0.5764255770654643  0.6637412400889248  0.1586873108654743  1.0000
  H   H33       1.0  0.11648867208673862  0.9156523599436567  0.7988449542016056  1.0000
  H   H34       1.0  0.047286239580756693  0.9978579512050845  0.8722155050695761  1.0000
  H   H35       1.0  0.6194154516935627  0.4808601937329655  0.1341188749060365  1.0000
  H   H36       1.0  0.6292576695284141  0.5848457609437433  0.19398599588641474  1.0000
  H   H37       1.0  0.32813323470681877  0.042129042824676305  0.3270559438606  1.0000
  H   H38       1.0  0.4759597566083897  0.030331837581727007  0.300239664836262  1.0000
  H   H39       1.0  0.9721822150351046  0.4841227167986731  0.686886537125865  1.0000
  H   H40       1.0  0.8267328408408616  0.4832692805356445  0.6682320123439779  1.0000
  H   H41       1.0  0.10987070155849922  0.9838545392363828  0.9522428737305547  1.0000
  H   H42       1.0  0.09776268416393213  0.8510184974342108  0.966999616004131  1.0000
  H   H43       1.0  0.8640983336190119  0.3367291376459605  0.5917292479539284  1.0000
  H   H44       1.0  0.8241560343131269  0.46629119064100166  0.5718995956864319  1.0000
  H   H45       1.0  0.5513195326958426  0.5267026336713699  0.009571957036591501  1.0000
  H   H46       1.0  0.5075347018101938  0.5467979513085554  0.09823671522062943  1.0000
  H   H47       1.0  0.38420118435142564  0.16906581414009036  0.3984357872836171  1.0000
  H   H48       1.0  0.3601505920071731  0.0378651002631685  0.4196902979997502  1.0000
  C   C1        1.0  0.5941240660882414  0.20380687297708994  0.3443214402584758  1.0000
  C   C2        1.0  0.5656090184338042  0.17055108128753463  0.3946798992125693  1.0000
  C   C3        1.0  0.5971531973756896  0.18810475409234337  0.43788843689436874  1.0000
  C   C4        1.0  0.6761960756481927  0.4764931051031597  0.2683094815437954  1.0000
  C   C5        1.0  0.6571936854065541  0.4653876653179411  0.21655447353844437  1.0000
  C   C6        1.0  0.6623612362505541  0.404774670340295  0.22343906585695808  1.0000
  C   C7        1.0  0.7717474440227434  0.3173489015596687  0.5208643272258017  1.0000
  C   C8        1.0  0.79861627456787  0.36931212486720016  0.527338011208009  1.0000
  C   C9        1.0  0.7790477632054692  0.4096348459802783  0.4803139182658001  1.0000
  C   C10       1.0  0.9570954544833512  0.7494893661352935  0.8707295925366341  1.0000
  C   C11       1.0  0.9515707024232827  0.7760206877625393  0.9188169451000903  1.0000
  C   C12       1.0  0.9008995696639845  0.746598841470892  0.9537069558542443  1.0000
  C   C13       1.0  0.8411468867031715  0.5207527850223245  0.773690414285717  1.0000
  C   C14       1.0  0.8987325470079173  0.5263686996543344  0.7378187805872899  1.0000
  C   C15       1.0  0.9296049856511246  0.5722150506900548  0.753651914829689  1.0000
  C   C16       1.0  0.6879676474445802  0.6087739337616825  0.008660815399487381  1.0000
  C   C17       1.0  0.6420255069460482  0.5697355341062648  0.9997620619123495  1.0000
  C   C18       1.0  0.6674639295249065  0.5508422824622559  0.9499224985176866  1.0000
  C   C19       1.0  0.4902878530176906  0.7681283281502262  0.134624003237505  1.0000
  C   C20       1.0  0.48720932975674464  0.7329056552082991  0.09360707612638208  1.0000
  C   C21       1.0  0.4372952580235393  0.7592576097927123  0.0609635520140515  1.0000
  C   C22       1.0  0.312938076427031  0.9872945299200494  0.23490249974009467  1.0000
  C   C23       1.0  0.3666624458641011  0.9890673163493633  0.26628767659630626  1.0000
  C   C24       1.0  0.4114459835640715  0.9496607642820724  0.24590513355016697  1.0000
  C   C25       1.0  0.21915306237207943  0.8824212439331589  0.008870131291125521  1.0000
  C   C26       1.0  0.16899488105998725  0.9244411088266846  0.009561988976926644  1.0000
  C   C27       1.0  0.18095500535978465  0.9509180346425838  0.055329711333250445  1.0000
  C   C28       1.0  0.041817899283231  0.2859657748115367  0.6509080819818038  1.0000
  C   C29       1.0  0.0328746197286378  0.32879830106157476  0.6024640602737251  1.0000
  C   C30       1.0  0.0778690790390186  0.3124655791462488  0.5605928870766377  1.0000
  C   C31       1.0  0.14861176651498914  0.0054861449979384  0.7115398206707368  1.0000
  C   C32       1.0  0.11072300878731062  0.006810529006784802  0.762766788343626  1.0000
  C   C33       1.0  0.09229831701529183  0.0655673211981878  0.7590166352507667  1.0000
  C   C34       1.0  0.27570335749616254  0.1840112913097371  0.4718242190582984  1.0000
  C   C35       1.0  0.3111410364494063  0.1334154954247495  0.4640186652848612  1.0000
  C   C36       1.0  0.28644091210577477  0.09105083354832293  0.5094245218608577  1.0000
  C   C37       1.0  0.9887975673776882  0.8223691197257991  0.9309625553499645  1.0000
  C   C38       1.0  0.015435289259251308  0.8646478700807947  0.890287149065756  1.0000
  C   C39       1.0  0.5127692086418918  0.131093901787203  0.40188427604754645  1.0000
  C   C40       1.0  0.49187572932360274  0.10788633958595281  0.3595462371194528  1.0000
  C   C41       1.0  0.9848462264377319  0.3752756725225482  0.5944497188339923  1.0000
  C   C42       1.0  0.9491146916508412  0.39564165701012416  0.6366425196605121  1.0000
  C   C43       1.0  0.5204793383741801  0.6791860762724015  0.08629006192258973  1.0000
  C   C44       1.0  0.561490659223388  0.6480377559947073  0.1219570772383776  1.0000
  C   C45       1.0  0.0976579286118948  0.9574500811054137  0.8077374003558262  1.0000
  C   C46       1.0  0.06622010718866278  0.9579157700993124  0.8589856129211172  1.0000
  C   C47       1.0  0.6319326017050886  0.5026838702020555  0.1678097517035937  1.0000
  C   C48       1.0  0.6180365179147956  0.560058080199724  0.16211397063543836  1.0000
  C   C49       1.0  0.37287991974626783  0.02541497132374101  0.3077687862845053  1.0000
  C   C50       1.0  0.43010544270219964  0.04204547419348611  0.321687139287242  1.0000
  C   C51       1.0  0.9202917438456666  0.4924552179458248  0.6947376498150675  1.0000
  C   C52       1.0  0.8780741037603761  0.4709837124350926  0.6645780594829347  1.0000
  C   C53       1.0  0.12001207098293779  0.9381886067229676  0.9688892879454656  1.0000
  C   C54       1.0  0.09184825558467942  0.8967779146013158  0.9479199908862341  1.0000
  C   C55       1.0  0.8390794592876674  0.3760264242480176  0.5715318155198474  1.0000
  C   C56       1.0  0.8501116712404981  0.4260839113867264  0.5882995115839122  1.0000
  C   C57       1.0  0.5810721748909132  0.5520685588822617  0.030685656165921688  1.0000
  C   C58       1.0  0.5555585818620301  0.5624538397848511  0.081277815043066  1.0000
  C   C59       1.0  0.36158856556826185  0.12875563545097893  0.4195798122210307  1.0000
  C   C60       1.0  0.38362449422258754  0.0790854456199739  0.403388475781604  1.0000
  N   N1        1.0  0.6409962482366965  0.22842489839609206  0.41488580431256855  1.0000
  N   N2        1.0  0.6390003328427483  0.2382531100846847  0.35678837867747154  1.0000
  N   N3        1.0  0.6820438849016881  0.3816031144901829  0.2752023340980471  1.0000
  N   N4        1.0  0.6906733618571224  0.4261987591067823  0.30310216044157573  1.0000
  N   N5        1.0  0.7432289862094238  0.38350438748347676  0.44867630177411405  1.0000
  N   N6        1.0  0.7383911016501017  0.32625637892859777  0.47415051587840656  1.0000
  N   N7        1.0  0.8778462986493026  0.7061689470445602  0.9281457999883641  1.0000
  N   N8        1.0  0.9128977469072694  0.7078324989715273  0.8766376032056514  1.0000
  N   N9        1.0  0.892709590127417  0.5925984629088249  0.7951664123319518  1.0000
  N   N10       1.0  0.8379327599721764  0.5604737681439076  0.8077330059164396  1.0000
  N   N11       1.0  0.72389688838004  0.5764085796453602  0.9307366178268026  1.0000
  N   N12       1.0  0.7365068911739172  0.6125473334017428  0.967148866751451  1.0000
  N   N13       1.0  0.4121391491912832  0.8058244249285168  0.08131541129004209  1.0000
  N   N14       1.0  0.4451999917040653  0.8115098112492093  0.1269046724973393  1.0000
  N   N15       1.0  0.3863137198000075  0.9268565406143451  0.2052452424535646  1.0000
  N   N16       1.0  0.32519316004783155  0.9504397513164095  0.19824177333871515  1.0000
  N   N17       1.0  0.23388426864781314  0.9260925386417614  0.08002028945784183  1.0000
  N   N18       1.0  0.2577245170266594  0.8837896707814323  0.05093597256681904  1.0000
  N   N19       1.0  0.1109377194511723  0.2639832520620332  0.5825085622463462  1.0000
  N   N20       1.0  0.08837559056829043  0.24737752826291637  0.6385614723555334  1.0000
  N   N21       1.0  0.1175414402790835  0.09642624979194642  0.7094367340403167  1.0000
  N   N22       1.0  0.15253412810506722  0.059118196380694606  0.6798983417321978  1.0000
  N   N23       1.0  0.23980666453828556  0.1148373503309656  0.5413145572103417  1.0000
  N   N24       1.0  0.23294392068122963  0.17245752926391592  0.5178413853842799  1.0000
  N   N25       1.0  0.05730477358359562  0.9057934874819011  0.8997532498540438  1.0000
  N   N26       1.0  0.4362808490645521  0.07531720286751661  0.3630934784491232  1.0000
  N   N27       1.0  0.8937197097374252  0.43153732237756515  0.628731436966561  1.0000
  N   N28       1.0  0.5863014019014515  0.5929230091557969  0.11733027193971418  1.0000
