data_image0
_chemical_formula_structural       Gd4H12C16O36
_chemical_formula_sum              "Gd4 H12 C16 O36"
_cell_length_a       10.728074349946517
_cell_length_b       9.947235600404747
_cell_length_c       12.1990761954119
_cell_angle_alpha    89.99446123183729
_cell_angle_beta     107.75085277729625
_cell_angle_gamma    90.00299286347312

_space_group_name_H-M_alt    "P 1"
_space_group_IT_number       1

loop_
  _space_group_symop_operation_xyz
  'x, y, z'

loop_
  _atom_site_type_symbol
  _atom_site_label
  _atom_site_symmetry_multiplicity
  _atom_site_fract_x
  _atom_site_fract_y
  _atom_site_fract_z
  _atom_site_occupancy
  Gd  Gd1       1.0  0.20463263629544307  0.5719882844508176  0.3851277731842515  1.0000
  Gd  Gd2       1.0  0.29531275452033867  0.07203238267231879  0.11479596676644375  1.0000
  Gd  Gd3       1.0  0.7952305566452791  0.4280112032452692  0.6148018955892096  1.0000
  Gd  Gd4       1.0  0.7048147322692698  0.9279811700324528  0.8852848840915752  1.0000
  H   H1        1.0  0.0918900607416191  0.7586726299233886  0.16143680441692954  1.0000
  H   H2        1.0  0.407969416337032  0.2587311604028954  0.33854871394486  1.0000
  H   H3        1.0  0.9081294343834044  0.24131580079713189  0.8385263655713114  1.0000
  H   H4        1.0  0.5920268089010746  0.7412291128825216  0.6614805756254254  1.0000
  H   H5        1.0  0.1281308268124874  0.5517609253526314  0.11390022265754846  1.0000
  H   H6        1.0  0.371600576970927  0.0517922107940052  0.38601541353174434  1.0000
  H   H7        1.0  0.8719365392449632  0.44822448865837555  0.8860831452686353  1.0000
  H   H8        1.0  0.6283744296240741  0.9481529811868011  0.6140220013990711  1.0000
  H   H9        1.0  0.9810420004940423  0.6658241851398329  0.18210755873324286  1.0000
  H   H10       1.0  0.5188298274064849  0.16583235313704844  0.3179831500395664  1.0000
  H   H11       1.0  0.01891834111272319  0.3342044639725684  0.8177879326913879  1.0000
  H   H12       1.0  0.4812353812473587  0.8341620918715901  0.6821363340340695  1.0000
  C   C1        1.0  0.2871965464660917  0.8795027667433997  0.39314423233295753  1.0000
  C   C2        1.0  0.21261645467452436  0.3795289654670738  0.10677463787055068  1.0000
  C   C3        1.0  0.7127301163235416  0.1204645481647333  0.6068284727717382  1.0000
  C   C4        1.0  0.7874710541746308  0.6204594590329363  0.8932587925835376  1.0000
  C   C5        1.0  0.34544134151695255  0.8186076263887045  0.30168397040887374  1.0000
  C   C6        1.0  0.15443865041548582  0.31856411805507173  0.19826086682932945  1.0000
  C   C7        1.0  0.6545569997785421  0.18135666914427867  0.6983375137481855  1.0000
  C   C8        1.0  0.845572465164409  0.6814303414813948  0.8017244935886791  1.0000
  C   C9        1.0  0.9468782181349056  0.5396794254375193  0.4528340380106925  1.0000
  C   C10       1.0  0.5530799188262988  0.03975931991622868  0.04712390037206396  1.0000
  C   C11       1.0  0.052961563592028  0.46036228358501313  0.5471008533530436  1.0000
  C   C12       1.0  0.4470506667962368  0.9603055067719877  0.9529295990255944  1.0000
  C   C13       1.0  0.5046664745068625  0.5598084165891137  0.541583914304965  1.0000
  C   C14       1.0  0.995328551227942  0.05977234099442799  0.9583558187220899  1.0000
  C   C15       1.0  0.4951813395083988  0.4401900592925114  0.4583945220897831  1.0000
  C   C16       1.0  0.004797577575026  0.9402432312684964  0.041651554945573786  1.0000
  O   O1        1.0  0.21242281876163097  0.8099346789624703  0.42935548417235475  1.0000
  O   O2        1.0  0.2874067467310724  0.310013186992542  0.07055623943121249  1.0000
  O   O3        1.0  0.7874510249803635  0.19004269345968078  0.5705656059727245  1.0000
  O   O4        1.0  0.7127371559243086  0.6899903118367233  0.9295360963039767  1.0000
  O   O5        1.0  0.3193266449755399  0.0022234606051157  0.4302047240218697  1.0000
  O   O6        1.0  0.18040802902616088  0.5022368199017038  0.06969635307544307  1.0000
  O   O7        1.0  0.6805799368471525  0.9977418417667319  0.5697779774944748  1.0000
  O   O8        1.0  0.8196859896826253  0.4977475862704494  0.9303153382904906  1.0000
  O   O9        1.0  0.342244274846017  0.6924264563760261  0.29570041921132156  1.0000
  O   O10       1.0  0.1576191688034783  0.19238171210896837  0.2041956895952523  1.0000
  O   O11       1.0  0.6577131073093626  0.3075398517440247  0.7042931912039021  1.0000
  O   O12       1.0  0.8424514317342754  0.8076187750572145  0.795840964241229  1.0000
  O   O13       1.0  0.3869274946797531  0.8994359314300694  0.24114321584736584  1.0000
  O   O14       1.0  0.11300182810344242  0.3993435207541437  0.2588622481446804  1.0000
  O   O15       1.0  0.6131488636245307  0.10053439193125507  0.7589332412419763  1.0000
  O   O16       1.0  0.8868858431276863  0.6006650196778834  0.7410336206186725  1.0000
  O   O17       1.0  0.9855777976266041  0.5997076650606701  0.3776626882019655  1.0000
  O   O18       1.0  0.5143356734017104  0.09983178927625148  0.12224327396471318  1.0000
  O   O19       1.0  0.01427044103188989  0.4003079077488536  0.6222607212562038  1.0000
  O   O20       1.0  0.4857956374858787  0.9002018708673984  0.8778276430035984  1.0000
  O   O21       1.0  0.8314697888335869  0.5371663531612682  0.4593270741758386  1.0000
  O   O22       1.0  0.6684875106189736  0.03730719331046829  0.040633145430632615  1.0000
  O   O23       1.0  0.1683729193260888  0.4628904354590586  0.5406083982884196  1.0000
  O   O24       1.0  0.3316386068463046  0.9627777401234422  0.9594137090031224  1.0000
  O   O25       1.0  0.40106995735570183  0.6207155847729807  0.5382592970600653  1.0000
  O   O26       1.0  0.0989527319707406  0.1205886069708413  0.9615870431821489  1.0000
  O   O27       1.0  0.5987908610727146  0.37930802345586295  0.461725011673458  1.0000
  O   O28       1.0  0.9011732226570713  0.879458125094487  0.038458133651346274  1.0000
  O   O29       1.0  0.6189814357815776  0.5892969614342433  0.6075369204667707  1.0000
  O   O30       1.0  0.8810160490368161  0.08930521522736257  0.8924356201853666  1.0000
  O   O31       1.0  0.3808805254913991  0.4106814103233702  0.3924295187395329  1.0000
  O   O32       1.0  0.11910894514268479  0.9106902523448778  0.10756001232483207  1.0000
  O   O33       1.0  0.07399426757554288  0.6668945089927403  0.1880019928179378  1.0000
  O   O34       1.0  0.4258454754129133  0.1669547683052741  0.3119665236942453  1.0000
  O   O35       1.0  0.9259759793771919  0.3330969401347231  0.8119267223144104  1.0000
  O   O36       1.0  0.5742071464711672  0.8330034903427613  0.6881118009676964  1.0000
