data_image0
_chemical_formula_structural       Co2H24C28N8O4
_chemical_formula_sum              "Co2 H24 C28 N8 O4"
_cell_length_a       4.694965199164125
_cell_length_b       8.457617955164519
_cell_length_c       18.533430972685636
_cell_angle_alpha    97.15451707670228
_cell_angle_beta     90.10744872405957
_cell_angle_gamma    106.05448963306475

_space_group_name_H-M_alt    "P 1"
_space_group_IT_number       1

loop_
  _space_group_symop_operation_xyz
  'x, y, z'

loop_
  _atom_site_type_symbol
  _atom_site_label
  _atom_site_symmetry_multiplicity
  _atom_site_fract_x
  _atom_site_fract_y
  _atom_site_fract_z
  _atom_site_occupancy
  Co  Co1       1.0  0.9566371521837735  0.0003269839589990006  0.7499084435157994  1.0000
  Co  Co2       1.0  0.04337551762188239  0.9996725529726902  0.2500913452090217  1.0000
  H   H1        1.0  0.506114160748517  0.672070669362263  0.7422997977246979  1.0000
  H   H2        1.0  0.8309432679715911  0.32830115778642016  0.7576685247976369  1.0000
  H   H3        1.0  0.4939037456022179  0.3279351008709099  0.2576987499905457  1.0000
  H   H4        1.0  0.16904989473694343  0.6716934493064671  0.24232934271410034  1.0000
  H   H5        1.0  0.0919687636607378  0.5012020192326928  0.6560370357659265  1.0000
  H   H6        1.0  0.5875809122110595  0.49846277226966856  0.8440748803305523  1.0000
  H   H7        1.0  0.9080155653162832  0.4987961655681019  0.3439691394314082  1.0000
  H   H8        1.0  0.4124007086501323  0.5015343098172809  0.15592367345399077  1.0000
  H   H9        1.0  0.3776244274067866  0.8645707238447929  0.508435724766251  1.0000
  H   H10       1.0  0.5166884529096408  0.1349315235077526  0.9914496084829236  1.0000
  H   H11       1.0  0.6223364985471705  0.13542754527965437  0.49156613320196385  1.0000
  H   H12       1.0  0.48336651329181995  0.8650716377363993  0.008555265613523495  1.0000
  H   H13       1.0  0.7716254686428174  0.025796281948814205  0.6023908099000151  1.0000
  H   H14       1.0  0.7491458514151504  0.9743679183043599  0.8973671363265439  1.0000
  H   H15       1.0  0.228352256292439  0.9742058143005966  0.3976053478684988  1.0000
  H   H16       1.0  0.2509036309054835  0.0256328113973368  0.10263489167262917  1.0000
  H   H17       1.0  0.9085508517505403  0.6529999390446052  0.4832147372292751  1.0000
  H   H18       1.0  0.2583929995370013  0.34637717417273006  0.017071696302672  1.0000
  H   H19       1.0  0.09142825832901028  0.34699207144116434  0.5167894450485164  1.0000
  H   H20       1.0  0.741636356079589  0.6536173848253315  0.9829283353892105  1.0000
  H   H21       1.0  0.7511877613269179  0.5234452872811348  0.5500555823522717  1.0000
  H   H22       1.0  0.22635882590024192  0.47486458733388315  0.9500201403457709  1.0000
  H   H23       1.0  0.24879445855232538  0.4765529668531132  0.4499468194437809  1.0000
  H   H24       1.0  0.7736583535557389  0.5251311566380255  0.04998319746565021  1.0000
  C   C1        1.0  0.4659736383381272  0.7111446036452094  0.6902563216069807  1.0000
  C   C2        1.0  0.7534426820087177  0.2891243829403934  0.8097339910629912  1.0000
  C   C3        1.0  0.5340227061627161  0.2888649145196567  0.3097413680908829  1.0000
  C   C4        1.0  0.24656201372335576  0.7108677196651955  0.190264807140494  1.0000
  C   C5        1.0  0.23850491081032033  0.6167872657023424  0.6419207098845021  1.0000
  C   C6        1.0  0.6204530188651846  0.38318729705409993  0.8581421562862059  1.0000
  C   C7        1.0  0.7614831593383826  0.3832184429360694  0.35808160397254335  1.0000
  C   C8        1.0  0.3795483020838547  0.6168023046755807  0.141857569221294  1.0000
  C   C9        1.0  0.19619967325472487  0.6717843336990014  0.5754926863620324  1.0000
  C   C10       1.0  0.5254082694486187  0.32802221383552427  0.9246082872721074  1.0000
  C   C11       1.0  0.8037868089390872  0.32821392923450093  0.42450917741376054  1.0000
  C   C12       1.0  0.47461496209135134  0.6719686039377066  0.07539259614561189  1.0000
  C   C13       1.0  0.3952479447978874  0.8197930731616195  0.5604292759483867  1.0000
  C   C14       1.0  0.5779938700072265  0.18004093657808798  0.9395129920993522  1.0000
  C   C15       1.0  0.6047361397846559  0.18020892322928012  0.4395722731538995  1.0000
  C   C16       1.0  0.42205277337960484  0.8199498263647202  0.060490591582919306  1.0000
  C   C17       1.0  0.6158942057176662  0.9085822129538388  0.6115014778388569  1.0000
  C   C18       1.0  0.7093697982856284  0.09147070956316843  0.8883271022567311  1.0000
  C   C19       1.0  0.3840820179616671  0.09142115416955222  0.38849313757533105  1.0000
  C   C20       1.0  0.29067878473839687  0.9085324728908761  0.11167669241144301  1.0000
  C   C21       1.0  0.9549043030945938  0.5731952835263668  0.5215127184657858  1.0000
  C   C22       1.0  0.38241649017552964  0.4262393137096866  0.9786143555031258  1.0000
  C   C23       1.0  0.04507571804663266  0.42679431353136016  0.4784875411902546  1.0000
  C   C24       1.0  0.6176094847754854  0.5737527247503139  0.0213876814691361  1.0000
  C   C25       1.0  0.16870007052718716  0.775200119508888  0.8426391271181045  1.0000
  C   C26       1.0  0.3924087446065983  0.22421834692435283  0.6569938202798864  1.0000
  C   C27       1.0  0.8312959972252402  0.22481310210423547  0.15735986535477045  1.0000
  C   C28       1.0  0.6075521250571472  0.7758012161033749  0.3429985321061935  1.0000
  N   N1        1.0  0.6497188200380111  0.856842634292491  0.6762032779076249  1.0000
  N   N2        1.0  0.7932463337558106  0.14354829750883624  0.8236509841393839  1.0000
  N   N3        1.0  0.35028021058759157  0.14315948629101882  0.3237912677359701  1.0000
  N   N4        1.0  0.20677876248746682  0.8564462625210467  0.17634904658456918  1.0000
  N   N5        1.0  0.0541881577658076  0.8491075111080523  0.8059622416110414  1.0000
  N   N6        1.0  0.20371917889288946  0.15127961190146522  0.693700117635579  1.0000
  N   N7        1.0  0.945839955695668  0.15088455632926676  0.1940381788806249  1.0000
  N   N8        1.0  0.7962718335401179  0.8487149268897909  0.3063015223095035  1.0000
  O   O1        1.0  0.2829523302753287  0.6986739543495588  0.8791739716142714  1.0000
  O   O2        1.0  0.5830851133761924  0.2996013563182204  0.6203018134712863  1.0000
  O   O3        1.0  0.7170535811404548  0.30132055133707797  0.120829288683133  1.0000
  O   O4        1.0  0.4168026416314846  0.7004381789782032  0.37968633166553184  1.0000
