data_image0
_chemical_formula_structural       CoH20C26N2O10
_chemical_formula_sum              "Co1 H20 C26 N2 O10"
_cell_length_a       6.6291164605654815
_cell_length_b       8.477766991392292
_cell_length_c       11.097800078127518
_cell_angle_alpha    91.00732460821311
_cell_angle_beta     104.66692091346837
_cell_angle_gamma    84.53019587154404

_space_group_name_H-M_alt    "P 1"
_space_group_IT_number       1

loop_
  _space_group_symop_operation_xyz
  'x, y, z'

loop_
  _atom_site_type_symbol
  _atom_site_label
  _atom_site_symmetry_multiplicity
  _atom_site_fract_x
  _atom_site_fract_y
  _atom_site_fract_z
  _atom_site_occupancy
  Co  Co1       1.0  0.49998641698971363  0.4999950061636438  0.9999996424058891  1.0000
  H   H1        1.0  0.8188404630471099  0.6160719635827476  0.01920800145789772  1.0000
  H   H2        1.0  0.18113766373976153  0.3839090252424668  0.9807892091504512  1.0000
  H   H3        1.0  0.8131220011948556  0.5646290592465275  0.16079236718884  1.0000
  H   H4        1.0  0.18684586763376398  0.43536850829237034  0.8392011980077144  1.0000
  H   H5        1.0  0.3667416165424485  0.5834348959025134  0.6925457598683025  1.0000
  H   H6        1.0  0.6332836289897088  0.4165741655758523  0.3074578314064595  1.0000
  H   H7        1.0  0.6393479335871318  0.8243154871508834  0.043989716478876104  1.0000
  H   H8        1.0  0.36061570853445346  0.17567578213256493  0.955989991591963  1.0000
  H   H9        1.0  0.5701742631025296  0.048041389746309386  0.1758404740777095  1.0000
  H   H10       1.0  0.4298170035613039  0.9519531995674626  0.8241419328735943  1.0000
  H   H11       1.0  0.07766116223714899  0.7983939854146624  0.2556290587301291  1.0000
  H   H12       1.0  0.9223424065280098  0.2016144600615775  0.744384944278245  1.0000
  H   H13       1.0  0.16838274923529892  0.584657853410519  0.1211803107510363  1.0000
  H   H14       1.0  0.8315949160558204  0.41534367780815257  0.8788302468652275  1.0000
  H   H15       1.0  0.2990086284087852  0.46125987735943136  0.38675227325916944  1.0000
  H   H16       1.0  0.7010205057305823  0.5387420476185056  0.613251675830746  1.0000
  H   H17       1.0  0.1802523008612127  0.0881775820974937  0.6092115815232049  1.0000
  H   H18       1.0  0.8197759151820422  0.9118268304325383  0.3907959157197993  1.0000
  H   H19       1.0  0.23005741790563414  0.8924933020976267  0.4483582192183206  1.0000
  H   H20       1.0  0.7699774659281288  0.10750870947124005  0.5516506652364725  1.0000
  C   C1        1.0  0.516374551593806  0.8223912300431447  0.09281526297844779  1.0000
  C   C2        1.0  0.4835965213704441  0.17760492775597916  0.9071721579360882  1.0000
  C   C3        1.0  0.47455326390515035  0.948656694125283  0.16669672295957133  1.0000
  C   C4        1.0  0.5254351551243701  0.051338146299030996  0.8332927790767499  1.0000
  C   C5        1.0  0.31926933186095857  0.9436178412771734  0.2318544978401818  1.0000
  C   C6        1.0  0.6807327860039363  0.0563830405204442  0.768144028100302  1.0000
  C   C7        1.0  0.2057737247820342  0.8098629727758037  0.21224953998579824  1.0000
  C   C8        1.0  0.7942255021520809  0.19014055532192486  0.7877569556913783  1.0000
  C   C9        1.0  0.25569424588929474  0.688281059745897  0.1367580409531186  1.0000
  C   C10       1.0  0.7442864902715342  0.31172024633927  0.8632463469973429  1.0000
  C   C11       1.0  0.2827278631695052  0.06584202688235759  0.32205968899288  1.0000
  C   C12       1.0  0.7172861824130405  0.9341588837805259  0.6779441833374945  1.0000
  C   C13       1.0  0.30212893773536104  0.2282797780311014  0.3055350640915293  1.0000
  C   C14       1.0  0.697883563341371  0.7717211470631964  0.694468705482592  1.0000
  C   C15       1.0  0.28168686856170666  0.33660385708304114  0.39888848972151447  1.0000
  C   C16       1.0  0.7183379600304607  0.6633935430577225  0.6011207023938211  1.0000
  C   C17       1.0  0.2363163680206668  0.2869426763279748  0.508027650324145  1.0000
  C   C18       1.0  0.7637085176336527  0.7130615428171863  0.4919723408088217  1.0000
  C   C19       1.0  0.21168127421677235  0.12680285812599829  0.5233099844220418  1.0000
  C   C20       1.0  0.7883469418264892  0.8732015544040336  0.4766975128209623  1.0000
  C   C21       1.0  0.23732318596191962  0.018040912083392896  0.432230062496295  1.0000
  C   C22       1.0  0.7626994317947932  0.9819624255201094  0.5677788999439102  1.0000
  C   C23       1.0  0.229492916776735  0.396734408550813  0.6128966661037651  1.0000
  C   C24       1.0  0.7705114801150686  0.6032703387900326  0.387112888716068  1.0000
  C   C25       1.0  0.32685051355974787  0.28932535638598716  0.1839699332660203  1.0000
  C   C26       1.0  0.673152184041861  0.7106743927594436  0.8160304688966846  1.0000
  N   N1        1.0  0.4132303580654053  0.6902118592743776  0.07968027642364461  1.0000
  N   N2        1.0  0.5867397682716629  0.3097833765746428  0.9203152931351609  1.0000
  O   O1        1.0  0.7927350997452295  0.5271507981592404  0.07272472881231809  1.0000
  O   O2        1.0  0.20723720889623104  0.47283509072484253  0.9272756709128059  1.0000
  O   O3        1.0  0.48855291647175386  0.362844469391291  0.1839298355589349  1.0000
  O   O4        1.0  0.5114363841104536  0.6371622805953622  0.8160622916535586  1.0000
  O   O5        1.0  0.1824580260912114  0.26626036926187163  0.0886122459803076  1.0000
  O   O6        1.0  0.8175332483253968  0.7337312030910468  0.911387511818795  1.0000
  O   O7        1.0  0.15961379020214392  0.358074115255981  0.701040048401893  1.0000
  O   O8        1.0  0.8403731652789546  0.6419547756853914  0.2989397715814732  1.0000
  O   O9        1.0  0.30962048559239014  0.5325377262138885  0.6060404664748802  1.0000
  O   O10       1.0  0.6904069993062975  0.46746880730393037  0.3939587539838172  1.0000
