data_image0
_chemical_formula_structural       Al2H15C30Cl3O12
_chemical_formula_sum              "Al2 H15 C30 Cl3 O12"
_cell_length_a       4.00312677000029
_cell_length_b       17.230607491837613
_cell_length_c       17.2305960958719
_cell_angle_alpha    120.00029492268882
_cell_angle_beta     90.00004012335135
_cell_angle_gamma    89.99997120387114

_space_group_name_H-M_alt    "P 1"
_space_group_IT_number       1

loop_
  _space_group_symop_operation_xyz
  'x, y, z'

loop_
  _atom_site_type_symbol
  _atom_site_label
  _atom_site_symmetry_multiplicity
  _atom_site_fract_x
  _atom_site_fract_y
  _atom_site_fract_z
  _atom_site_occupancy
  Al  Al1       1.0  0.9906008233914105  0.5000003049849228  0.5000006214533599  1.0000
  Al  Al2       1.0  0.9985479387722478  0.166668689386924  0.833333839376877  1.0000
  H   H1        1.0  0.5349750443061793  0.4181949621096166  0.8361025881094121  1.0000
  H   H2        1.0  0.2614012846397172  0.11374596363247487  0.5263009858419422  1.0000
  H   H3        1.0  0.7063484770557266  0.11218771338092634  0.5281645352291732  1.0000
  H   H4        1.0  0.7259579405352311  0.19976497227338544  0.44731243987193636  1.0000
  H   H5        1.0  0.28166773366123715  0.20118694652585137  0.44470881441265664  1.0000
  H   H6        1.0  0.5349691542817894  0.9179085467763387  0.5818041261203531  1.0000
  H   H7        1.0  0.26139593942508554  0.912557934857702  0.8862531854505133  1.0000
  H   H8        1.0  0.7063406280246766  0.9159804428604729  0.8878113965024494  1.0000
  H   H9        1.0  0.7259628466819733  0.7475501571373897  0.8002332864592531  1.0000
  H   H10       1.0  0.2816701492649115  0.7435226818326868  0.7988099472856616  1.0000
  H   H11       1.0  0.5349642623780965  0.1638961182234056  0.08209171921207307  1.0000
  H   H12       1.0  0.2613927863602186  0.4736950755274237  0.08744486970610411  1.0000
  H   H13       1.0  0.7063424697010917  0.471832465401711  0.08402153570021652  1.0000
  H   H14       1.0  0.7259622837919081  0.552685155937695  0.25245208066099417  1.0000
  H   H15       1.0  0.28166459085134216  0.555289099102211  0.2564793684999671  1.0000
  C   C1        1.0  0.49338687529854036  0.4284474077152751  0.36293299058046097  1.0000
  C   C2        1.0  0.4933796686100465  0.43448337030921624  0.5715522583571724  1.0000
  C   C3        1.0  0.493381940997743  0.6370684268265663  0.5655147605725118  1.0000
  C   C4        1.0  0.4991356559081692  0.23742501356402096  0.7668117423856059  1.0000
  C   C5        1.0  0.49914086903287114  0.029388256287312193  0.7625765184170347  1.0000
  C   C6        1.0  0.4991484378184055  0.23318950276122768  0.9706118268289073  1.0000
  C   C7        1.0  0.5009441186674479  0.2873311837061223  0.7171364918646573  1.0000
  C   C8        1.0  0.5012561359976571  0.38628312927464503  0.6230815415828133  1.0000
  C   C9        1.0  0.48811406232287863  0.2446964111480412  0.6240585923138154  1.0000
  C   C10       1.0  0.5089277260889062  0.4293820237330692  0.7175141846046457  1.0000
  C   C11       1.0  0.49928521465231057  0.2930256598399906  0.579080312140867  1.0000
  C   C12       1.0  0.5183779548712835  0.3813862895608508  0.7632361097992939  1.0000
  C   C13       1.0  0.4868400338419291  0.1545013718990872  0.5381464058570841  1.0000
  C   C14       1.0  0.49918275465946477  0.2093885422918547  0.48701877285966316  1.0000
  C   C15       1.0  0.5009434236940464  0.9298067777656841  0.7126677277622732  1.0000
  C   C16       1.0  0.5012557470800374  0.7368009945510606  0.6137172918858481  1.0000
  C   C17       1.0  0.4881185630172311  0.8793639460165323  0.7553012239787406  1.0000
  C   C18       1.0  0.5089296326232072  0.7881311886910183  0.5706154558924863  1.0000
  C   C19       1.0  0.4992823683066661  0.7860572632156321  0.7069732509147569  1.0000
  C   C20       1.0  0.5183822107511418  0.8818513418644613  0.6186123711175852  1.0000
  C   C21       1.0  0.48683718723957253  0.8836480545161578  0.8454971722303525  1.0000
  C   C22       1.0  0.49918257328248217  0.7776325992464381  0.7906110062322255  1.0000
  C   C23       1.0  0.5009482080776664  0.2828613326864229  0.07019454110317717  1.0000
  C   C24       1.0  0.5012556390008455  0.376918496989788  0.2632012435774982  1.0000
  C   C25       1.0  0.4881207065160069  0.37593869249984385  0.12063802606505189  1.0000
  C   C26       1.0  0.5089271711459843  0.2824866616018014  0.21186970242480638  1.0000
  C   C27       1.0  0.49928206507507145  0.4209186269308844  0.213944102298079  1.0000
  C   C28       1.0  0.5183796990834894  0.23676340274191432  0.11815202489842852  1.0000
  C   C29       1.0  0.48683661208047363  0.4618508738379674  0.11635417419821438  1.0000
  C   C30       1.0  0.49918455442020354  0.5129796485321307  0.2223698068937878  1.0000
  Cl  Cl1       1.0  0.5234063726938131  0.5453583296400666  0.7805410961258231  1.0000
  Cl  Cl2       1.0  0.523430690532507  0.7351819799870543  0.4546411577705243  1.0000
  Cl  Cl3       1.0  0.523420983710764  0.21946038915410782  0.2648185881442089  1.0000
  O   O1        1.0  0.7249185187832623  0.5985915710432651  0.5846039817600754  1.0000
  O   O2        1.0  0.7249208794031359  0.48601482795201173  0.401411396296801  1.0000
  O   O3        1.0  0.7249236117528637  0.4153964531723346  0.5139856655971896  1.0000
  O   O4        1.0  0.2538041828498976  0.5978949291391943  0.5113956626518785  1.0000
  O   O5        1.0  0.2538019077652578  0.4886053064108893  0.5864995656708698  1.0000
  O   O6        1.0  0.2538117206666541  0.41350289127588263  0.4021066229875243  1.0000
  O   O7        1.0  0.7323036863643678  0.1765378763626941  0.9305281773293855  1.0000
  O   O8        1.0  0.7323009544495986  0.25398888622318333  0.8234610005585593  1.0000
  O   O9        1.0  0.732301043113459  0.06947208845173952  0.7460090664754729  1.0000
  O   O10       1.0  0.26339265295676023  0.2514212773855178  0.9324328440436814  1.0000
  O   O11       1.0  0.26338769410530455  0.06756974110789568  0.8189899448956763  1.0000
  O   O12       1.0  0.26338497525460264  0.1810114337419576  0.7485775798289322  1.0000
