data_image0
_chemical_formula_structural       Zn5H34C56N4O18
_chemical_formula_sum              "Zn5 H34 C56 N4 O18"
_cell_length_a       11.251487333999544
_cell_length_b       11.367778484133947
_cell_length_c       12.34691185337232
_cell_angle_alpha    95.44416780051316
_cell_angle_beta     104.60478317481271
_cell_angle_gamma    118.79327534290208

_space_group_name_H-M_alt    "P 1"
_space_group_IT_number       1

loop_
  _space_group_symop_operation_xyz
  'x, y, z'

loop_
  _atom_site_type_symbol
  _atom_site_label
  _atom_site_symmetry_multiplicity
  _atom_site_fract_x
  _atom_site_fract_y
  _atom_site_fract_z
  _atom_site_occupancy
  Zn  Zn1       1.0  0.19303336087034487  0.2189810701057979  0.2663906110368899  1.0000
  Zn  Zn2       1.0  0.8069675316843926  0.7810189887750029  0.7336111356466546  1.0000
  Zn  Zn3       1.0  5.569871675000001e-07  1.0380601977999997e-06  2.1448740740000006e-07  1.0000
  Zn  Zn4       1.0  0.15670974349016828  0.9722908805716626  0.8052502102468821  1.0000
  Zn  Zn5       1.0  0.843290544644631  0.0277081237645476  0.19474888012339872  1.0000
  H   H1        1.0  0.36269492283756244  0.8608497798095842  0.8904443826089833  1.0000
  H   H2        1.0  0.6373055552947448  0.1391512902622836  0.1095549348602418  1.0000
  H   H3        1.0  0.6143655642255297  0.9270529875234388  0.893982596468817  1.0000
  H   H4        1.0  0.3856353125182821  0.07294706586256441  0.10601833627277564  1.0000
  H   H5        1.0  0.7501205256441139  0.1291354263665738  0.8189797521597981  1.0000
  H   H6        1.0  0.24987828152669783  0.8708625295247074  0.1810189218472118  1.0000
  H   H7        1.0  0.7585888429449453  0.32515246847224694  0.7327502014413342  1.0000
  H   H8        1.0  0.24141141356799525  0.6748465248743614  0.26724726104504276  1.0000
  H   H9        1.0  0.6397007729848169  0.4502956468330622  0.6600354794797454  1.0000
  H   H10       1.0  0.36030212589922433  0.5497064875632632  0.3399652701705733  1.0000
  H   H11       1.0  0.42490423766725643  0.4800432027172548  0.6266025360009027  1.0000
  H   H12       1.0  0.5750959525300204  0.519958922504067  0.37340086378963383  1.0000
  H   H13       1.0  0.17891379090034581  0.3950515172360411  0.640640712904002  1.0000
  H   H14       1.0  0.8210815577934696  0.6049484793363646  0.3593598225243539  1.0000
  H   H15       1.0  0.061401055569824295  0.1824057387038849  0.7094501965029494  1.0000
  H   H16       1.0  0.9386023714850966  0.8175922691110528  0.2905494868833927  1.0000
  H   H17       1.0  0.7910024305959027  0.26601229202081106  0.38701582388208783  1.0000
  H   H18       1.0  0.2090010410862321  0.7339908859305099  0.6129859541975906  1.0000
  H   H19       1.0  0.7543553828056987  0.4375220797043512  0.4971181309849015  1.0000
  H   H20       1.0  0.2456479146898475  0.5624790380061031  0.5028842339377846  1.0000
  H   H21       1.0  0.3112259887806061  0.5207557118835666  0.05398295136899379  1.0000
  H   H22       1.0  0.688774489351701  0.4792453581882939  0.9460163661002314  1.0000
  H   H23       1.0  0.489739495494959  0.7128317068204879  0.9919963614558256  1.0000
  H   H24       1.0  0.5102552804007701  0.2871672461969225  0.008003145543163694  1.0000
  H   H25       1.0  0.5775342096040107  0.2049082075502895  0.41736832578963867  1.0000
  H   H26       1.0  0.4224643096317778  0.7950908034904458  0.5826344305386826  1.0000
  H   H27       1.0  0.7595881494393735  0.149893770855634  0.5251097284580837  1.0000
  H   H28       1.0  0.24041183494946952  0.8501062831352327  0.4748926302915493  1.0000
  H   H29       1.0  0.09700224850264769  0.5791774271153259  0.8433156783093595  1.0000
  H   H30       1.0  0.9029952518907648  0.4208215405718789  0.15668199249137157  1.0000
  H   H31       1.0  0.0402170781982036  0.34612715307961384  0.8771084193624289  1.0000
  H   H32       1.0  0.9597798652080342  0.6538707765474001  0.12288903695089458  1.0000
  H   H33       1.0  0.0507106063768888  0.9799135420245123  0.21314409019385042  1.0000
  H   H34       1.0  0.9492884066023636  0.0200864850972238  0.7868556248540629  1.0000
  C   C1        1.0  0.4275466203054774  0.9485186692891927  0.859227745794229  1.0000
  C   C2        1.0  0.5724523610519158  0.05148134684294091  0.14077034136977323  1.0000
  C   C3        1.0  0.5665634598527235  0.9856615651840388  0.8605576106775176  1.0000
  C   C4        1.0  0.43343684409300204  0.014337444646962199  0.13944229363471547  1.0000
  C   C5        1.0  0.642669186056608  0.0987665105842979  0.8199948268530763  1.0000
  C   C6        1.0  0.357330545091024  0.9012314556917076  0.1800040490297974  1.0000
  C   C7        1.0  0.5795259025707651  0.17391342708167198  0.7772914654425309  1.0000
  C   C8        1.0  0.42047320834600294  0.8260834791549456  0.22270394018512724  1.0000
  C   C9        1.0  0.650072731837497  0.2913438238111468  0.7328914535432889  1.0000
  C   C10       1.0  0.34992718930764977  0.7086562082005232  0.2671076494385289  1.0000
  C   C11       1.0  0.5838074805179191  0.36003626450092  0.6921444040692677  1.0000
  C   C12       1.0  0.41619186782913425  0.6399627239557546  0.3078536704831977  1.0000
  C   C13       1.0  0.44203953428795734  0.3172857321449882  0.69350925024402  1.0000
  C   C14       1.0  0.5579596714943661  0.6827112070604214  0.3064910390353575  1.0000
  C   C15       1.0  0.3712013936515746  0.38850884597471247  0.6582024053809479  1.0000
  C   C16       1.0  0.6287998500818973  0.6114901797358243  0.34179851474910095  1.0000
  C   C17       1.0  0.23609423512610306  0.34203208319009076  0.6660340447068408  1.0000
  C   C18       1.0  0.7639046194774863  0.6579658891855827  0.33396707112603247  1.0000
  C   C19       1.0  0.17009169875381505  0.22347457530617024  0.7067824796557505  1.0000
  C   C20       1.0  0.8299096875443865  0.776526499655624  0.2932162257473934  1.0000
  C   C21       1.0  0.36857345182639994  0.200729075622597  0.736191422672654  1.0000
  C   C22       1.0  0.6314250199766037  0.7992699189337457  0.2638088918298038  1.0000
  C   C23       1.0  0.4385561388658488  0.12838507956507778  0.7787534192529225  1.0000
  C   C24       1.0  0.561442636683111  0.8716128653366012  0.22124362687017649  1.0000
  C   C25       1.0  0.881454396252181  0.3687864755782186  0.43737067945826175  1.0000
  C   C26       1.0  0.1185490912408725  0.6312167078678926  0.5626319125633688  1.0000
  C   C27       1.0  0.8613264364914385  0.46350932509251647  0.4977429708651612  1.0000
  C   C28       1.0  0.1386746460608066  0.5364927995239412  0.5022590029173344  1.0000
  C   C29       1.0  0.020058659470109354  0.40425381333664495  0.4398422786726712  1.0000
  C   C30       1.0  0.979943362869882  0.5957483271593418  0.5601607109276473  1.0000
  C   C31       1.0  0.039466868778944834  0.29823270452723694  0.37842210679678356  1.0000
  C   C32       1.0  0.9605369857037687  0.7017694512434218  0.6215804726133102  1.0000
  C   C33       1.0  0.39386631265654154  0.5123526653126474  0.0296637879933215  1.0000
  C   C34       1.0  0.6061330486958739  0.48765148229080074  0.9703347533685758  1.0000
  C   C35       1.0  0.3995561337647331  0.392335536913798  0.033912587933222875  1.0000
  C   C36       1.0  0.6004441673754286  0.6076686265691862  0.9660869692464902  1.0000
  C   C37       1.0  0.4938367639118511  0.6193722808918879  0.9958572250775717  1.0000
  C   C38       1.0  0.506162008831545  0.3806308176617677  0.00413947391301407  1.0000
  C   C39       1.0  0.29783524688370727  0.2823007488302594  0.07789573910446988  1.0000
  C   C40       1.0  0.7021636207252442  0.7177023826921953  0.9221058435378282  1.0000
  C   C41       1.0  0.5452595793147594  0.11582370526374318  0.45446746911317615  1.0000
  C   C42       1.0  0.4547394522809754  0.8841711737008143  0.5455334070092023  1.0000
  C   C43       1.0  0.3992269619025705  0.030649256107132296  0.4405650654564043  1.0000
  C   C44       1.0  0.6007731678565733  0.9693476934830157  0.5594354256988368  1.0000
  C   C45       1.0  0.645459653752134  0.0852078087309707  0.5133089445412368  1.0000
  C   C46       1.0  0.3545398052713936  0.9147912181893006  0.4866948276049002  1.0000
  C   C47       1.0  0.28873253439502383  0.05675019628908021  0.37079967305763273  1.0000
  C   C48       1.0  0.7112690735225372  0.9432529553979734  0.6292008873283663  1.0000
  C   C49       1.0  0.05492719426994341  0.5439212774025036  0.9120644683182492  1.0000
  C   C50       1.0  0.9450701161259544  0.4560756245490509  0.08793297538353777  1.0000
  C   C51       1.0  0.03201791876101376  0.6306774282922589  0.981353125877135  1.0000
  C   C52       1.0  0.96798235356286  0.3693215705491469  0.01864515055119396  1.0000
  C   C53       1.0  0.02317021418559757  0.41456628655974725  0.9305664708402335  1.0000
  C   C54       1.0  0.9768285771742882  0.5854316638367294  0.06943138922482453  1.0000
  C   C55       1.0  0.0646984029295369  0.77026827194981  0.9615084621601824  1.0000
  C   C56       1.0  0.9353042901460712  0.2297317912160537  0.03849124644924025  1.0000
  N   N1        1.0  0.36621937449204006  0.0187826549564889  0.8206720111613637  1.0000
  N   N2        1.0  0.633779385246001  0.9812152844503926  0.1793242210197832  1.0000
  N   N3        1.0  0.2348244813780127  0.154901464927768  0.741288249219764  1.0000
  N   N4        1.0  0.7651734018159786  0.8450964805787747  0.25871022291138257  1.0000
  O   O1        1.0  0.9386162858668853  0.17244356257605628  0.3525663795684083  1.0000
  O   O2        1.0  0.061385306239749554  0.8275595836161995  0.6474333668756316  1.0000
  O   O3        1.0  0.1584477390618773  0.3436662636406992  0.3582827925676426  1.0000
  O   O4        1.0  0.8415561154208361  0.6563358921299526  0.641719786842451  1.0000
  O   O5        1.0  0.27783075707331056  0.3310711957275672  0.1653645815195759  1.0000
  O   O6        1.0  0.7221703542952228  0.6689360935304622  0.834638673014311  1.0000
  O   O7        1.0  0.24232784546308747  0.15491523517935948  0.03159865234125899  1.0000
  O   O8        1.0  0.7576725979754073  0.8450889777568236  0.9684082303160366  1.0000
  O   O9        1.0  0.3341455461635903  0.18320269069276657  0.3636841145134825  1.0000
  O   O10       1.0  0.6658538812380854  0.8167963252379026  0.6363180297487433  1.0000
  O   O11       1.0  0.16149308045618954  0.9547555002319826  0.32167735744962306  1.0000
  O   O12       1.0  0.838505758336467  0.0452424666489009  0.678322944441291  1.0000
  O   O13       1.0  0.1252097126272815  0.8105927838394109  0.8865886825302312  1.0000
  O   O14       1.0  0.8747890945435303  0.18940517205186316  0.11340999147677883  1.0000
  O   O15       1.0  0.03019451219984865  0.8372320896382703  0.02239265968840696  1.0000
  O   O16       1.0  0.9698057601240178  0.16276690920313538  0.9776056167399219  1.0000
  O   O17       1.0  0.018765113762782407  0.036729130808645004  0.1719148404214437  1.0000
  O   O18       1.0  0.9812357471701033  0.9632709170825536  0.8280852783781967  1.0000
