data_image0
_chemical_formula_structural       Cu4P4H16C26S4Br4N2O12
_chemical_formula_sum              "Cu4 P4 H16 C26 S4 Br4 N2 O12"
_cell_length_a       4.745271470159033
_cell_length_b       14.369280633188893
_cell_length_c       17.446032090958884
_cell_angle_alpha    70.03618513268067
_cell_angle_beta     89.90430879180468
_cell_angle_gamma    87.1874091198597

_space_group_name_H-M_alt    "P 1"
_space_group_IT_number       1

loop_
  _space_group_symop_operation_xyz
  'x, y, z'

loop_
  _atom_site_type_symbol
  _atom_site_label
  _atom_site_symmetry_multiplicity
  _atom_site_fract_x
  _atom_site_fract_y
  _atom_site_fract_z
  _atom_site_occupancy
  Cu  Cu1       1.0  0.3456194038465839  0.41549279832557323  0.2255796881680538  1.0000
  Cu  Cu2       1.0  0.654371708897756  0.5845077671708412  0.7744194238099453  1.0000
  Cu  Cu3       1.0  0.24222470056353276  0.47747871059189606  0.05285302348276842  1.0000
  Cu  Cu4       1.0  0.7577686746489576  0.5225211146049348  0.9471468568226059  1.0000
  P   P1        1.0  0.7267616922442102  0.5776367502741665  0.11197848144884397  1.0000
  P   P2        1.0  0.273233092562279  0.42236750207167983  0.8880224737145211  1.0000
  P   P3        1.0  0.8607602810785338  0.32055070889881426  0.1628451809574472  1.0000
  P   P4        1.0  0.1392312284524095  0.6794476326149737  0.8371545391549446  1.0000
  H   H1        1.0  0.34492493044840694  0.7274853853943599  0.9876260584124311  1.0000
  H   H2        1.0  0.6550716957192009  0.27252035791592283  0.012374481773640911  1.0000
  H   H3        1.0  0.6310785020571501  0.926317198362199  0.12540853770633473  1.0000
  H   H4        1.0  0.36895938559614905  0.073681311394644  0.8745921225504105  1.0000
  H   H5        1.0  0.8309658725263204  0.94662214895218  0.2890027214406246  1.0000
  H   H6        1.0  0.16905241450659503  0.05338069029730972  0.7110002595584106  1.0000
  H   H7        1.0  0.17998402261750357  0.19592223783254786  0.07587976492664689  1.0000
  H   H8        1.0  0.8200143822596646  0.8040731487363502  0.9241218877090346  1.0000
  H   H9        1.0  0.484877861201177  0.5643608782669389  0.29954068983503396  1.0000
  H   H10       1.0  0.5151268020316309  0.43563525271337517  0.7004624569369186  1.0000
  H   H11       1.0  0.3416141996972684  0.6073359591637413  0.420920386165804  1.0000
  H   H12       1.0  0.6583927746445255  0.3926594169541957  0.5790846792740824  1.0000
  H   H13       1.0  0.7875948517730862  0.36199772097796057  0.4812407232656711  1.0000
  H   H14       1.0  0.21237628488443513  0.6380079881526158  0.5187547550403337  1.0000
  H   H15       1.0  0.9507653396861927  0.33313421888093603  0.3555051867385401  1.0000
  H   H16       1.0  0.04921008170364866  0.6668714850241672  0.6444919979695598  1.0000
  C   C1        1.0  0.6384946294552449  0.7071976399759023  0.09088274297000257  1.0000
  C   C2        1.0  0.3615134626354788  0.2928022506678191  0.9091164952844792  1.0000
  C   C3        1.0  0.4494015059413031  0.7575345924188995  0.028679603414126096  1.0000
  C   C4        1.0  0.5506049743321952  0.24246303680725137  0.9713225532102427  1.0000
  C   C5        1.0  0.6009584509628709  0.8649391076606109  0.10402189264661395  1.0000
  C   C6        1.0  0.39907553808463087  0.13505788825963802  0.8959803424823676  1.0000
  C   C7        1.0  0.7204346358031087  0.7704270327009156  0.1341280715857138  1.0000
  C   C8        1.0  0.2795842608997177  0.22957071191395784  0.8658688511798759  1.0000
  C   C9        1.0  0.9042772305152909  0.1899913017922827  0.17935205133629492  1.0000
  C   C10       1.0  0.0957204507496812  0.8100071083379632  0.8206441890912828  1.0000
  C   C11       1.0  0.7986935629904935  0.11074904440712172  0.24620099469313322  1.0000
  C   C12       1.0  0.20130736887922746  0.8892441192071062  0.7538018316928402  1.0000
  C   C13       1.0  0.8827018655593618  0.018017181947804804  0.2458887592626269  1.0000
  C   C14       1.0  0.11730272771242056  0.9819803734364074  0.7541185834486583  1.0000
  C   C15       1.0  0.06895104466228467  0.15316364268821311  0.12996334819175806  1.0000
  C   C16       1.0  0.9310461455346442  0.8468384231099578  0.870035904870484  1.0000
  C   C17       1.0  0.33090804181202327  0.5222848664209182  0.3422591298000128  1.0000
  C   C18       1.0  0.6690876931503027  0.47771418935074195  0.6577438195138612  1.0000
  C   C19       1.0  0.24786852259924783  0.5449768174224588  0.410515402075383  1.0000
  C   C20       1.0  0.7521315184155669  0.45502082328260945  0.5894839073606944  1.0000
  C   C21       1.0  0.047825422380327595  0.4887219236745964  0.4636099928287934  1.0000
  C   C22       1.0  0.9521587843576996  0.5112823016872525  0.5363898597658762  1.0000
  C   C23       1.0  0.9423515911037941  0.4099951740582526  0.44365201306652596  1.0000
  C   C24       1.0  0.057623889586977776  0.5900098103635046  0.5563436488421871  1.0000
  C   C25       1.0  0.032804688747809514  0.3918112508409878  0.37418051197858665  1.0000
  C   C26       1.0  0.9671705410788999  0.6081959138750008  0.6258179928174386  1.0000
  S   S1        1.0  0.37962797553238653  0.8776924002199069  0.02298382821096817  1.0000
  S   S2        1.0  0.620383597057355  0.12231263808413931  0.9770185733167978  1.0000
  S   S3        1.0  0.0941972323364979  0.026381515263445003  0.1640665775947099  1.0000
  S   S4        1.0  0.9058198503258835  0.9736161336653028  0.8359372567686452  1.0000
  Br  Br1       1.0  0.9623174617530738  0.7284291008189924  0.22729355477562058  1.0000
  Br  Br2       1.0  0.0377316729395289  0.2715636218038711  0.7727006270169952  1.0000
  Br  Br3       1.0  0.5689526119110297  0.12900353127684383  0.3292856112302545  1.0000
  Br  Br4       1.0  0.4310430014491829  0.870995560901804  0.6707144622322049  1.0000
  N   N1        1.0  0.224629320668349  0.4470274569284315  0.3241901811453971  1.0000
  N   N2        1.0  0.7753611794058273  0.5529768006428883  0.6758090676158659  1.0000
  O   O1        1.0  0.04745973602707919  0.5590887533817509  0.10962534387640227  1.0000
  O   O2        1.0  0.9525426267568166  0.44090742754039525  0.8903732110876631  1.0000
  O   O3        1.0  0.5778966470654296  0.5558885928519857  0.04013287393280512  1.0000
  O   O4        1.0  0.4220844273193407  0.44410827542972003  0.9598632731823998  1.0000
  O   O5        1.0  0.6050603481035353  0.5229917884817966  0.19592361751016088  1.0000
  O   O6        1.0  0.3949271305594093  0.4770057805229372  0.8040774747629981  1.0000
  O   O7        1.0  0.9818707571756278  0.37290115354945635  0.0775033066309234  1.0000
  O   O8        1.0  0.018120992559296667  0.6270957125906451  0.922496243734102  1.0000
  O   O9        1.0  0.01325446898730577  0.3383494950245592  0.23397892618312705  1.0000
  O   O10       1.0  0.9867392543709385  0.6616481207524388  0.7660204119160667  1.0000
  O   O11       1.0  0.5393685581353225  0.34369017487077275  0.16314669334943938  1.0000
  O   O12       1.0  0.460628715682958  0.6563111641626521  0.8368516120836987  1.0000
