data_image0
_chemical_formula_structural       Ag4H36C48N8O20
_chemical_formula_sum              "Ag4 H36 C48 N8 O20"
_cell_length_a       8.421264126543804
_cell_length_b       11.861767979001552
_cell_length_c       12.692873099274005
_cell_angle_alpha    89.99999000234293
_cell_angle_beta     107.48758097138418
_cell_angle_gamma    89.99994788875591

_space_group_name_H-M_alt    "P 1"
_space_group_IT_number       1

loop_
  _space_group_symop_operation_xyz
  'x, y, z'

loop_
  _atom_site_type_symbol
  _atom_site_label
  _atom_site_symmetry_multiplicity
  _atom_site_fract_x
  _atom_site_fract_y
  _atom_site_fract_z
  _atom_site_occupancy
  Ag  Ag1       1.0  0.9070797636574142  0.8488596090315568  0.7201277913564397  1.0000
  Ag  Ag2       1.0  0.5929214754746751  0.34885924486494707  0.2798732571743869  1.0000
  Ag  Ag3       1.0  0.09292135851014649  0.15114014513617494  0.2798731584168621  1.0000
  Ag  Ag4       1.0  0.4070796466928854  0.6511405093027849  0.7201276925989221  1.0000
  H   H1        1.0  0.7565719348489354  0.020151820617243705  0.7965071767508294  1.0000
  H   H2        1.0  0.7434273045091828  0.5201515439696678  0.20349273813297947  1.0000
  H   H3        1.0  0.2434279423060914  0.9798487765955601  0.20349352448798197  1.0000
  H   H4        1.0  0.2565713281337593  0.4798482101989878  0.7965069268276253  1.0000
  H   H5        1.0  0.9468868159759793  0.06034812367224871  0.8425149079115855  1.0000
  H   H6        1.0  0.553112363492467  0.5603479784634403  0.15748498848677178  1.0000
  H   H7        1.0  0.0531143066907802  0.939651630495554  0.157485254117617  1.0000
  H   H8        1.0  0.4468862691511005  0.43965093266056243  0.8425146764740248  1.0000
  H   H9        1.0  0.9223970488200167  0.8154412913769281  0.9650629792174854  1.0000
  H   H10       1.0  0.5776017505782748  0.3154409828973073  0.03493679986900132  1.0000
  H   H11       1.0  0.07760158332373382  0.18455846279164947  0.03493747348722561  1.0000
  H   H12       1.0  0.4223968815648504  0.6845596143159157  0.9650636528355108  1.0000
  H   H13       1.0  0.8706583152866756  0.6681243958894714  0.09194730434860786  1.0000
  H   H14       1.0  0.6293419496135186  0.16812389075396084  0.9080512155319127  1.0000
  H   H15       1.0  0.1293403178554584  0.33187535827926246  0.9080515728678904  1.0000
  H   H16       1.0  0.3706579280413251  0.8318758634142682  0.09194869796299092  1.0000
  H   H17       1.0  0.7790904763530406  0.47482609772470163  0.01447905307340145  1.0000
  H   H18       1.0  0.7209080855735479  0.9748256893822927  0.9855206527154294  1.0000
  H   H19       1.0  0.2209094013018102  0.5251736564435279  0.9855208604215022  1.0000
  H   H20       1.0  0.27909179158148595  0.025174907830511  0.014480048523381625  1.0000
  H   H21       1.0  0.854122991706923  0.6171083661081626  0.4271797706362008  1.0000
  H   H22       1.0  0.6458761036916841  0.11710875602936711  0.5728193119151044  1.0000
  H   H23       1.0  0.1458768864477449  0.3828905450154922  0.5728193551147882  1.0000
  H   H24       1.0  0.3541237739631669  0.882890998138862  0.4271806015797992  1.0000
  H   H25       1.0  0.5498764308731905  0.663165686900065  0.34754762091506564  1.0000
  H   H26       1.0  0.9501225954043164  0.1631658655596411  0.6524522281996072  1.0000
  H   H27       1.0  0.4501222017703768  0.3368332242239448  0.6524520440457238  1.0000
  H   H28       1.0  0.04987728175134269  0.8368338886085099  0.34754847303939584  1.0000
  H   H29       1.0  0.3703456441372949  0.6572399722889132  0.47294985233288866  1.0000
  H   H30       1.0  0.1296553524772293  0.15723953819385633  0.5270502081337938  1.0000
  H   H31       1.0  0.6296567235407409  0.34276062492310905  0.5270505582304211  1.0000
  H   H32       1.0  0.8703445246784299  0.8427602159743018  0.47295049310520926  1.0000
  H   H33       1.0  0.9075473394110815  0.42097988476838594  0.7294499672152952  1.0000
  H   H34       1.0  0.5924550382772081  0.9209796930257855  0.2705497211950032  1.0000
  H   H35       1.0  0.0924525387435864  0.579019026355269  0.2705491585356938  1.0000
  H   H36       1.0  0.40754732890289347  0.0790192180968745  0.7294514771127896  1.0000
  C   C1        1.0  0.8777842872218998  0.7316553163282009  0.935035903377383  1.0000
  C   C2        1.0  0.6222146375106163  0.23165497343929087  0.06496312649638718  1.0000
  C   C3        1.0  0.12221434541978479  0.26834612392975293  0.0649637615828311  1.0000
  C   C4        1.0  0.37778523964441035  0.7683456237735129  0.9350375747424238  1.0000
  C   C5        1.0  0.8508715286454844  0.648510133625834  0.005197372665627059  1.0000
  C   C6        1.0  0.6491262749542983  0.14851128558816382  0.994801446910202  1.0000
  C   C7        1.0  0.1491258579871655  0.35148962054309874  0.9948036192488843  1.0000
  C   C8        1.0  0.35087484870958713  0.8514901546690794  0.005197139630404005  1.0000
  C   C9        1.0  0.800082544945127  0.5421422744018118  0.9618776881415486  1.0000
  C   C10       1.0  0.6999166616495246  0.04214104333573231  0.03812221662953873  1.0000
  C   C11       1.0  0.1999160881969999  0.4578574797669148  0.03812118907494272  1.0000
  C   C12       1.0  0.30008570503076015  0.957858710831495  0.9618797694221684  1.0000
  C   C13       1.0  0.7745034003269781  0.5226822935912169  0.8493151044274329  1.0000
  C   C14       1.0  0.7254983257827803  0.022683554100844102  0.15068451861680643  1.0000
  C   C15       1.0  0.22549896735231556  0.4773166175315213  0.1506853061362605  1.0000
  C   C16       1.0  0.2745040418946232  0.977317886155831  0.8493158919463042  1.0000
  C   C17       1.0  0.7918362040654542  0.6130246447343526  0.7823293040906947  1.0000
  C   C18       1.0  0.7081641424294814  0.11302506086151003  0.2176700288729165  1.0000
  C   C19       1.0  0.20816491959968184  0.38697510943359975  0.21766928245029502  1.0000
  C   C20       1.0  0.2918357347261705  0.886974693306641  0.7823306723660935  1.0000
  C   C21       1.0  0.7287627128698374  0.4070663267053831  0.8032941773076274  1.0000
  C   C22       1.0  0.7712371945246305  0.9070685625114979  0.19670659592027567  1.0000
  C   C23       1.0  0.2712371642864468  0.5929325844181221  0.19670652393157442  1.0000
  C   C24       1.0  0.22876392764167972  0.09293287774553251  0.8032943538526425  1.0000
  C   C25       1.0  0.7318576887592911  0.6091239080887974  0.6584650054870452  1.0000
  C   C26       1.0  0.7681401725246815  0.10912510538802421  0.341535407689861  1.0000
  C   C27       1.0  0.26814218839699316  0.3908750030347079  0.34153569575214965  1.0000
  C   C28       1.0  0.23186094964225393  0.8908754918243531  0.658465542083249  1.0000
  C   C29       1.0  0.8377189984772286  0.5981609275051556  0.5924635244109098  1.0000
  C   C30       1.0  0.6622826146762933  0.098161337743683  0.4075368516666131  1.0000
  C   C31       1.0  0.16228212418889854  0.40183966970729307  0.40753663761809383  1.0000
  C   C32       1.0  0.3377172624781082  0.9018401025137667  0.592463849572006  1.0000
  C   C33       1.0  0.772532625161034  0.6201644244138792  0.47927642240475166  1.0000
  C   C34       1.0  0.727466465185735  0.12016392837050202  0.5207234464854409  1.0000
  C   C35       1.0  0.22746725299300857  0.3798353297544211  0.5207227033460455  1.0000
  C   C36       1.0  0.2725346569818328  0.8798358257972299  0.479277503287861  1.0000
  C   C37       1.0  0.6040792943149925  0.6445090831926239  0.43498247045703664  1.0000
  C   C38       1.0  0.8959222497832826  0.14450931318497606  0.5650178843059948  1.0000
  C   C39       1.0  0.39592182835239237  0.3554898279305334  0.5650176915723506  1.0000
  C   C40       1.0  0.10407762737300169  0.8554895979385365  0.43498281693320007  1.0000
  C   C41       1.0  0.5042946412856324  0.6438970584755951  0.5045644696758345  1.0000
  C   C42       1.0  0.9957044137001033  0.14389808011988953  0.4954353882998818  1.0000
  C   C43       1.0  0.49570523636984376  0.3561018526479885  0.4954354438192611  1.0000
  C   C44       1.0  0.004295463954740299  0.8561016740483398  0.5045645251950219  1.0000
  C   C45       1.0  0.016057565412218394  0.5622567597376928  0.6401251085073979  1.0000
  C   C46       1.0  0.4839398356861651  0.062258657367237916  0.35987740101301574  1.0000
  C   C47       1.0  0.9839435572545412  0.43774299443011006  0.3598750535217975  1.0000
  C   C48       1.0  0.5160563044344926  0.9377444689804831  0.6401257055987344  1.0000
  N   N1        1.0  0.8467293327546345  0.7147902284071039  0.8256975999805505  1.0000
  N   N2        1.0  0.6532708621169477  0.21479068807357754  0.17430168618322744  1.0000
  N   N3        1.0  0.15327178941292627  0.28520952576062814  0.1743033497927513  1.0000
  N   N4        1.0  0.34672777102455393  0.785209909139795  0.825697191033079  1.0000
  N   N5        1.0  0.5672380559379421  0.6289709224111493  0.6144581310085756  1.0000
  N   N6        1.0  0.9327622657999581  0.12897116218488955  0.3855427701099288  1.0000
  N   N7        1.0  0.4327630662296258  0.3710288317565827  0.38554281876472635  1.0000
  N   N8        1.0  0.06723761135570068  0.8710285919832688  0.6144579311290741  1.0000
  O   O1        1.0  0.8689529875674681  0.9991314749441715  0.8452156455001472  1.0000
  O   O2        1.0  0.6310480281696584  0.4991311095592011  0.15478454617974793  1.0000
  O   O3        1.0  0.1310481346000927  0.0008682792235604002  0.15478530427316173  1.0000
  O   O4        1.0  0.3689518494851923  0.500868644609028  0.8452153673151486  1.0000
  O   O5        1.0  0.6197166830565236  0.35168085545732464  0.8274422953733309  1.0000
  O   O6        1.0  0.8802870423951176  0.8516804962615296  0.17255846118455762  1.0000
  O   O7        1.0  0.38028568412294567  0.6483188987099808  0.17255890293427004  1.0000
  O   O8        1.0  0.11971532478498398  0.14831841486112302  0.827442737123235  1.0000
  O   O9        1.0  0.8098401444809012  0.36690028753682924  0.7373685326700041  1.0000
  O   O10       1.0  0.6901610687695693  0.8669008772562921  0.2626309320758651  1.0000
  O   O11       1.0  0.1901597341729584  0.6330986235869036  0.2626298053368785  1.0000
  O   O12       1.0  0.3098388083860897  0.13309887691185912  0.7373697691631378  1.0000
  O   O13       1.0  0.1226124581615693  0.604668619065727  0.6015325026724838  1.0000
  O   O14       1.0  0.37739110780211854  0.1046688921622447  0.39846650355086405  1.0000
  O   O15       1.0  0.8773861754797493  0.3953311351030778  0.39846558679990807  1.0000
  O   O16       1.0  0.62261374990036  0.8953308620042862  0.601534404081228  1.0000
  O   O17       1.0  0.04562256739627911  0.4862958911403866  0.7173205567002441  1.0000
  O   O18       1.0  0.4543779384490136  0.9862963065759873  0.2826801401845458  1.0000
  O   O19       1.0  0.9543773112569481  0.5137038630279847  0.2826777813064467  1.0000
  O   O20       1.0  0.5456219382068211  0.013704290636745503  0.7173213487983717  1.0000
