data_image0
_chemical_formula_structural       ZnFeH18C30S2N2O4F12
_chemical_formula_sum              "Zn1 Fe1 H18 C30 S2 N2 O4 F12"
_cell_length_a       8.36465403905345
_cell_length_b       10.148742405430829
_cell_length_c       10.674761970486989
_cell_angle_alpha    94.50426412375042
_cell_angle_beta     112.18227728907449
_cell_angle_gamma    98.75644999094678

_space_group_name_H-M_alt    "P 1"
_space_group_IT_number       1

loop_
  _space_group_symop_operation_xyz
  'x, y, z'

loop_
  _atom_site_type_symbol
  _atom_site_label
  _atom_site_symmetry_multiplicity
  _atom_site_fract_x
  _atom_site_fract_y
  _atom_site_fract_z
  _atom_site_occupancy
  Zn  Zn1       1.0  0.499999826252896  0.5000013776273277  0.5000006556706751  1.0000
  Fe  Fe1       1.0  0.9999995148919255  5.049223190978343e-07  0.9999987385278358  1.0000
  H   H1        1.0  0.6565097220370433  0.5254528250706655  0.8118845283233111  1.0000
  H   H2        1.0  0.34348992322198774  0.47454488948628176  0.18811645163187762  1.0000
  H   H3        1.0  0.6040986280961604  0.41188883551763655  0.9943136811926505  1.0000
  H   H4        1.0  0.3958984358515138  0.5881088599215686  0.005684656014295777  1.0000
  H   H5        1.0  0.18230723733967844  0.12537718581803858  0.6763159673963557  1.0000
  H   H6        1.0  0.8176913783897103  0.8746214885185708  0.32368008483185645  1.0000
  H   H7        1.0  0.25567689943626687  0.2484031615367214  0.5066589595633174  1.0000
  H   H8        1.0  0.7443310066020814  0.7515914598852406  0.4933377177531568  1.0000
  H   H9        1.0  0.16813461624655446  0.8854708843184013  0.8485299848023685  1.0000
  H   H10       1.0  0.8318624477011267  0.11452681112079686  0.15146835240458492  1.0000
  H   H11       1.0  0.8111008567110859  0.818010195521367  0.754529946614724  1.0000
  H   H12       1.0  0.18889801683244659  0.18198953539544493  0.24547093548545007  1.0000
  H   H13       1.0  0.6896749652299973  0.04360712828012939  0.7932152517012837  1.0000
  H   H14       1.0  0.31032545825530616  0.9563936300016915  0.2067880322117189  1.0000
  H   H15       1.0  0.9704073061779039  0.25087019170213404  0.9118562426415903  1.0000
  H   H16       1.0  0.029594410171014697  0.7491305179774485  0.08814273849565515  1.0000
  H   H17       1.0  0.972752303369532  0.3088015350988442  0.6317224851143592  1.0000
  H   H18       1.0  0.02724399684539234  0.6912031980109105  0.3682742109071028  1.0000
  C   C1        1.0  0.5551129291097396  0.43472152965939154  0.7859084859898714  1.0000
  C   C2        1.0  0.4448869761713609  0.5652771833166524  0.21409169968740113  1.0000
  C   C3        1.0  0.5257736418732006  0.37091200143539976  0.8874610781277212  1.0000
  C   C4        1.0  0.47422368172856  0.6290867021164173  0.11253740215961727  1.0000
  C   C5        1.0  0.3878370774955684  0.2584140501231218  0.85078320237848  1.0000
  C   C6        1.0  0.6121615378658304  0.7415846339070099  0.14921378720804054  1.0000
  C   C7        1.0  0.2897033293717044  0.21264687191190032  0.710861723209959  1.0000
  C   C8        1.0  0.7102986404884959  0.7873497761020328  0.2891342575465714  1.0000
  C   C9        1.0  0.33008942218462767  0.28146676804522736  0.61594831115098  1.0000
  C   C10       1.0  0.6699171920940685  0.7185278728984129  0.38404985686631926  1.0000
  C   C11       1.0  0.13074561541934318  0.09522072483895266  0.8976881621495636  1.0000
  C   C12       1.0  0.8692532595961495  0.9047789673037909  0.102308970517356  1.0000
  C   C13       1.0  0.07870869952181883  0.9529462338010289  0.846534852363355  1.0000
  C   C14       1.0  0.9212899147356167  0.047052479309655795  0.15346494929811164  1.0000
  C   C15       1.0  0.890990518897773  0.9184448546437662  0.7968394217400173  1.0000
  C   C16       1.0  0.1090070643580745  0.08155485702066298  0.20315920162772017  1.0000
  C   C17       1.0  0.8265829603261777  0.038167684547495584  0.8173751669010583  1.0000
  C   C18       1.0  0.17341901494084044  0.9618340526317365  0.18262583203321  1.0000
  C   C19       1.0  0.9736794686863062  0.14761646899329856  0.8797090288953909  1.0000
  C   C20       1.0  0.026322247662605377  0.8523842406862907  0.12028995224184764  1.0000
  C   C21       1.0  0.7193244543299928  0.146411042126843  0.42369058374506363  1.0000
  C   C22       1.0  0.2806775194650796  0.8535907338264578  0.5763141646224597  1.0000
  C   C23       1.0  0.7114854251966634  0.2899802974423692  0.47957595828511046  1.0000
  C   C24       1.0  0.28850389948780014  0.7100224491959393  0.5204213435714634  1.0000
  C   C25       1.0  0.8619800671940537  0.3591152762625284  0.5928074322960413  1.0000
  C   C26       1.0  0.138019844597835  0.6408884967982543  0.40719495948402334  1.0000
  C   C27       1.0  0.8775738747895403  0.48797972664068817  0.6586336001004865  1.0000
  C   C28       1.0  0.12241803808505128  0.512028089506586  0.3413676132487993  1.0000
  C   C29       1.0  0.05118103762927718  0.5469828976155994  0.7829477105329727  1.0000
  C   C30       1.0  0.9488170645667536  0.45301883996757636  0.21705213635386386  1.0000
  S   S1        1.0  0.346824693832076  0.18750019000024304  0.9826783090478486  1.0000
  S   S2        1.0  0.6531728901597443  0.8124995022771484  0.017318439603265217  1.0000
  N   N1        1.0  0.45902580027256323  0.39191131139509844  0.6512997801025192  1.0000
  N   N2        1.0  0.5409774595073386  0.6080853655647472  0.3486993967447702  1.0000
  O   O1        1.0  0.567042572282375  0.32545358691619697  0.41962941860240477  1.0000
  O   O2        1.0  0.4329583643683036  0.67454411781258  0.5803710080102816  1.0000
  O   O3        1.0  0.7697596660523442  0.5671873136283024  0.6318258625638576  1.0000
  O   O4        1.0  0.23023946530533113  0.4328134738687196  0.36817984940827836  1.0000
  F   F1        1.0  0.6245421288045847  0.11594261567788068  0.2866983275337418  1.0000
  F   F2        1.0  0.3754644912489267  0.8840571047375433  0.713303921302973  1.0000
  F   F3        1.0  0.6503552114212496  0.0530262421408594  0.4842829158566672  1.0000
  F   F4        1.0  0.3496418525264317  0.9469714532983459  0.515715421350279  1.0000
  F   F5        1.0  0.8870307966044138  0.12910095508685518  0.4480896576671752  1.0000
  F   F6        1.0  0.1129747956464015  0.8709049112087113  0.5519220552034197  1.0000
  F   F7        1.0  0.15447799370927834  0.6447929300157681  0.750593471322375  1.0000
  F   F8        1.0  0.8455270695236904  0.3552007126434233  0.24940510695703458  1.0000
  F   F9        1.0  0.15033482771217166  0.4533876612467935  0.8327042621419095  1.0000
  F   F10       1.0  0.8496526786577191  0.5466080479902473  0.16729391286853001  1.0000
  F   F11       1.0  0.018583941373272163  0.6050370058272135  0.8881171617704381  1.0000
  F   F12       1.0  0.9814281176584813  0.3949737841706237  0.11188555426560494  1.0000
