data_image0
_chemical_formula_structural       Ag2H28C22N2O6F12
_chemical_formula_sum              "Ag2 H28 C22 N2 O6 F12"
_cell_length_a       5.983464770170569
_cell_length_b       9.358695255377334
_cell_length_c       13.514037279005258
_cell_angle_alpha    89.67627404612004
_cell_angle_beta     79.99539015598128
_cell_angle_gamma    76.86321021068588

_space_group_name_H-M_alt    "P 1"
_space_group_IT_number       1

loop_
  _space_group_symop_operation_xyz
  'x, y, z'

loop_
  _atom_site_type_symbol
  _atom_site_label
  _atom_site_symmetry_multiplicity
  _atom_site_fract_x
  _atom_site_fract_y
  _atom_site_fract_z
  _atom_site_occupancy
  Ag  Ag1       1.0  0.7028566528823176  0.5154462312211477  0.4341938447719684  1.0000
  Ag  Ag2       1.0  0.2971611123284319  0.4845520731228845  0.5657903860504874  1.0000
  H   H1        1.0  0.24950017148799464  0.9587976269421218  0.2676433707319532  1.0000
  H   H2        1.0  0.7504977568974168  0.04120409433022589  0.732362356230112  1.0000
  H   H3        1.0  0.15615900095892948  0.7557232780536721  0.4405719096002655  1.0000
  H   H4        1.0  0.843850421442397  0.24427953126850352  0.5594351393242647  1.0000
  H   H5        1.0  0.26070030773168895  0.9196192405264582  0.4419778198339656  1.0000
  H   H6        1.0  0.7393015273333602  0.0803857692903023  0.5580283237359962  1.0000
  H   H7        1.0  0.4395996355745239  0.760476186078094  0.3744504951011081  1.0000
  H   H8        1.0  0.5604035048070273  0.2395299289747541  0.6255577603104924  1.0000
  H   H9        1.0  0.8317702114405773  0.0003138524909900007  0.26069672779095754  1.0000
  H   H10       1.0  0.1682326959655711  0.9996834646055603  0.7393071605716627  1.0000
  H   H11       1.0  0.881403433409119  0.05162441537591181  0.37921487076074806  1.0000
  H   H12       1.0  0.11859919073227582  0.9483783884263559  0.6207890054267579  1.0000
  H   H13       1.0  0.790603044403049  0.885377575797385  0.3651832116221811  1.0000
  H   H14       1.0  0.20939499815259668  0.11462853766214917  0.6348232191351214  1.0000
  H   H15       1.0  0.4089704763866634  0.6749435563379436  0.08598399435599899  1.0000
  H   H16       1.0  0.591031640784415  0.32505596337761494  0.9140214215244455  1.0000
  H   H17       1.0  0.5531598463063927  0.9340326579306645  0.17176725779495428  1.0000
  H   H18       1.0  0.44682460088812087  0.0659734478845309  0.8282335673529247  1.0000
  H   H19       1.0  0.7097394224853912  0.7983854756093223  0.0791037968606929  1.0000
  H   H20       1.0  0.2902603158693679  0.20162062819485976  0.920901022520823  1.0000
  H   H21       1.0  0.6499957356007187  0.7492832291257372  0.20632845524508528  1.0000
  H   H22       1.0  0.3500049094768085  0.2507250710375929  0.793677020143093  1.0000
  H   H23       1.0  0.07820877727342426  0.8619233190148279  0.0418366127724923  1.0000
  H   H24       1.0  0.9217876174550099  0.1380685126470667  0.9581655947574674  1.0000
  H   H25       1.0  0.3464044634768938  0.9094922323699492  0.9937280210493498  1.0000
  H   H26       1.0  0.6535824720692601  0.0905116679618558  0.006271144934174807  1.0000
  H   H27       1.0  0.16550497521517826  0.0027490079082141995  0.1034886049185815  1.0000
  H   H28       1.0  0.8344890476493131  0.9972494282152198  0.8965174453002193  1.0000
  C   C1        1.0  0.3416877938017676  0.37933579258572786  0.35272783471877023  1.0000
  C   C2        1.0  0.6583210438435926  0.6206450150547269  0.6472668168540635  1.0000
  C   C3        1.0  0.28177590029428506  0.3027479870100436  0.2622174363000624  1.0000
  C   C4        1.0  0.7182484302009939  0.6972415248975992  0.7377656002104445  1.0000
  C   C5        1.0  0.2849569854804129  0.3828052175952621  0.16035574907694886  1.0000
  C   C6        1.0  0.7150329395940389  0.6171997443624448  0.8396365187261522  1.0000
  C   C7        1.0  0.10128561892112485  0.5304392685266777  0.15846210906040878  1.0000
  C   C8        1.0  0.8987102081190624  0.4695635331511667  0.8415393342546977  1.0000
  C   C9        1.0  0.09637548373878255  0.6488105806863869  0.2407638087357924  1.0000
  C   C10       1.0  0.9036155472799476  0.35118678702018247  0.7592476599341751  1.0000
  C   C11       1.0  0.15528273307398158  0.8786468869948934  0.30243787522711324  1.0000
  C   C12       1.0  0.844716781575215  0.12135044601686931  0.6975684960224412  1.0000
  C   C13       1.0  0.25875552261849305  0.8241624869660527  0.3954758381874655  1.0000
  C   C14       1.0  0.7412488019569281  0.17584032076280215  0.604529386082767  1.0000
  C   C15       1.0  0.89810054887954  0.9574248195350847  0.3282402886829416  1.0000
  C   C16       1.0  0.10189698322960075  0.0425779996512858  0.671765462173404  1.0000
  C   C17       1.0  0.3564894930332016  0.7808743019625196  0.1268530799986891  1.0000
  C   C18       1.0  0.6435113153451865  0.21912410233048973  0.8731480044462288  1.0000
  C   C19       1.0  0.5794929949326214  0.8186826367623469  0.14835789767970198  1.0000
  C   C20       1.0  0.42049604543494457  0.18132019335043031  0.8516477715446626  1.0000
  C   C21       1.0  0.2278930298719927  0.8956250801095679  0.06299734722365709  1.0000
  C   C22       1.0  0.7721034790266754  0.1043711437395132  0.9370055641015397  1.0000
  N   N1        1.0  0.1998896234161264  0.7613006345580047  0.22188836962240535  1.0000
  N   N2        1.0  0.8001082980168944  0.23870106634143443  0.7781129181518978  1.0000
  O   O1        1.0  0.5216380044110307  0.42957279611606936  0.3292108129912775  1.0000
  O   O2        1.0  0.4783976428945422  0.5704276589658974  0.670769058049423  1.0000
  O   O3        1.0  0.21405752192766409  0.37460644408258753  0.4366410800928547  1.0000
  O   O4        1.0  0.7859922384511719  0.6253644125243979  0.5633489804785654  1.0000
  O   O5        1.0  0.9825326478214504  0.6306910339529139  0.32455032705782116  1.0000
  O   O6        1.0  0.017472069554045733  0.3693106656754638  0.6754526537242497  1.0000
  F   F1        1.0  0.45096841213158706  0.17249597317273674  0.2415284692740514  1.0000
  F   F2        1.0  0.5490339489074072  0.8274979443906146  0.7584518033841616  1.0000
  F   F3        1.0  0.07143980145437467  0.264873720021221  0.2861857831864043  1.0000
  F   F4        1.0  0.9285553240289129  0.7351356017621316  0.7138016144199497  1.0000
  F   F5        1.0  0.24347545045191044  0.2869440187473629  0.0922154810827394  1.0000
  F   F6        1.0  0.756493315099746  0.7130632039702859  0.9077850730489203  1.0000
  F   F7        1.0  0.501535686597407  0.4062423813190462  0.12595839712429316  1.0000
  F   F8        1.0  0.4984594880165076  0.5937526524068061  0.87402390574357  1.0000
  F   F9        1.0  0.13292564158625447  0.5777597859559266  0.061383106850058794  1.0000
  F   F10       1.0  0.8670529314520504  0.42224856163078067  0.9386262995368709  1.0000
  F   F11       1.0  0.8867226156141041  0.497482596309368  0.17558891309781896  1.0000
  F   F12       1.0  0.11326722078217696  0.5025180481618321  0.8244189279318591  1.0000
