data_image0
_chemical_formula_structural       Cu6H30C60O30
_chemical_formula_sum              "Cu6 H30 C60 O30"
_cell_length_a       17.633181749196876
_cell_length_b       17.632762067052045
_cell_length_c       17.633468252052968
_cell_angle_alpha    63.98301115568333
_cell_angle_beta     63.96745925296218
_cell_angle_gamma    63.987302892217386

_space_group_name_H-M_alt    "P 1"
_space_group_IT_number       1

loop_
  _space_group_symop_operation_xyz
  'x, y, z'

loop_
  _atom_site_type_symbol
  _atom_site_label
  _atom_site_symmetry_multiplicity
  _atom_site_fract_x
  _atom_site_fract_y
  _atom_site_fract_z
  _atom_site_occupancy
  Cu  Cu1       1.0  0.9299105809015841  0.49949169763959833  0.49752640262350684  1.0000
  Cu  Cu2       1.0  0.49768825394919247  0.9298244498165434  0.49932648300997307  1.0000
  Cu  Cu3       1.0  0.49949829345019475  0.4973416858520068  0.9298743582981078  1.0000
  Cu  Cu4       1.0  0.5027085910183047  0.07009568794197206  0.5004177217599306  1.0000
  Cu  Cu5       1.0  0.07019804468304612  0.5006570694456729  0.5024347090815056  1.0000
  Cu  Cu6       1.0  0.5004951176419113  0.502443616749872  0.07012930506379418  1.0000
  H   H1        1.0  0.004414757849559701  0.4819523223808204  0.7722105364790579  1.0000
  H   H2        1.0  0.7722155243522266  0.0044796669717967206  0.48196246835539813  1.0000
  H   H3        1.0  0.4819371572570432  0.7721245111369017  0.004355654052169125  1.0000
  H   H4        1.0  0.5185578988799407  0.9944440568666049  0.22545956848090049  1.0000
  H   H5        1.0  0.9946863779317567  0.22557914039048646  0.5185513144626555  1.0000
  H   H6        1.0  0.22550170093002458  0.5185521432527836  0.994509203968967  1.0000
  H   H7        1.0  0.9954791480036532  0.5181718102090469  0.22783829961182542  1.0000
  H   H8        1.0  0.22801002581832114  0.9956784008472824  0.5179475824483575  1.0000
  H   H9        1.0  0.5179988442982548  0.22774823278158604  0.9955557213253812  1.0000
  H   H10       1.0  0.4814907029777515  0.0053634673314987965  0.7743765943410067  1.0000
  H   H11       1.0  0.0054234513219811  0.7744717409962122  0.4818201570924856  1.0000
  H   H12       1.0  0.7744127878557305  0.4813788933663191  0.005524057857052019  1.0000
  H   H13       1.0  0.7673287662816151  0.4851966760331408  0.5750790023011518  1.0000
  H   H14       1.0  0.8059009217813511  0.4417771993611268  0.5010374966324135  1.0000
  H   H15       1.0  0.5740768272695079  0.7667212187556485  0.4858367620169589  1.0000
  H   H16       1.0  0.5001327980123875  0.8059515825539166  0.44219053888895127  1.0000
  H   H17       1.0  0.48431275761372206  0.5760492074211994  0.7682114800887591  1.0000
  H   H18       1.0  0.4408600750252702  0.5022017263672397  0.8060023368106002  1.0000
  H   H19       1.0  0.42429287200114635  0.23193215250302032  0.515526313934771  1.0000
  H   H20       1.0  0.4982129937636087  0.19399398591947664  0.5588969291687321  1.0000
  H   H21       1.0  0.23300193901495447  0.5145855236699646  0.4252457545684081  1.0000
  H   H22       1.0  0.1941512661530425  0.5582154949312468  0.4991653817620758  1.0000
  H   H23       1.0  0.514839394850469  0.42465776383835424  0.23247966402501427  1.0000
  H   H24       1.0  0.5584434452654962  0.49852601228649013  0.19408058054504812  1.0000
  H   H25       1.0  0.7660862727650083  0.47177162679454915  0.7701107946169118  1.0000
  H   H26       1.0  0.7702472843456432  0.7661174360125073  0.47169616565552286  1.0000
  H   H27       1.0  0.4723218637273802  0.7698274731857708  0.7658432446550592  1.0000
  H   H28       1.0  0.5282193096994449  0.2298058849488028  0.233884867921958  1.0000
  H   H29       1.0  0.2302254461630397  0.23422150802343814  0.5276251263911008  1.0000
  H   H30       1.0  0.23389102471529102  0.5282358861506041  0.22986046747301012  1.0000
  C   C1        1.0  0.9325701113723638  0.4791240408357851  0.6665227216637888  1.0000
  C   C2        1.0  0.8902012852407069  0.4756848010424263  0.7620800042887624  1.0000
  C   C3        1.0  0.9367048810715631  0.4793512542679394  0.8066636000710048  1.0000
  C   C4        1.0  0.66666525590918  0.932564323500742  0.4789844454158398  1.0000
  C   C5        1.0  0.7621619396800199  0.8902300478736365  0.4756718106785698  1.0000
  C   C6        1.0  0.8066791182476366  0.9367599106519505  0.4794106823284564  1.0000
  C   C7        1.0  0.47927751160410986  0.6663929979113375  0.9324483904495935  1.0000
  C   C8        1.0  0.47596200155625473  0.7618940160568569  0.8900456689158319  1.0000
  C   C9        1.0  0.479464768343952  0.8065313251392254  0.9366117261971995  1.0000
  C   C10       1.0  0.5216986966502617  0.06367228947592446  0.33375102343246976  1.0000
  C   C11       1.0  0.5247575310047167  0.10717827362494603  0.23840414977384947  1.0000
  C   C12       1.0  0.5210056419466441  0.06226380890431925  0.1923960842519605  1.0000
  C   C13       1.0  0.0639731949065663  0.3339800109684958  0.5213422667903985  1.0000
  C   C14       1.0  0.1075213307731815  0.2386417611899744  0.5244131508259856  1.0000
  C   C15       1.0  0.06253738505218819  0.19255630660518358  0.5208904467761927  1.0000
  C   C16       1.0  0.3338250093476063  0.5215420183084589  0.06375275643581095  1.0000
  C   C17       1.0  0.23843619615012557  0.5247480518345852  0.10723467502705125  1.0000
  C   C18       1.0  0.1924029781548171  0.5210453050055649  0.06232379282779007  1.0000
  C   C19       1.0  0.0674045124219376  0.52101317451703  0.3334516303182582  1.0000
  C   C20       1.0  0.10974153832491851  0.5243924897377996  0.2379077544461906  1.0000
  C   C21       1.0  0.06321023749000428  0.520721611661216  0.1933578819965973  1.0000
  C   C22       1.0  0.3336883655765064  0.06761386161794997  0.5206491561330965  1.0000
  C   C23       1.0  0.2382013443034623  0.11000830777760477  0.5239349707991323  1.0000
  C   C24       1.0  0.1935779597074401  0.06342314217312149  0.5204280395078273  1.0000
  C   C25       1.0  0.5208301647573492  0.33339719523079475  0.06744386515104855  1.0000
  C   C26       1.0  0.5242699240895232  0.23786356011653004  0.10977021702958471  1.0000
  C   C27       1.0  0.5206062850328124  0.1932925473355666  0.06325237809437571  1.0000
  C   C28       1.0  0.47867393422302484  0.9360670737779765  0.6660188678558897  1.0000
  C   C29       1.0  0.4755715233528406  0.8925382205995684  0.7613649693799903  1.0000
  C   C30       1.0  0.4791133265988207  0.9375233404528274  0.8074295070763925  1.0000
  C   C31       1.0  0.9362789550157941  0.666190622442315  0.4785484846598108  1.0000
  C   C32       1.0  0.8927838661671076  0.7615620063575999  0.4754161939291564  1.0000
  C   C33       1.0  0.9376508442896921  0.8075672935458585  0.4792514953142089  1.0000
  C   C34       1.0  0.6661478873812142  0.47832446442581045  0.9362520395309488  1.0000
  C   C35       1.0  0.761516996942092  0.47521834959552933  0.8927670135701149  1.0000
  C   C36       1.0  0.8075224697090703  0.4789241545027777  0.9377003373739188  1.0000
  C   C37       1.0  0.8027982886906811  0.47337916369659905  0.8050633713653145  1.0000
  C   C38       1.0  0.8957300689767963  0.48123970280655465  0.8950155712716991  1.0000
  C   C39       1.0  0.9411155579685582  0.4881048777402341  0.9396116793743164  1.0000
  C   C40       1.0  0.9790881966849837  0.49574084470070534  0.9786426533095283  1.0000
  C   C41       1.0  0.805150215649732  0.8028180966452894  0.47341722881857634  1.0000
  C   C42       1.0  0.8949524741479638  0.8957884625140976  0.4814843394643659  1.0000
  C   C43       1.0  0.939545149828916  0.9412009654649296  0.48836169349209535  1.0000
  C   C44       1.0  0.9785796288174351  0.9791809174011662  0.49598291936773375  1.0000
  C   C45       1.0  0.47380604630959056  0.8048206057965855  0.8025990992245513  1.0000
  C   C46       1.0  0.4813207742895854  0.8948805663867103  0.8956596261710602  1.0000
  C   C47       1.0  0.4880340093726545  0.9395368161821336  0.9410905710420251  1.0000
  C   C48       1.0  0.4956044919232738  0.9785911778337281  0.9791001927990166  1.0000
  C   C49       1.0  0.5265900418642174  0.19487714754274776  0.1971579443103834  1.0000
  C   C50       1.0  0.5186763830328828  0.1049544730546401  0.10420488945480602  1.0000
  C   C51       1.0  0.5117842347900208  0.060395614491177654  0.05878795370275477  1.0000
  C   C52       1.0  0.5041549414981078  0.021379099621263643  0.020793446956510298  1.0000
  C   C53       1.0  0.19525073977891344  0.1974373008077137  0.5261400133465344  1.0000
  C   C54       1.0  0.1052188581424573  0.10434496645934388  0.5186256209233094  1.0000
  C   C55       1.0  0.06053962809103549  0.058893979249568004  0.5119292261836819  1.0000
  C   C56       1.0  0.021446074717559303  0.020894796303736  0.5044186204411008  1.0000
  C   C57       1.0  0.19715930233767412  0.5266440703420441  0.194921600929348  1.0000
  C   C58       1.0  0.10417007023973919  0.5187909149487239  0.10501686541581998  1.0000
  C   C59       1.0  0.058770142241620194  0.5119303861884817  0.06043877351343235  1.0000
  C   C60       1.0  0.0207710037181812  0.5042875895475023  0.021431284765256423  1.0000
  O   O1        1.0  0.011847476347718097  0.4828759496262903  0.6309724349801726  1.0000
  O   O2        1.0  0.8852586131700517  0.4801165734447606  0.6279948824115708  1.0000
  O   O3        1.0  0.6311069729254369  0.011799829931561602  0.48282699926948436  1.0000
  O   O4        1.0  0.628198857436061  0.8852619297968687  0.4798453173260455  1.0000
  O   O5        1.0  0.48297205937804216  0.6308878418185697  0.011734550793548218  1.0000
  O   O6        1.0  0.4802078341641476  0.6278525836456622  0.8851787144927813  1.0000
  O   O7        1.0  0.5173873811005122  0.9844917828725103  0.36938374634424775  1.0000
  O   O8        1.0  0.5214369994106959  0.11080067086466266  0.3718689383783272  1.0000
  O   O9        1.0  0.9846953630476848  0.369503034516775  0.5173044756181326  1.0000
  O   O10       1.0  0.11113078650291898  0.37217929406669725  0.5208789099980039  1.0000
  O   O11       1.0  0.3694680676478442  0.5172342168759626  0.9845580423551041  1.0000
  O   O12       1.0  0.37197912897299545  0.5211699223982648  0.1109062154840146  1.0000
  O   O13       1.0  0.9881743986817995  0.5171294783364146  0.36905685995812854  1.0000
  O   O14       1.0  0.11468365815036921  0.5201914670282548  0.37190881078778665  1.0000
  O   O15       1.0  0.36917466241549585  0.9883090235054439  0.5170079072263932  1.0000
  O   O16       1.0  0.3722296748372926  0.11489790660962028  0.5196981935912105  1.0000
  O   O17       1.0  0.5170972032286869  0.36892304482628185  0.9881628451907929  1.0000
  O   O18       1.0  0.5198089802004445  0.37194621295684976  0.11475278905325573  1.0000
  O   O19       1.0  0.48277682386600423  0.015324410971089655  0.6304685909230372  1.0000
  O   O20       1.0  0.4791352437412256  0.8889090483754172  0.627823403074416  1.0000
  O   O21       1.0  0.015473720234709302  0.6305900220456168  0.48282065112888256  1.0000
  O   O22       1.0  0.8891505170169295  0.6280360023192914  0.4788845362372668  1.0000
  O   O23       1.0  0.6304974285386821  0.48261059975369847  0.015461508802886137  1.0000
  O   O24       1.0  0.6280365502257864  0.4786371949693517  0.8891020325433201  1.0000
  O   O25       1.0  0.7944896306914656  0.4963129866359352  0.5112361407829481  1.0000
  O   O26       1.0  0.5103479074112086  0.7946282071241979  0.49668559798609396  1.0000
  O   O27       1.0  0.4956426448878232  0.5121099363079508  0.7943130588857414  1.0000
  O   O28       1.0  0.4882159388731182  0.2055977541269698  0.5041944186093872  1.0000
  O   O29       1.0  0.20553830175779808  0.5036461821173575  0.4890403335678073  1.0000
  O   O30       1.0  0.5037896169389028  0.4885052658734281  0.20555833576663946  1.0000
