data_image0
_chemical_formula_structural       Cd4P8H36C28N4O28
_chemical_formula_sum              "Cd4 P8 H36 C28 N4 O28"
_cell_length_a       5.6683527378439305
_cell_length_b       12.745981331368553
_cell_length_c       15.981097516368125
_cell_angle_alpha    90.00062555431649
_cell_angle_beta     90.000317953329
_cell_angle_gamma    102.10111950157867

_space_group_name_H-M_alt    "P 1"
_space_group_IT_number       1

loop_
  _space_group_symop_operation_xyz
  'x, y, z'

loop_
  _atom_site_type_symbol
  _atom_site_label
  _atom_site_symmetry_multiplicity
  _atom_site_fract_x
  _atom_site_fract_y
  _atom_site_fract_z
  _atom_site_occupancy
  Cd  Cd1       1.0  0.8063012538525451  0.040239935467077693  0.4203055883353456  1.0000
  Cd  Cd2       1.0  0.19371313563666345  0.4597534738864936  0.9203094788895851  1.0000
  Cd  Cd3       1.0  0.19371742691265584  0.9597627131674218  0.579703057970711  1.0000
  Cd  Cd4       1.0  0.8062813331253266  0.5402416589066164  0.0796966644039685  1.0000
  P   P1        1.0  0.2541083916298064  0.9042941119171245  0.3693649967540366  1.0000
  P   P2        1.0  0.7458994651260723  0.5957068438557727  0.8693585167820501  1.0000
  P   P3        1.0  0.7459199687198887  0.09570627951164568  0.6306355149405078  1.0000
  P   P4        1.0  0.2540749971953388  0.4042911991683127  0.1306426205922264  1.0000
  P   P5        1.0  0.3199692049932708  0.1449898130877614  0.3325181493365506  1.0000
  P   P6        1.0  0.6800380678658156  0.35501172356199356  0.8325188640834966  1.0000
  P   P7        1.0  0.6800614113959396  0.855007419939085  0.6674823623459929  1.0000
  P   P8        1.0  0.3199531742519709  0.644984161558014  0.1674803960786946  1.0000
  H   H1        1.0  0.4627068727011975  0.26184608320694025  0.9591347118277653  1.0000
  H   H2        1.0  0.5372787784020189  0.2381618731152386  0.4591320936069109  1.0000
  H   H3        1.0  0.5372567903599829  0.7381645685676119  0.04086079393955089  1.0000
  H   H4        1.0  0.4627452272307336  0.761840849807136  0.5408571547875239  1.0000
  H   H5        1.0  0.2796644374893446  0.754351090965109  0.27695267687094827  1.0000
  H   H6        1.0  0.7203544221793834  0.7456549847479154  0.7769487368989232  1.0000
  H   H7        1.0  0.7203682859364307  0.245655741323624  0.7230465833777373  1.0000
  H   H8        1.0  0.27961681350538464  0.25434381060796346  0.22304614308324486  1.0000
  H   H9        1.0  0.9401342037931782  0.9079180436254007  0.2609394171306931  1.0000
  H   H10       1.0  0.05987667892772917  0.5920820932392132  0.7609397904029578  1.0000
  H   H11       1.0  0.05988124187028631  0.09207658491882142  0.7390667261797076  1.0000
  H   H12       1.0  0.9401240855335402  0.40791552006358245  0.23907261029988544  1.0000
  H   H13       1.0  0.055436208323399676  0.0079578618001719  0.1009049203961752  1.0000
  H   H14       1.0  0.9445754736972204  0.49204737051891106  0.6009054596677216  1.0000
  H   H15       1.0  0.9445689105747873  0.9920374198280015  0.8990955912544649  1.0000
  H   H16       1.0  0.05542673366691986  0.5079406930652013  0.39909755490513993  1.0000
  H   H17       1.0  0.09738628643753337  0.14001557853458726  0.9808050643861319  1.0000
  H   H18       1.0  0.9026165111656467  0.3599945439653282  0.48080169312067506  1.0000
  H   H19       1.0  0.9026290017200509  0.8599830352269182  0.01920045320261469  1.0000
  H   H20       1.0  0.097396844361171  0.6400080301415585  0.5191956898736692  1.0000
  H   H21       1.0  0.810648309213917  0.2674198612238854  0.04005800094768119  1.0000
  H   H22       1.0  0.18932204548093515  0.23258625482748127  0.540039837246617  1.0000
  H   H23       1.0  0.18928984798195353  0.7325800667886425  0.9599487680552058  1.0000
  H   H24       1.0  0.81069116093699  0.76742907687472  0.4599475339763615  1.0000
  H   H25       1.0  0.8010173388834757  0.14289608002962242  0.16152844431463356  1.0000
  H   H26       1.0  0.19896143676545813  0.35710802467786346  0.6615170385012019  1.0000
  H   H27       1.0  0.19893292001334129  0.8571032196485293  0.8384758217394577  1.0000
  H   H28       1.0  0.8010356284431239  0.6429022965449607  0.3384790930342945  1.0000
  H   H29       1.0  0.5965483410790282  0.9967428037266188  0.2401974950474255  1.0000
  H   H30       1.0  0.4034386494248281  0.5032646566469979  0.7401939486350386  1.0000
  H   H31       1.0  0.4034472724739969  0.0032682946069257993  0.7597879989229313  1.0000
  H   H32       1.0  0.5965416189058246  0.4967302775379352  0.259799054120414  1.0000
  H   H33       1.0  0.35382871191123394  0.9060831085622639  0.19385399576774628  1.0000
  H   H34       1.0  0.6462031338711113  0.5939107125692474  0.6938441895928378  1.0000
  H   H35       1.0  0.6462080340549006  0.09391181767163202  0.8061433872138508  1.0000
  H   H36       1.0  0.3538108601140876  0.40608469307101547  0.3061494389346677  1.0000
  C   C1        1.0  0.4269576854601807  0.06280066719713767  0.1403383389315138  1.0000
  C   C2        1.0  0.5730291292896367  0.4372024282337818  0.6403277015915307  1.0000
  C   C3        1.0  0.5730112944423877  0.9372012867269885  0.8596778161972196  1.0000
  C   C4        1.0  0.4269871292909996  0.5627985914853326  0.3596696813985431  1.0000
  C   C5        1.0  0.2274150011321083  0.06152528443564621  0.0878642836895196  1.0000
  C   C6        1.0  0.7725895887393219  0.43848044667622327  0.5878584012301431  1.0000
  C   C7        1.0  0.7725789866244169  0.9384730315725704  0.912141859617762  1.0000
  C   C8        1.0  0.22740487993185346  0.5615146860581888  0.41214023319238174  1.0000
  C   C9        1.0  0.24658515331844905  0.13324898998455834  0.0219799088943589  1.0000
  C   C10       1.0  0.7534391432712368  0.3667560086768589  0.5219739786910155  1.0000
  C   C11       1.0  0.7534435305913616  0.8667522034855252  0.978024982978816  1.0000
  C   C12       1.0  0.24658744196115376  0.6332443578849194  0.47801964987004186  1.0000
  C   C13       1.0  0.6525505130484247  0.205610701747645  0.055025264756992  1.0000
  C   C14       1.0  0.3474284234994088  0.29438539604573327  0.5550204539838646  1.0000
  C   C15       1.0  0.34739199018738987  0.7943781222122299  0.9449790012434107  1.0000
  C   C16       1.0  0.6526018778401832  0.7056198073912154  0.4449756775591069  1.0000
  C   C17       1.0  0.6426461241960338  0.13575823495988001  0.12169746203570499  1.0000
  C   C18       1.0  0.3573497618633894  0.3642462970921797  0.6216895368464677  1.0000
  C   C19       1.0  0.357344322108851  0.8642488039418836  0.8783174416567048  1.0000
  C   C20       1.0  0.6426685952735766  0.6357555494569737  0.3783090976276995  1.0000
  C   C21       1.0  0.41421524172313434  0.9898674211237123  0.2146546221941819  1.0000
  C   C22       1.0  0.5857649927684674  0.5101331741465458  0.7146489659909179  1.0000
  C   C23       1.0  0.5857689003189889  0.0101283647827088  0.785349643875115  1.0000
  C   C24       1.0  0.4142267388577209  0.4898683002048827  0.28534966845734994  1.0000
  C   C25       1.0  0.24383978529076694  0.007287401389810101  0.2868660341688098  1.0000
  C   C26       1.0  0.7561584785801115  0.4927157033375877  0.786862481911889  1.0000
  C   C27       1.0  0.756162754106164  0.9927102366625675  0.713138231925484  1.0000
  C   C28       1.0  0.24381808229763632  0.5072831665165368  0.2131399069464806  1.0000
  N   N1        1.0  0.4561990012663698  0.20231367837287448  0.0068725586921445  1.0000
  N   N2        1.0  0.5438126621290564  0.2976869251336751  0.5068650061398614  1.0000
  N   N3        1.0  0.5438143544042474  0.7976888958269653  0.9931367133479794  1.0000
  N   N4        1.0  0.45620198741877965  0.7023188569966055  0.4931317511306972  1.0000
  O   O1        1.0  0.5146991439356653  0.903752686467428  0.39314770331941407  1.0000
  O   O2        1.0  0.48529992339761907  0.5962429278706907  0.8931395021803252  1.0000
  O   O3        1.0  0.48532453829589156  0.096249234516371  0.6068503054206786  1.0000
  O   O4        1.0  0.5146735683796492  0.403752709117505  0.10685975796460669  1.0000
  O   O5        1.0  0.12454693576261629  0.7997737899871495  0.32713201993203  1.0000
  O   O6        1.0  0.875476032268409  0.700222743535207  0.8271298351514103  1.0000
  O   O7        1.0  0.875500302947351  0.20022527037247073  0.6728684917737766  1.0000
  O   O8        1.0  0.12449697005342844  0.29976730425581627  0.17287443088220295  1.0000
  O   O9        1.0  0.10093237419318506  0.9334036659530228  0.44280424842227717  1.0000
  O   O10       1.0  0.899067902868765  0.5666014973394907  0.9428015426193994  1.0000
  O   O11       1.0  0.8991124594667425  0.0666113104674295  0.5571943861344408  1.0000
  O   O12       1.0  0.10091414057161072  0.43339346170754584  0.057197717530293284  1.0000
  O   O13       1.0  0.533702881836426  0.147455696454216  0.3920292864215895  1.0000
  O   O14       1.0  0.46630163345404435  0.3525451170993605  0.8920289643073502  1.0000
  O   O15       1.0  0.4663199958522453  0.8525486057180486  0.607966219371363  1.0000
  O   O16       1.0  0.5336676610894668  0.6474488661504907  0.10795778104135677  1.0000
  O   O17       1.0  0.09726439546960816  0.17062786648580183  0.3744288243193381  1.0000
  O   O18       1.0  0.9027379191286399  0.3293726470965552  0.8744353479371867  1.0000
  O   O19       1.0  0.902760729808612  0.8293645048722594  0.62557168733656  1.0000
  O   O20       1.0  0.09722363709273196  0.6706284055433187  0.12557767848451815  1.0000
  O   O21       1.0  0.41122246355833864  0.22622071313182354  0.2604766082526169  1.0000
  O   O22       1.0  0.5887780650531765  0.2737804245832649  0.7604751821205653  1.0000
  O   O23       1.0  0.5887736226107305  0.7737784296134793  0.739518897492971  1.0000
  O   O24       1.0  0.4112383594303352  0.7262253822965974  0.23951344054144388  1.0000
  O   O25       1.0  0.9936349402110378  0.9867747677860662  0.2596138754140611  1.0000
  O   O26       1.0  0.00637171339185731  0.5132236947292769  0.7596165778561  1.0000
  O   O27       1.0  0.006369208105169799  0.0132181077817606  0.7403816303109707  1.0000
  O   O28       1.0  0.9936163022784894  0.4867729428448229  0.24039206839527338  1.0000
