data_image0
_chemical_formula_structural       Cu4H28C28N4O24
_chemical_formula_sum              "Cu4 H28 C28 N4 O24"
_cell_length_a       6.5028183366065955
_cell_length_b       7.173641022052335
_cell_length_c       18.716876259122323
_cell_angle_alpha    89.99270418038768
_cell_angle_beta     90.00545121904172
_cell_angle_gamma    105.21149830705339

_space_group_name_H-M_alt    "P 1"
_space_group_IT_number       1

loop_
  _space_group_symop_operation_xyz
  'x, y, z'

loop_
  _atom_site_type_symbol
  _atom_site_label
  _atom_site_symmetry_multiplicity
  _atom_site_fract_x
  _atom_site_fract_y
  _atom_site_fract_z
  _atom_site_occupancy
  Cu  Cu1       1.0  0.6351085997908256  0.2649142063919284  0.31113897586930517  1.0000
  Cu  Cu2       1.0  0.8647333005515634  0.7351021633066775  0.8112648263519375  1.0000
  Cu  Cu3       1.0  0.3646860111072243  0.7350974958240926  0.6887229863978207  1.0000
  Cu  Cu4       1.0  0.13510623015550044  0.2649551810026125  0.1888423687493912  1.0000
  H   H1        1.0  0.1287361844660069  0.8648450686450316  0.4837432449988058  1.0000
  H   H2        1.0  0.37150697773279273  0.13497462715656638  0.9837934343130569  1.0000
  H   H3        1.0  0.8714278559898717  0.13504824619034386  0.5162127588904754  1.0000
  H   H4        1.0  0.6286589352415037  0.8650638678284182  0.0162630101634349  1.0000
  H   H5        1.0  0.31587669722015477  0.6008409054176481  0.4872741376467786  1.0000
  H   H6        1.0  0.18448493026390622  0.39916449199858306  0.987356137255084  1.0000
  H   H7        1.0  0.6844467072228542  0.3992195067225807  0.5126364511523462  1.0000
  H   H8        1.0  0.8157689549509969  0.6010191217217835  0.0127104563493106  1.0000
  H   H9        1.0  0.6427124001886925  0.6282086358036094  0.4110972057536628  1.0000
  H   H10       1.0  0.8575364522778274  0.3718422247835206  0.9111695471258798  1.0000
  H   H11       1.0  0.35754258312329773  0.37191398606629616  0.5888042977103467  1.0000
  H   H12       1.0  0.1426520151253784  0.6282989816086372  0.088888498030137  1.0000
  H   H13       1.0  0.7818919140093357  0.6063218016697859  0.2639050106341614  1.0000
  H   H14       1.0  0.7180408145236116  0.3937933348670414  0.764001718571734  1.0000
  H   H15       1.0  0.21804821422207973  0.3938122111407054  0.7359948846581119  1.0000
  H   H16       1.0  0.28184888838158884  0.6062819974788171  0.2361204366570036  1.0000
  H   H17       1.0  0.7680347307139217  0.4456555162012421  0.20143408686396921  1.0000
  H   H18       1.0  0.7318402612009578  0.5544055367244951  0.7015292508151775  1.0000
  H   H19       1.0  0.23187686111816672  0.5543962254072383  0.7984476445593529  1.0000
  H   H20       1.0  0.26799919925280596  0.44564164440812704  0.2985672589900688  1.0000
  H   H21       1.0  0.9761626299810972  0.3854015974544539  0.4065014382327448  1.0000
  H   H22       1.0  0.5235354245929004  0.6141360469162435  0.9065554481815923  1.0000
  H   H23       1.0  0.02348132088607712  0.6141480376788451  0.5934331946225981  1.0000
  H   H24       1.0  0.4761805794784165  0.38556187469219333  0.0935250398740948  1.0000
  H   H25       1.0  0.9524072274763427  0.5743756483919144  0.3663887755914175  1.0000
  H   H26       1.0  0.5475563444693564  0.42518740254512  0.8664918081729668  1.0000
  H   H27       1.0  0.04753041560626771  0.4251687877746377  0.6334924343934601  1.0000
  H   H28       1.0  0.4523753488926518  0.5745066881522407  0.1336405083310055  1.0000
  C   C1        1.0  0.2673851567662879  0.20594332466263407  0.4003123168182654  1.0000
  C   C2        1.0  0.2325296059951256  0.7939462401321079  0.9003369986188972  1.0000
  C   C3        1.0  0.7324818198436134  0.7939741337150251  0.5996597100202833  1.0000
  C   C4        1.0  0.767399580786368  0.2060877439293378  0.0996756314332004  1.0000
  C   C5        1.0  0.3546827298176751  0.03286499323628791  0.4088829550817508  1.0000
  C   C6        1.0  0.1453899974438002  0.9670847160455551  0.9089487158052094  1.0000
  C   C7        1.0  0.645342920060287  0.9671179138510057  0.5910554132422661  1.0000
  C   C8        1.0  0.8546998480483197  0.033016121375716495  0.09111894574316891  1.0000
  C   C9        1.0  0.27094049323777364  0.8724378790805785  0.45185487393979423  1.0000
  C   C10       1.0  0.22924874582349736  0.1274657738643086  0.9519115457817193  1.0000
  C   C11       1.0  0.7291790844395153  0.12750560301649466  0.5480888396312054  1.0000
  C   C12       1.0  0.7709156756631899  0.8726424555991839  0.04815291112137031  1.0000
  C   C13       1.0  0.37684870761390254  0.7262636986208124  0.4530948696691794  1.0000
  C   C14       1.0  0.12346551436060345  0.2737593794373153  0.9531714321027636  1.0000
  C   C15       1.0  0.6234119806465019  0.27379782465193603  0.546820526589272  1.0000
  C   C16       1.0  0.8767322024614757  0.7263918258350299  0.04690851832187091  1.0000
  C   C17       1.0  0.5579594638587935  0.7403265061290581  0.41082382274994705  1.0000
  C   C18       1.0  0.9423468441611081  0.2597611723700766  0.9108910218160631  1.0000
  C   C19       1.0  0.4422960193297385  0.2597728670486603  0.5891022580419545  1.0000
  C   C20       1.0  0.05786995260665153  0.7404318103877969  0.0891905307240393  1.0000
  C   C21       1.0  0.6282011168382127  0.9022663680061954  0.3673094530016883  1.0000
  C   C22       1.0  0.871943351487495  0.09780587066845918  0.8674138432277729  1.0000
  C   C23       1.0  0.37189622119448984  0.09781402930617837  0.6325829662497213  1.0000
  C   C24       1.0  0.12815722462578807  0.902329625191321  0.1326960255424794  1.0000
  C   C25       1.0  0.8098583526263783  0.9423515745887984  0.3141588256678176  1.0000
  C   C26       1.0  0.6902177788301886  0.057728054991123684  0.8142732282880942  1.0000
  C   C27       1.0  0.1902134263276878  0.057730730269383884  0.6857180990875662  1.0000
  C   C28       1.0  0.30981909849754175  0.9423606455699698  0.18583290066353436  1.0000
  N   N1        1.0  0.5278331981134416  0.042848277206928694  0.3689771251902627  1.0000
  N   N2        1.0  0.9721983675810864  0.9571557886125389  0.8690661693428154  1.0000
  N   N3        1.0  0.47214599224597026  0.9571485277060106  0.6309345281872396  1.0000
  N   N4        1.0  0.027872954084770595  0.04298458515082608  0.1310260676905273  1.0000
  O   O1        1.0  0.376998968809616  0.3374207357031622  0.3576429494475449  1.0000
  O   O2        1.0  0.12288264966156257  0.6626498446402779  0.8576187150321388  1.0000
  O   O3        1.0  0.6228429082688507  0.6626293168688235  0.6423841042917432  1.0000
  O   O4        1.0  0.8769829487979452  0.3375464720426393  0.1423730732131574  1.0000
  O   O5        1.0  0.10296029468188551  0.21625878737829404  0.4327010442498747  1.0000
  O   O6        1.0  0.3968526294615202  0.7833809764096599  0.9327272476659231  1.0000
  O   O7        1.0  0.8967892129982148  0.7834182237251567  0.567270452309856  1.0000
  O   O8        1.0  0.6029709187966932  0.21648060394651475  0.0673104959367166  1.0000
  O   O9        1.0  0.8474957311722308  0.10890236955034988  0.283383029689098  1.0000
  O   O10       1.0  0.6526150924052773  0.8912433598016989  0.7835013596424147  1.0000
  O   O11       1.0  0.1525601345083203  0.8912179757170761  0.7164997709282376  1.0000
  O   O12       1.0  0.34752614917078267  0.1088943196312684  0.216609044005267  1.0000
  O   O13       1.0  0.9109239102198077  0.818269945918402  0.30223254419668427  1.0000
  O   O14       1.0  0.5891043145443435  0.18177030641607664  0.8023499105345593  1.0000
  O   O15       1.0  0.08911342242714679  0.18176068854226193  0.6976385042208975  1.0000
  O   O16       1.0  0.4109241601970837  0.8183359685961377  0.1977690405042623  1.0000
  O   O17       1.0  0.692552448123223  0.4822881172400172  0.24386801089043084  1.0000
  O   O18       1.0  0.8072848463286846  0.5177559067574578  0.7439401469691092  1.0000
  O   O19       1.0  0.3072589266592233  0.5177131125159633  0.7560607365511345  1.0000
  O   O20       1.0  0.19257122115096348  0.48235487824030093  0.2561691841984555  1.0000
  O   O21       1.0  0.873656721246235  0.4622174556793296  0.3937580702646386  1.0000
  O   O22       1.0  0.6261135862621148  0.537361679603265  0.8938885932090841  1.0000
  O   O23       1.0  0.12606786594367492  0.5373641638017972  0.6060942844168551  1.0000
  O   O24       1.0  0.373663870786757  0.4623409505349656  0.10627150302027388  1.0000
