data_image0
_chemical_formula_structural       Zn4H36C28N28
_chemical_formula_sum              "Zn4 H36 C28 N28"
_cell_length_a       6.121799275137025
_cell_length_b       10.8364016219083
_cell_length_c       16.028476948007683
_cell_angle_alpha    90.00010546720812
_cell_angle_beta     90.00001795966779
_cell_angle_gamma    103.2783899837782

_space_group_name_H-M_alt    "P 1"
_space_group_IT_number       1

loop_
  _space_group_symop_operation_xyz
  'x, y, z'

loop_
  _atom_site_type_symbol
  _atom_site_label
  _atom_site_symmetry_multiplicity
  _atom_site_fract_x
  _atom_site_fract_y
  _atom_site_fract_z
  _atom_site_occupancy
  Zn  Zn1       1.0  0.015550267943567127  0.2126712636737125  0.2122386457122545  1.0000
  Zn  Zn2       1.0  0.4844594771068245  0.7873324056512773  0.7122410033595941  1.0000
  Zn  Zn3       1.0  0.9844557994371927  0.7873290077604123  0.7877616064642792  1.0000
  Zn  Zn4       1.0  0.5155481009304097  0.21267165839426386  0.28775800104028076  1.0000
  H   H1        1.0  0.21081582469066965  0.19742353233758791  0.8992446520673382  1.0000
  H   H2        1.0  0.2891849340307858  0.8025815984120258  0.3992486989588285  1.0000
  H   H3        1.0  0.7891857143477168  0.8025776736198367  0.10075310455128768  1.0000
  H   H4        1.0  0.7108084283374724  0.19741958483835018  0.6007515532179183  1.0000
  H   H5        1.0  0.7249575186974084  0.4130525614630046  0.9662680205456055  1.0000
  H   H6        1.0  0.7750328430123548  0.5869381637185429  0.4662724079922994  1.0000
  H   H7        1.0  0.275034080022067  0.5869400929461434  0.03372973606711579  1.0000
  H   H8        1.0  0.22496869602752412  0.41306304224068674  0.5337265964055219  1.0000
  H   H9        1.0  0.7695363642865729  0.35143909955962727  0.1134146478119646  1.0000
  H   H10       1.0  0.7304569287308098  0.6485600872652952  0.6134168080888925  1.0000
  H   H11       1.0  0.23045498508107445  0.6485611309935067  0.8865843565849045  1.0000
  H   H12       1.0  0.2695498939766879  0.3514420804727365  0.3865815724201197  1.0000
  H   H13       1.0  0.1599366563825981  0.0224323181234709  0.08363553932992568  1.0000
  H   H14       1.0  0.34006535922734576  0.9775728530828404  0.5836375134219621  1.0000
  H   H15       1.0  0.8400510446542951  0.9775669551957049  0.9163659606245813  1.0000
  H   H16       1.0  0.6599390728202863  0.0224274138109593  0.41636398653371026  1.0000
  H   H17       1.0  0.3522712151021921  0.0819719559892746  0.0018124637763960998  1.0000
  H   H18       1.0  0.14773349748723066  0.9180320396457518  0.5018137241785039  1.0000
  H   H19       1.0  0.6477197566054401  0.9180273264159666  0.998190283957413  1.0000
  H   H20       1.0  0.8522794888972669  0.08196919811110352  0.498187151888473  1.0000
  H   H21       1.0  0.38399830867729884  0.15483761436397714  0.10199857539280537  1.0000
  H   H22       1.0  0.11599922258705671  0.8451685444472472  0.6020016100690737  1.0000
  H   H23       1.0  0.6160003373600703  0.8451645306670059  0.8980023006743278  1.0000
  H   H24       1.0  0.8839961527833039  0.1548335915021752  0.39800113766673917  1.0000
  H   H25       1.0  0.8159977492711475  0.2734207140665248  0.7994448451598186  1.0000
  H   H26       1.0  0.6839928434273334  0.7265752133031995  0.2994462904792669  1.0000
  H   H27       1.0  0.18399636842309514  0.7265823654868553  0.20055291145980894  1.0000
  H   H28       1.0  0.31600844262546707  0.2734212564325277  0.70055333780504  1.0000
  H   H29       1.0  0.10722462820545792  0.34697893372961625  0.7969942332501743  1.0000
  H   H30       1.0  0.3927677052434788  0.6530135663954367  0.29699621891848677  1.0000
  H   H31       1.0  0.8927725071739444  0.6530194186881388  0.20300664281442946  1.0000
  H   H32       1.0  0.607230185464161  0.34698668232803004  0.703004033257784  1.0000
  H   H33       1.0  0.9062167686935112  0.4367816421371415  0.8236718356973822  1.0000
  H   H34       1.0  0.5937747620527106  0.5632124634952261  0.3236743092667282  1.0000
  H   H35       1.0  0.09378477034786681  0.5632195638238928  0.1763284164796275  1.0000
  H   H36       1.0  0.40621394366350233  0.4367811299847659  0.6763246951257073  1.0000
  C   C1        1.0  0.11646300560631323  0.19584089534100704  0.02795475294946209  1.0000
  C   C2        1.0  0.38353812128156056  0.8041622186214638  0.5279583742266709  1.0000
  C   C3        1.0  0.8835360180947944  0.8041621978423732  0.9720454992287058  1.0000
  C   C4        1.0  0.6164573787609768  0.19583612925145383  0.47204063016909703  1.0000
  C   C5        1.0  0.10479791248435791  0.23087067310244444  0.9446220326710558  1.0000
  C   C6        1.0  0.39520836329914044  0.7691317625216032  0.4446310333731985  1.0000
  C   C7        1.0  0.8952081548949096  0.7691295983298756  0.055376971726289484  1.0000
  C   C8        1.0  0.60478789207761  0.2308684816642383  0.555372338250997  1.0000
  C   C9        1.0  0.964547952915936  0.3093271667713324  0.9194319441382106  1.0000
  C   C10       1.0  0.5354518592412135  0.6906710264286887  0.4194352049740856  1.0000
  C   C11       1.0  0.03545006246911709  0.6906692938819462  0.0805689319251783  1.0000
  C   C12       1.0  0.4645447737962912  0.3093301659059478  0.5805650472027679  1.0000
  C   C13       1.0  0.8377775599677052  0.35173880758853926  0.9814129037820647  1.0000
  C   C14       1.0  0.6622203876757313  0.6482586120619729  0.48141362128571785  1.0000
  C   C15       1.0  0.16221479408523717  0.6482557431326298  0.018588596169500694  1.0000
  C   C16       1.0  0.3377815290301385  0.3517435420523682  0.5185866308919242  1.0000
  C   C17       1.0  0.8593682610022881  0.316340706564283  0.06338679258485057  1.0000
  C   C18       1.0  0.6406327111752431  0.6836574102221816  0.5633921127704865  1.0000
  C   C19       1.0  0.14062522604262995  0.6836566886150023  0.9366134595894164  1.0000
  C   C20       1.0  0.3593717208716427  0.3163428566707154  0.4366087632955951  1.0000
  C   C21       1.0  0.2611026659155868  0.10910907029511918  0.055006553445466  1.0000
  C   C22       1.0  0.2389029294434267  0.8908969754021429  0.5550102794568232  1.0000
  C   C23       1.0  0.7388984954612995  0.8908911875126082  0.9449936987309184  1.0000
  C   C24       1.0  0.76110414625564  0.10910992856479847  0.444991220503283  1.0000
  C   C25       1.0  0.9495568244085177  0.3445385178915146  0.8299200309114312  1.0000
  C   C26       1.0  0.5504320812920227  0.6554612810969401  0.3299244943235208  1.0000
  C   C27       1.0  0.05043779562987544  0.6554617217476916  0.1700802212647332  1.0000
  C   C28       1.0  0.4495634187520068  0.34453706677778223  0.6700757578514354  1.0000
  N   N1        1.0  0.17419138855571253  0.09295568687548442  0.2715374065590197  1.0000
  N   N2        1.0  0.3258133395673256  0.9070434039977046  0.7715411590609589  1.0000
  N   N3        1.0  0.8258193354748471  0.9070521743263171  0.7284622217330392  1.0000
  N   N4        1.0  0.6741879464839826  0.092953065736225  0.22845722144415248  1.0000
  N   N5        1.0  0.08913770775019011  0.9941289026977601  0.3060185004560266  1.0000
  N   N6        1.0  0.4108642099741573  0.005871226907743199  0.8060217016061129  1.0000
  N   N7        1.0  0.9108686126191472  0.0058761049616649  0.6939823756132169  1.0000
  N   N8        1.0  0.589134183073142  0.9941261818961279  0.19397730278912204  1.0000
  N   N9        1.0  0.01118539943117729  0.8994008965284834  0.3396629302382408  1.0000
  N   N10       1.0  0.48882289088381004  0.10060692463729741  0.8396687558234743  1.0000
  N   N11       1.0  0.988826457591365  0.10060980913144141  0.6603354502765197  1.0000
  N   N12       1.0  0.5111773904881789  0.899395224935809  0.16033212024371574  1.0000
  N   N13       1.0  0.3552034122405274  0.3330644159226779  0.22655263398082323  1.0000
  N   N14       1.0  0.14479995044223415  0.6669354885382505  0.7265566847375027  1.0000
  N   N15       1.0  0.6447982514722811  0.6669330019609491  0.7734432509665435  1.0000
  N   N16       1.0  0.8552048592668983  0.3330657265052465  0.2734423196604254  1.0000
  N   N17       1.0  0.43575578854733993  0.41894514573623104  0.17938289594238196  1.0000
  N   N18       1.0  0.06424620345860184  0.5810555659946174  0.6793855814784207  1.0000
  N   N19       1.0  0.5642500294696334  0.5810627018274559  0.820608621784771  1.0000
  N   N20       1.0  0.9357539495977394  0.41893805927759326  0.320611551245605  1.0000
  N   N21       1.0  0.508816590380107  0.5014542150072856  0.133900152931993  1.0000
  N   N22       1.0  0.9911865637214065  0.49854505828051293  0.6339015088178782  1.0000
  N   N23       1.0  0.491179789668081  0.4985422411011483  0.8660988514625598  1.0000
  N   N24       1.0  0.00881837066962286  0.5014523686982032  0.36610186280474005  1.0000
  N   N25       1.0  0.9944769764874337  0.23994940847946108  0.08692485335890858  1.0000
  N   N26       1.0  0.5055202790657063  0.7600516071696005  0.5869265219807147  1.0000
  N   N27       1.0  0.005520536553469068  0.7600498920879986  0.9130735271479435  1.0000
  N   N28       1.0  0.4944806293218633  0.2399439144119313  0.41307248241336225  1.0000
