data_image0
_chemical_formula_structural       Ag2H20C30N10O8
_chemical_formula_sum              "Ag2 H20 C30 N10 O8"
_cell_length_a       3.8141090446345203
_cell_length_b       11.820579447275806
_cell_length_c       16.782797479528284
_cell_angle_alpha    90.00079382175149
_cell_angle_beta     90.30487783002545
_cell_angle_gamma    89.99996113401158

_space_group_name_H-M_alt    "P 1"
_space_group_IT_number       1

loop_
  _space_group_symop_operation_xyz
  'x, y, z'

loop_
  _atom_site_type_symbol
  _atom_site_label
  _atom_site_symmetry_multiplicity
  _atom_site_fract_x
  _atom_site_fract_y
  _atom_site_fract_z
  _atom_site_occupancy
  Ag  Ag1       1.0  0.8992981545611015  0.5746367599804569  0.2623250023634328  1.0000
  Ag  Ag2       1.0  0.10067903007746541  0.07464243499247658  0.7376785991284722  1.0000
  H   H1        1.0  0.9378264803977884  0.6861982052834249  0.6946897593823494  1.0000
  H   H2        1.0  0.062177048261432284  0.1861994934278357  0.3053102591586097  1.0000
  H   H3        1.0  0.9856926819842754  0.642350511484558  0.5669029077372585  1.0000
  H   H4        1.0  0.0142923808219066  0.14235605462824447  0.433099590738074  1.0000
  H   H5        1.0  0.40951090042084093  0.41765441377729223  0.744874712186622  1.0000
  H   H6        1.0  0.5904952170748529  0.9176588318605848  0.255122777131163  1.0000
  H   H7        1.0  0.9345722169447297  0.7843999940773474  0.7967899742074638  1.0000
  H   H8        1.0  0.06544697950025839  0.28440009001295147  0.2032098633378396  1.0000
  H   H9        1.0  0.45327762975227154  0.32761401834706305  0.49408436844579035  1.0000
  H   H10       1.0  0.5467339551768049  0.8276149928534338  0.5059104897876879  1.0000
  H   H11       1.0  0.006370907418713001  0.007116569868116999  0.0168729304234674  1.0000
  H   H12       1.0  0.993658869726964  0.5071142539624276  0.9831290508019634  1.0000
  H   H13       1.0  0.4207459022903989  0.6187794447839962  0.9519928488785896  1.0000
  H   H14       1.0  0.5792312924907036  0.11878391634074598  0.048009985590916016  1.0000
  H   H15       1.0  0.8961096626785476  0.9266899952042278  0.8832822525948603  1.0000
  H   H16       1.0  0.10394080336985212  0.42668327882218904  0.1167190855797671  1.0000
  H   H17       1.0  0.14771769061552928  0.507629436643512  0.4606485842035256  1.0000
  H   H18       1.0  0.8522913892572034  0.007630101516667799  0.5393485476993618  1.0000
  H   H19       1.0  0.316665984529287  0.8954885635232801  0.12061005561523792  1.0000
  H   H20       1.0  0.6833213269088959  0.3954884461991099  0.8793954838865404  1.0000
  C   C1        1.0  0.18509411317063498  0.5392737252704691  0.6632087905685682  1.0000
  C   C2        1.0  0.8148965036558166  0.03928051037488701  0.3367897599730298  1.0000
  C   C3        1.0  0.1152506608708279  0.5630433348024438  0.5821825418714255  1.0000
  C   C4        1.0  0.8847371642027682  0.06304833357459222  0.4178186092283057  1.0000
  C   C5        1.0  0.4472266184718022  0.3628013819208959  0.6214178201377933  1.0000
  C   C6        1.0  0.55277971068422  0.8628040438797199  0.3785767586660072  1.0000
  C   C7        1.0  0.3522024750912109  0.4375056234398754  0.6830408919308584  1.0000
  C   C8        1.0  0.647798510878431  0.9375087216112233  0.3169543832008799  1.0000
  C   C9        1.0  0.3759209674358813  0.3860177245143318  0.5409157685058759  1.0000
  C   C10       1.0  0.62408267444534  0.886021973189841  0.459079618288122  1.0000
  C   C11       1.0  0.17890532728542038  0.6271404715831466  0.7975687694979714  1.0000
  C   C12       1.0  0.8210930024467584  0.12714203605385416  0.2024312548196221  1.0000
  C   C13       1.0  0.0964119871874445  0.9219886607769966  0.003143424443401  1.0000
  C   C14       1.0  0.9035937787146011  0.4219882887991916  0.9968600640768486  1.0000
  C   C15       1.0  0.32468463193853836  0.702680734314761  0.9664282358015871  1.0000
  C   C16       1.0  0.6752950723208783  0.20268404542789395  0.0335754165175004  1.0000
  C   C17       1.0  0.035561468543896496  0.8768842020006176  0.927928488368977  1.0000
  C   C18       1.0  0.9644548442777107  0.37688143392175977  0.0720746105145196  1.0000
  C   C19       1.0  0.147546146846949  0.7664672381438037  0.9083285554566275  1.0000
  C   C20       1.0  0.8524598615661033  0.2664682758807473  0.0916728417637387  1.0000
  C   C21       1.0  0.2070906304478228  0.48734677608506854  0.5225143276838011  1.0000
  C   C22       1.0  0.792910081403292  0.9873496535678606  0.4774850012654711  1.0000
  C   C23       1.0  0.37846846082295116  0.7496937384399728  0.042494788402976304  1.0000
  C   C24       1.0  0.6215007631267255  0.2496977347408559  0.9575080803887703  1.0000
  C   C25       1.0  0.2668303317792676  0.859433915955421  0.06204254495148832  1.0000
  C   C26       1.0  0.7331491974838258  0.35943410757688804  0.9379620189951653  1.0000
  C   C27       1.0  0.6205526010162359  0.26103160031383504  0.64255726348609  1.0000
  C   C28       1.0  0.37945914209287673  0.7610338881275707  0.3574357629631493  1.0000
  C   C29       1.0  0.5486622297096347  0.6841789075718904  0.1019650139522952  1.0000
  C   C30       1.0  0.45129918229483923  0.18418007207171883  0.898037787478259  1.0000
  N   N1        1.0  0.08057222412190866  0.6201611894290692  0.718548691245431  1.0000
  N   N2        1.0  0.9194181808194982  0.12016514959555019  0.28145242439038043  1.0000
  N   N3        1.0  0.4601325447239901  0.37143079630753556  0.3220895863656636  1.0000
  N   N4        1.0  0.5398839828651915  0.8714352047022088  0.6779098855828991  1.0000
  N   N5        1.0  0.6825507015214569  0.6314332470641019  0.15239352725798486  1.0000
  N   N6        1.0  0.31739236027005546  0.13143428814654362  0.8476098812559911  1.0000
  N   N7        1.0  0.07287776564803038  0.7280749661204168  0.8318188927113115  1.0000
  N   N8        1.0  0.92713360656375  0.2280741260320198  0.16818096585448933  1.0000
  N   N9        1.0  0.7583094793102845  0.1768252383618503  0.6614883211262851  1.0000
  N   N10       1.0  0.24169696017619202  0.6768254943846941  0.3385068522681821  1.0000
  O   O1        1.0  0.6807017455366235  0.4369490314371162  0.35483887602715924  1.0000
  O   O2        1.0  0.3193093128288779  0.9369511551052766  0.6451635869184928  1.0000
  O   O3        1.0  0.33654508429735597  0.39583924926711933  0.2530371070204325  1.0000
  O   O4        1.0  0.6634740323113703  0.8958433095613002  0.7469626106762846  1.0000
  O   O5        1.0  0.364044665268672  0.2827307715502272  0.3573143878385779  1.0000
  O   O6        1.0  0.6359799496110979  0.782737834541386  0.6426824769735264  1.0000
  O   O7        1.0  0.34709646530948374  0.553082678051581  0.8335329982792035  1.0000
  O   O8        1.0  0.6529019980167307  0.0530861091028925  0.16646571812538727  1.0000
