data_image0
_chemical_formula_structural       Al6H33C66O34F5
_chemical_formula_sum              "Al6 H33 C66 O34 F5"
_cell_length_a       10.402865371539889
_cell_length_b       12.399888605652482
_cell_length_c       23.734240193144704
_cell_angle_alpha    89.33857819289194
_cell_angle_beta     84.86099127239456
_cell_angle_gamma    66.62140699266594

_space_group_name_H-M_alt    "P 1"
_space_group_IT_number       1

loop_
  _space_group_symop_operation_xyz
  'x, y, z'

loop_
  _atom_site_type_symbol
  _atom_site_label
  _atom_site_symmetry_multiplicity
  _atom_site_fract_x
  _atom_site_fract_y
  _atom_site_fract_z
  _atom_site_occupancy
  Al  Al1       1.0  0.7890058572495352  0.5959886293651097  0.5003571112795484  1.0000
  Al  Al2       1.0  0.06121709531153396  0.353483681909708  0.49758500397768296  1.0000
  Al  Al3       1.0  0.10412381420491817  0.5789425045309571  0.49152829374104107  1.0000
  Al  Al4       1.0  0.8702693718746916  0.02045724602481161  0.9821720330056535  1.0000
  Al  Al5       1.0  0.5506018387862853  0.0380649090179119  0.9956701077439335  1.0000
  Al  Al6       1.0  0.5960110834655907  0.26100315444015376  0.9960897926709862  1.0000
  H   H1        1.0  0.3776961408129298  0.39965460805682074  0.1409454772544123  1.0000
  H   H2        1.0  0.5944848815947457  0.5303063510706351  0.7633834626184209  1.0000
  H   H3        1.0  0.6392918082512223  0.5530374700931519  0.659100711582809  1.0000
  H   H4        1.0  0.015457056890639403  0.23681954816389356  0.6517715703074174  1.0000
  H   H5        1.0  0.22654297671029167  0.11833183178849543  0.2511821785935311  1.0000
  H   H6        1.0  0.23314804759494476  0.5870106693402519  0.703865756603399  1.0000
  H   H7        1.0  0.4182577712131706  0.5236951203087087  0.6814945761696336  1.0000
  H   H8        1.0  0.3549886916270851  0.6107686818974543  0.7459516145454542  1.0000
  H   H9        1.0  0.46154446721623543  0.8338621421970629  0.8910508083945247  1.0000
  H   H10       1.0  0.3783403718911417  0.8548609582033395  0.8258156536342157  1.0000
  H   H11       1.0  0.3001619855712081  0.9578063596935209  0.8844044279973602  1.0000
  H   H12       1.0  0.9578817466425705  0.3202926365866148  0.2341740069296279  1.0000
  H   H13       1.0  0.556854260209299  0.5032548584478889  0.2525975425403644  1.0000
  H   H14       1.0  0.5310212522786275  0.5583102455247868  0.18199635338344677  1.0000
  H   H15       1.0  0.5719565961267818  0.4058986804249328  0.1945341353578129  1.0000
  H   H16       1.0  0.1841786411391838  0.6809140757900067  0.3402405914289588  1.0000
  H   H17       1.0  0.32541726206034854  0.6781121894129785  0.2900130263775935  1.0000
  H   H18       1.0  0.33683584415157963  0.6909775586289868  0.3649114414050132  1.0000
  H   H19       1.0  0.8023379860439591  0.5981239289819841  0.1695280210397314  1.0000
  H   H20       1.0  0.6326155565634154  0.686322537221436  0.20457406813742549  1.0000
  H   H21       1.0  0.7418316708892406  0.5504280395503471  0.2345310870064594  1.0000
  H   H22       1.0  0.5780675079413271  0.2818140510984719  0.34587878014782086  1.0000
  H   H23       1.0  0.30704053873741094  0.19860664070695586  0.7409225838146796  1.0000
  H   H24       1.0  0.7060890710079022  0.13241690305640222  0.3393811081189853  1.0000
  H   H25       1.0  0.5505145718896715  0.17661190788201253  0.3024318584162629  1.0000
  H   H26       1.0  0.9489538927919842  0.8507094320248214  0.82903854332055  1.0000
  H   H27       1.0  0.09101032758881183  0.7925805015857323  0.7372966698872502  1.0000
  H   H28       1.0  0.11131124478149006  0.7369205190093239  0.6349029022717829  1.0000
  H   H29       1.0  0.6584017075292439  0.4137180226017634  0.8495110796062876  1.0000
  H   H30       1.0  0.29288594953622754  0.0868292362015239  0.1473813879486343  1.0000
  H   H31       1.0  0.04179519656248939  0.10144350366591232  0.8430708573730357  1.0000
  H   H32       1.0  0.5684475625404846  0.7379870437085073  0.5315812363162209  1.0000
  H   H33       1.0  0.09317743387155292  0.8891345010177717  0.0031980217507907942  1.0000
  C   C1        1.0  0.8551521462426522  0.37696641377657863  0.4281612877230713  1.0000
  C   C2        1.0  0.8245206225490238  0.7774158921070864  0.22391754166991967  1.0000
  C   C3        1.0  0.8726874462850772  0.8376669200860224  0.259182234495718  1.0000
  C   C4        1.0  0.2301784017318411  0.4007673958051114  0.4064821019311112  1.0000
  C   C5        1.0  0.8937279052826317  0.8089046330936328  0.3153124049841196  1.0000
  C   C6        1.0  0.7973414307394788  0.8112396624367265  0.1681184178340303  1.0000
  C   C7        1.0  0.9045499112626701  0.7731650337653235  0.3636200819234929  1.0000
  C   C8        1.0  0.8374073126061037  0.24615991367823395  0.12369263639838829  1.0000
  C   C9        1.0  0.8766946171268871  0.2883884271504513  0.22728327509905447  1.0000
  C   C10       1.0  0.7970099864283285  0.2744180140355326  0.2737501461575675  1.0000
  C   C11       1.0  0.8137656287356877  0.30690737290798603  0.3286722531594961  1.0000
  C   C12       1.0  0.3195815803797404  0.4558719824497216  0.3113692444424032  1.0000
  C   C13       1.0  0.8575706575043114  0.2644050194569161  0.1719245722495302  1.0000
  C   C14       1.0  0.8250418457915246  0.3375663190174123  0.3758952479262092  1.0000
  C   C15       1.0  0.35743679642752824  0.25467714625217763  0.8697890341606325  1.0000
  C   C16       1.0  0.9187016090321122  0.7144298424435721  0.41657273403724554  1.0000
  C   C17       1.0  0.32419899965479715  0.2692835234416435  0.7615961344789923  1.0000
  C   C18       1.0  0.33226964373167794  0.35878553077488823  0.728448645532957  1.0000
  C   C19       1.0  0.31687042636777835  0.36016046242879435  0.6698394641081933  1.0000
  C   C20       1.0  0.33989505646675167  0.26388178389875355  0.819353748585563  1.0000
  C   C21       1.0  0.3011752180811769  0.3685139226199611  0.6193580165015504  1.0000
  C   C22       1.0  0.7278436581789124  0.8978087892558905  0.8409216924276776  1.0000
  C   C23       1.0  0.2488777214714731  0.29079354444299105  0.3154651838950571  1.0000
  C   C24       1.0  0.8923379860233714  0.7707887909380771  0.6336231675754078  1.0000
  C   C25       1.0  0.9994482055791567  0.7969523578253758  0.716809322372164  1.0000
  C   C26       1.0  0.010936751884855822  0.7668610844722396  0.6606526978073148  1.0000
  C   C27       1.0  0.7620137588682284  0.8121483575574971  0.664973663681323  1.0000
  C   C28       1.0  0.8540446083809672  0.41131709409697953  0.5884968241722746  1.0000
  C   C29       1.0  0.7448114425065241  0.8454073788787967  0.723199748550435  1.0000
  C   C30       1.0  0.8680831734327512  0.8339880825397477  0.7499604827811338  1.0000
  C   C31       1.0  0.8558452872207027  0.8600862733533108  0.808316438341663  1.0000
  C   C32       1.0  0.6026578158529716  0.9165210788856086  0.8145489604845437  1.0000
  C   C33       1.0  0.6148391555713391  0.8892005279294751  0.7571380505388278  1.0000
  C   C34       1.0  0.2702512290025468  0.2751233861427807  0.2558731041377982  1.0000
  C   C35       1.0  0.8462918548339362  0.25767981660469996  0.8518369018245622  1.0000
  C   C36       1.0  0.8282442430953411  0.394038713825026  0.649919462785462  1.0000
  C   C37       1.0  0.6859239148535322  0.46659769806877455  0.7386562354362242  1.0000
  C   C38       1.0  0.7095244540891628  0.4789107045600787  0.681497587072414  1.0000
  C   C39       1.0  0.9237170320457084  0.3000091484923146  0.6764590855180543  1.0000
  C   C40       1.0  0.2492550502487134  0.3895528795864678  0.5645029353039703  1.0000
  C   C41       1.0  0.9019719552746968  0.2870100042614254  0.7352700492458338  1.0000
  C   C42       1.0  0.7796288910120381  0.37032912170232635  0.7672636328833277  1.0000
  C   C43       1.0  0.7538953358104765  0.3535506069365796  0.825531628788454  1.0000
  C   C44       1.0  0.9704630535278157  0.1763263780135702  0.8215437605268859  1.0000
  C   C45       1.0  0.30971189449527264  0.35771066696177206  0.2241602132665861  1.0000
  C   C46       1.0  0.9950630195582166  0.19294578389062883  0.7652189541821244  1.0000
  C   C47       1.0  0.7463806945204752  0.8935362289386152  0.0653323877586303  1.0000
  C   C48       1.0  0.4045144622683168  0.21380265278531144  0.0790617497409656  1.0000
  C   C49       1.0  0.8025720665333508  0.217543763645189  0.0701513457604506  1.0000
  C   C50       1.0  0.726250188121334  0.9242287856283011  0.9023608636937298  1.0000
  C   C51       1.0  0.4127423132486642  0.2294928896597526  0.9235317328479198  1.0000
  C   C52       1.0  0.9160663952183443  0.7200861472881712  0.5751850507102247  1.0000
  C   C53       1.0  0.8101423601808336  0.22962553110696868  0.9106253155538865  1.0000
  C   C54       1.0  0.34049008246022083  0.24187197757479592  0.13840994102912418  1.0000
  C   C55       1.0  0.27079483741364646  0.3786720822299899  0.3445159056341184  1.0000
  C   C56       1.0  0.3428224754484788  0.3395840881035214  0.16509202388898103  1.0000
  C   C57       1.0  0.3300773949905677  0.4489581235841413  0.2526196309820818  1.0000
  C   C58       1.0  0.3391275155758109  0.5482340618962311  0.7181075407643435  1.0000
  C   C59       1.0  0.39938066771116354  0.8989835326615536  0.8617073026237421  1.0000
  C   C60       1.0  0.5165169615887422  0.4957528603350099  0.2121894751119839  1.0000
  C   C61       1.0  0.298540738858698  0.652367588182763  0.3323979472798726  1.0000
  C   C62       1.0  0.7411413924774166  0.6267412631075332  0.2108375577887216  1.0000
  C   C63       1.0  0.6292962780330387  0.2044832734920945  0.3173471070828739  1.0000
  C   C64       1.0  0.2952857903706417  0.1624215342704787  0.1694512937481107  1.0000
  C   C65       1.0  0.25949485158317037  0.17955649798992826  0.2269420473778894  1.0000
  C   C66       1.0  0.7710048437839138  0.8412167777939247  0.11990505467190361  1.0000
  O   O1        1.0  0.8266025421220248  0.6748002308835553  0.43156946362286414  1.0000
  O   O2        1.0  0.44777655510155523  0.28675711410318183  0.054003389373868116  1.0000
  O   O3        1.0  0.6893354806107299  0.294987677874147  0.051926676376169184  1.0000
  O   O4        1.0  0.7769990646699158  0.478218376424941  0.4474028146778295  1.0000
  O   O5        1.0  0.8864412958856818  0.1295054208294033  0.9275097150878651  1.0000
  O   O6        1.0  0.8312404833070487  0.9386493145627026  0.9180050511219449  1.0000
  O   O7        1.0  0.6172758708033969  0.9317762836820476  0.9354425858251005  1.0000
  O   O8        1.0  0.4172582889544075  0.13530671149018053  0.947673863194261  1.0000
  O   O9        1.0  0.4612722147817863  0.30090469263974035  0.9428495523117989  1.0000
  O   O10       1.0  0.7011510538538632  0.3050695720365583  0.939349879698625  1.0000
  O   O11       1.0  0.6711768313000591  0.10623249855370892  0.99215465222872  1.0000
  O   O12       1.0  0.20544216958049336  0.3144939728383421  0.5462918805594796  1.0000
  O   O13       1.0  0.966066640534102  0.30334700104523193  0.4489930622072151  1.0000
  O   O14       1.0  0.19960989983998456  0.3248055047472462  0.43507605864130733  1.0000
  O   O15       1.0  0.21918313463673678  0.4989507694020786  0.4275767057552713  1.0000
  O   O16       1.0  0.02602706205136947  0.7035103297710492  0.4432526985544172  1.0000
  O   O17       1.0  0.8168450351841018  0.7101246567507716  0.5518833877942839  1.0000
  O   O18       1.0  0.7764639120331938  0.5076468086875039  0.5683318832534638  1.0000
  O   O19       1.0  0.9567555433772842  0.328104686549068  0.5603465978565936  1.0000
  O   O20       1.0  0.3541493878393638  0.4479839524399907  0.7524436301199131  1.0000
  O   O21       1.0  0.47201608743925766  0.97193408135189  0.841927830759964  1.0000
  O   O22       1.0  0.36703936708843093  0.5266256647089378  0.2202588788725208  1.0000
  O   O23       1.0  0.24267719038441277  0.4834085702119567  0.5399170972816449  1.0000
  O   O24       1.0  0.36697674585258977  0.5266000099545067  0.3386690395806156  1.0000
  O   O25       1.0  0.8043434332000319  0.6826184404953749  0.24555408729074907  1.0000
  O   O26       1.0  0.6965051452183461  0.23270146332953356  0.2669212124369196  1.0000
  O   O27       1.0  0.044925760784288116  0.6828796388760808  0.5529066121083872  1.0000
  O   O28       1.0  0.9864366664679596  0.5081852034775808  0.49721532365006027  1.0000
  O   O29       1.0  0.8803511587687965  0.12011673328570543  0.0463455807968813  1.0000
  O   O30       1.0  0.8463908174762197  0.9148675789639783  0.0409288677304431  1.0000
  O   O31       1.0  0.6250957579887246  0.9178107142365023  0.04758096949382919  1.0000
  O   O32       1.0  0.42159417801767773  0.113964563836106  0.0578729696384457  1.0000
  O   O33       1.0  0.6069925786973585  0.6762373172234107  0.5027223332473341  1.0000
  O   O34       1.0  0.05288719690850739  0.9379216967633469  0.9719656672034347  1.0000
  F   F1        1.0  0.4936670608164136  0.9100960167430115  0.7332017377470592  1.0000
  F   F2        1.0  0.6462885568816716  0.8200562639367207  0.640730977889156  1.0000
  F   F3        1.0  0.11337278457372693  0.11489179433572619  0.7353580542115523  1.0000
  F   F4        1.0  0.20549742177066582  0.2139319625600181  0.34358861404658814  1.0000
  F   F5        1.0  0.9029261572304466  0.9286331779646918  0.23792827393360477  1.0000
