data_image0
_chemical_formula_structural       Fe2Ag2P2H46C58Se2S2O6F6
_chemical_formula_sum              "Fe2 Ag2 P2 H46 C58 Se2 S2 O6 F6"
_cell_length_a       9.679823924558606
_cell_length_b       11.910133484592373
_cell_length_c       12.7493
_cell_angle_alpha    66.6576806075893
_cell_angle_beta     86.68448178084095
_cell_angle_gamma    84.26183826901597

_space_group_name_H-M_alt    "P 1"
_space_group_IT_number       1

loop_
  _space_group_symop_operation_xyz
  'x, y, z'

loop_
  _atom_site_type_symbol
  _atom_site_label
  _atom_site_symmetry_multiplicity
  _atom_site_fract_x
  _atom_site_fract_y
  _atom_site_fract_z
  _atom_site_occupancy
  Fe  Fe1       1.0  0.6457593206464339  0.1503191374759894  0.21393400125172235  1.0000
  Fe  Fe2       1.0  0.3542427817735145  0.8496802621541661  0.7860759331133594  1.0000
  Ag  Ag1       1.0  0.2808671747249534  0.44881179227973417  0.09599076946086173  1.0000
  Ag  Ag2       1.0  0.7191265619117148  0.551188525066479  0.9040089959237748  1.0000
  P   P1        1.0  0.29825679780787334  0.24470806967669737  0.2407074367706343  1.0000
  P   P2        1.0  0.7017454792391788  0.7552894945213352  0.7592898352354427  1.0000
  H   H1        1.0  0.4863057261577239  0.08976914955479029  0.06995327629748971  1.0000
  H   H2        1.0  0.5137053532403684  0.9102229083468812  0.9300534908846531  1.0000
  H   H3        1.0  0.6739117829081991  0.9164395169371673  0.2069475520696074  1.0000
  H   H4        1.0  0.326097052245359  0.0835543763966271  0.7930656934949808  1.0000
  H   H5        1.0  0.9060275303649733  0.0254537726395085  0.20647509959592006  1.0000
  H   H6        1.0  0.09397569417725289  0.974544709274582  0.7935398313242104  1.0000
  H   H7        1.0  0.8647342281484286  0.2667506917212776  0.0689599515637482  1.0000
  H   H8        1.0  0.1352753798731925  0.7332459547606973  0.9310538097159481  1.0000
  H   H9        1.0  0.4874762939609029  0.9929357391165112  0.3926604917056056  1.0000
  H   H10       1.0  0.5125245990232372  0.0070654959457599  0.607352738175891  1.0000
  H   H11       1.0  0.7498240614394405  0.0170585061228437  0.43365814783551576  1.0000
  H   H12       1.0  0.25017423804595756  0.9829482352357884  0.5663562952316924  1.0000
  H   H13       1.0  0.7984074224375705  0.25755701223243216  0.32440277801504896  1.0000
  H   H14       1.0  0.20158372070036276  0.7424488114101421  0.6756021223392424  1.0000
  H   H15       1.0  0.5648643486724012  0.3817680455181431  0.21791317967010576  1.0000
  H   H16       1.0  0.43512912602361103  0.6182350249762507  0.7820847937981484  1.0000
  H   H17       1.0  0.7645757844187315  0.4639550249854096  0.7435498326134111  1.0000
  H   H18       1.0  0.23543296342127465  0.5360397860644497  0.25644660560543303  1.0000
  H   H19       1.0  0.7837637576442873  0.4543235949359499  0.5523040014044797  1.0000
  H   H20       1.0  0.21623566396338137  0.5456822287066244  0.4476872013734052  1.0000
  H   H21       1.0  0.6192493734717885  0.3384729549566288  0.49866794299817496  1.0000
  H   H22       1.0  0.38074089653063226  0.6615420458465451  0.501320264758732  1.0000
  H   H23       1.0  0.4376113319281601  0.2311891943971816  0.6381757053142678  1.0000
  H   H24       1.0  0.562386967557238  0.7688175469614505  0.3618159914060827  1.0000
  H   H25       1.0  0.4119872509874298  0.2475162808202285  0.8276775805558644  1.0000
  H   H26       1.0  0.5880182177993236  0.7524803656617465  0.1723183222732062  1.0000
  H   H27       1.0  0.03814801651989091  0.1269302259714209  0.34857679036801414  1.0000
  H   H28       1.0  0.9618505578600537  0.8730627496463086  0.6514192052324007  1.0000
  H   H29       1.0  0.9127573316054979  0.1086539106369884  0.5290406157215131  1.0000
  H   H30       1.0  0.08723856196215252  0.8913454889931671  0.47095390414105515  1.0000
  H   H31       1.0  0.004357821073632802  0.1958277591741648  0.6566928305078505  1.0000
  H   H32       1.0  0.9956378978669208  0.8041734758881062  0.34330023329153664  1.0000
  H   H33       1.0  0.2239566606889554  0.2985991098667071  0.6037296576537515  1.0000
  H   H34       1.0  0.7760426865590518  0.70139661889921  0.3962652849481998  1.0000
  H   H35       1.0  0.3527668695105746  0.3132788959620925  0.4260284122221237  1.0000
  H   H36       1.0  0.6472315302422658  0.6867159150877669  0.5739669116718957  1.0000
  H   H37       1.0  0.1886665483924546  0.2710602863389227  0.028408205805604315  1.0000
  H   H38       1.0  0.8113307162842246  0.7289464550197096  0.9715882424943558  1.0000
  H   H39       1.0  0.11906845452167401  0.1248479282313326  0.9509953607530122  1.0000
  H   H40       1.0  0.8809244089794818  0.8751615662754801  0.049000261742847405  1.0000
  H   H41       1.0  0.13739595473226981  0.9003271760721532  0.07126962777923752  1.0000
  H   H42       1.0  0.8626021701260242  0.0996814007185947  0.9287213972347175  1.0000
  H   H43       1.0  0.22126409362697794  0.8244531653814703  0.26998200618661633  1.0000
  H   H44       1.0  0.778734293171965  0.175552658261104  0.7300100263869355  1.0000
  H   H45       1.0  0.28696405161130667  0.9697955286642069  0.34932027892205764  1.0000
  H   H46       1.0  0.7130355446234589  0.0302084595462517  0.6506739486325941  1.0000
  C   C1        1.0  0.6546692481434421  0.2177942107857618  0.04141643934750762  1.0000
  C   C2        1.0  0.3453394996965713  0.7822006002640903  0.9585894111527936  1.0000
  C   C3        1.0  0.59096950026521  0.10323296187070949  0.08622315878802311  1.0000
  C   C4        1.0  0.40903510833993556  0.8967618491791497  0.9137852265381455  1.0000
  C   C5        1.0  0.6903653902514719  0.012170750387411998  0.1577710222737707  1.0000
  C   C6        1.0  0.30963964196752874  0.9878304846748662  0.8422341822843437  1.0000
  C   C7        1.0  0.8135424796667793  0.0699281283380984  0.15760948932209123  1.0000
  C   C8        1.0  0.18646083218899895  0.9300694358599344  0.8424049930944549  1.0000
  C   C9        1.0  0.7923176336083273  0.1974640469091042  0.08546908117074992  1.0000
  C   C10       1.0  0.2076899921094153  0.8025316818568127  0.9145396163423813  1.0000
  C   C11       1.0  0.47406420707799424  0.19804129031082598  0.290315841728308  1.0000
  C   C12       1.0  0.5259305643673926  0.8019590270353872  0.7096878000013974  1.0000
  C   C13       1.0  0.5361339806898614  0.0785757667712588  0.36224126420187736  1.0000
  C   C14       1.0  0.46386277305941104  0.9214254682910193  0.6377658725808216  1.0000
  C   C15       1.0  0.6750673116668864  0.0918459409985175  0.3856785025496379  1.0000
  C   C16       1.0  0.3249280580194593  0.9081589649279991  0.6143320423998733  1.0000
  C   C17       1.0  0.7006034388943548  0.21854398480676449  0.3289841142556967  1.0000
  C   C18       1.0  0.2993917561648943  0.7814627565518676  0.671017915419526  1.0000
  C   C19       1.0  0.5775891149790269  0.2841331516132897  0.27053199106457987  1.0000
  C   C20       1.0  0.4224072151563831  0.7158616594365625  0.7294712672750735  1.0000
  C   C21       1.0  0.5867184455421822  0.3567199033771402  0.7965629583269875  1.0000
  C   C22       1.0  0.4132883199939457  0.6432739899566542  0.20343547533637724  1.0000
  C   C23       1.0  0.6913566518141607  0.4147195583676648  0.7196603684611916  1.0000
  C   C24       1.0  0.3086486423454957  0.5852789235464328  0.28033329394790485  1.0000
  C   C25       1.0  0.7021919822311845  0.4088369984232115  0.6120814699095973  1.0000
  C   C26       1.0  0.2978045968909839  0.5911660720711822  0.38791166110129893  1.0000
  C   C27       1.0  0.6101322664576472  0.3436874176094165  0.5823130487437284  1.0000
  C   C28       1.0  0.3898637887832167  0.6563211591813385  0.41767806714797473  1.0000
  C   C29       1.0  0.5075406720724516  0.2840588166124363  0.6605797428873714  1.0000
  C   C30       1.0  0.49245857490811323  0.7159488424622609  0.33941235689769667  1.0000
  C   C31       1.0  0.4941177061643885  0.29141614626527  0.7674510790573521  1.0000
  C   C32       1.0  0.5058855183778306  0.7085823356488277  0.2325434585862852  1.0000
  C   C33       1.0  0.20460822890636624  0.2201646713686856  0.37549752002092873  1.0000
  C   C34       1.0  0.7953859442980546  0.7798310573972315  0.6244976497753925  1.0000
  C   C35       1.0  0.08026975017256893  0.1629111195349253  0.4052412717888458  1.0000
  C   C36       1.0  0.9197264053357371  0.8370855269470496  0.5947534712765332  1.0000
  C   C37       1.0  0.0091407757337407  0.15361557356342098  0.5064826204797725  1.0000
  C   C38       1.0  0.9908583968871697  0.8463819906346117  0.4935092973454119  1.0000
  C   C39       1.0  0.06049588885279891  0.20217193029678526  0.5782433278336967  1.0000
  C   C40       1.0  0.9394978477838691  0.7978283870494279  0.42174780962627545  1.0000
  C   C41       1.0  0.18419143761736478  0.2594722856496006  0.5487175535311124  1.0000
  C   C42       1.0  0.8158067001948268  0.7405252785484322  0.4512759784465247  1.0000
  C   C43       1.0  0.25636056758258974  0.2679611592043827  0.44846954901650093  1.0000
  C   C44       1.0  0.7436398144741362  0.7320345695615273  0.5515253481465765  1.0000
  C   C45       1.0  0.24395232625241192  0.1307424184845658  0.19344318749372752  1.0000
  C   C46       1.0  0.7560507236627104  0.8692578988616475  0.8065538158706645  1.0000
  C   C47       1.0  0.19555354856978371  0.1731142866897457  0.08152636001675263  1.0000
  C   C48       1.0  0.8044416464894651  0.8268924546688865  0.9184693948041698  1.0000
  C   C49       1.0  0.15658417713095932  0.0905895877124081  0.03799429140946132  1.0000
  C   C50       1.0  0.8434118781099045  0.9094189890783468  0.9620015306229774  1.0000
  C   C51       1.0  0.1658824628076161  0.9651041641656021  0.10558875308225185  1.0000
  C   C52       1.0  0.8341148018690633  0.03490257719302999  0.8944029890769798  1.0000
  C   C53       1.0  0.21306762385541586  0.9224037536109506  0.21734006812585702  1.0000
  C   C54       1.0  0.7869320596929016  0.0775993168834432  0.7826529265684101  1.0000
  C   C55       1.0  0.2512618806426588  0.0044922201135833  0.2616612424239975  1.0000
  C   C56       1.0  0.7487379775327625  0.9955090149486877  0.7383347770470367  1.0000
  C   C57       1.0  0.8900551896836151  0.5374411384880347  0.2726578259505389  1.0000
  C   C58       1.0  0.10994734930409321  0.46255367256182467  0.7273490815398063  1.0000
  Se  Se1       1.0  0.561441934297882  0.3711014317530328  0.9442042342633388  1.0000
  Se  Se2       1.0  0.4385647439246867  0.6288933792968194  0.05579543226040332  1.0000
  S   S1        1.0  0.9271357354699249  0.49236659648622083  0.14863231779047234  1.0000
  S   S2        1.0  0.07286334983742651  0.5076318854278696  0.8513718138901256  1.0000
  O   O1        1.0  0.0403211943207538  0.5675339658107248  0.08823308373298036  1.0000
  O   O2        1.0  0.9596788384817644  0.4324654338194307  0.9117753727962778  1.0000
  O   O3        1.0  0.9639061989062656  0.3612121234907235  0.19887610293008615  1.0000
  O   O4        1.0  0.03609297371463782  0.6387854407073092  0.8011236584629842  1.0000
  O   O5        1.0  0.7928248490893637  0.5306729825457026  0.09181273058779742  1.0000
  O   O6        1.0  0.20717535834025824  0.4693245816523302  0.9081916915071206  1.0000
  F   F1        1.0  0.9973619499125804  0.5012748662804114  0.3460240686350958  1.0000
  F   F2        1.0  0.0026437808148287  0.498719027053383  0.6539799009646644  1.0000
  F   F3        1.0  0.8666896752904663  0.662112865235855  0.23534793779263916  1.0000
  F   F4        1.0  0.13330993389819673  0.3378801103818816  0.7646621307910949  1.0000
  F   F5        1.0  0.7753052878097151  0.48748526476320814  0.33293531239935703  1.0000
  F   F6        1.0  0.2246997573631759  0.5125049577063479  0.6670739678360108  1.0000
