data_image0
_chemical_formula_structural       Cd2H36C36S4N8O8
_chemical_formula_sum              "Cd2 H36 C36 S4 N8 O8"
_cell_length_a       5.933455860341322
_cell_length_b       10.129046467912836
_cell_length_c       17.32149118533328
_cell_angle_alpha    89.99914161242357
_cell_angle_beta     98.13136933567334
_cell_angle_gamma    90.00020904296939

_space_group_name_H-M_alt    "P 1"
_space_group_IT_number       1

loop_
  _space_group_symop_operation_xyz
  'x, y, z'

loop_
  _atom_site_type_symbol
  _atom_site_label
  _atom_site_symmetry_multiplicity
  _atom_site_fract_x
  _atom_site_fract_y
  _atom_site_fract_z
  _atom_site_occupancy
  Cd  Cd1       1.0  0.9999925881812004  0.9999974435854142  1.3156403966150037e-06  1.0000
  Cd  Cd2       1.0  8.562504639491333e-06  0.5000012210880129  0.5000016567413751  1.0000
  H   H1        1.0  0.755139148547272  0.059907525587810505  0.15010045985895457  1.0000
  H   H2        1.0  0.24487752754546926  0.5599283291982644  0.3498984561650431  1.0000
  H   H3        1.0  0.24489980795888042  0.9400752279447248  0.8499097051120614  1.0000
  H   H4        1.0  0.7551063183887121  0.4400751568255643  0.6500978420106236  1.0000
  H   H5        1.0  0.3286457447264937  0.22817131973403088  0.0794655969186451  1.0000
  H   H6        1.0  0.6713466329659353  0.7281710375211999  0.42053430165537964  1.0000
  H   H7        1.0  0.6713654000901313  0.771835128064083  0.9205330044065716  1.0000
  H   H8        1.0  0.3286429285482129  0.27183639751012123  0.579473207893983  1.0000
  H   H9        1.0  0.7904944648504396  0.19877020774515589  0.27026140386388414  1.0000
  H   H10       1.0  0.2095025921549478  0.6988015631747687  0.22973452884127  1.0000
  H   H11       1.0  0.20954439550420287  0.8012174820911112  0.7297470247645561  1.0000
  H   H12       1.0  0.790472646764208  0.3012068591533321  0.7702596749806858  1.0000
  H   H13       1.0  0.11482695788086518  0.36127601897043604  0.2945628402865879  1.0000
  H   H14       1.0  0.8851626608141885  0.8613016654613119  0.2054325638729395  1.0000
  H   H15       1.0  0.8852031031241836  0.6387156199202124  0.705440021386039  1.0000
  H   H16       1.0  0.1148129307302881  0.13871268040728071  0.7945680063547229  1.0000
  H   H17       1.0  0.6243623214715511  0.620351204188637  0.14532134650357878  1.0000
  H   H18       1.0  0.3756636333905022  0.12035091414885105  0.3546845271479455  1.0000
  H   H19       1.0  0.3756557281673237  0.3796433964869763  0.8546792776259764  1.0000
  H   H20       1.0  0.6243339901673082  0.8796407247487606  0.6453152377775311  1.0000
  H   H21       1.0  0.8278525308157539  0.5064094609322042  0.1914588397372441  1.0000
  H   H22       1.0  0.1721589522305464  0.006420270062427802  0.3085447312284302  1.0000
  H   H23       1.0  0.17217717759265838  0.49358612701556137  0.8085376554541597  1.0000
  H   H24       1.0  0.8278234479588491  0.9935782796495546  0.6914561255289584  1.0000
  H   H25       1.0  0.9588935789856733  0.5859454350370967  0.06983014179435539  1.0000
  H   H26       1.0  0.0410962700312254  0.08594369066776152  0.4301718606428081  1.0000
  H   H27       1.0  0.04111547898050819  0.41405607648204057  0.9301614427470923  1.0000
  H   H28       1.0  0.9588672459848765  0.9140558463133741  0.5698253146411502  1.0000
  H   H29       1.0  0.6950884138611712  0.5428694620867701  0.013588466042804701  1.0000
  H   H30       1.0  0.3048928662898476  0.042863478733686095  0.48641730990538423  1.0000
  H   H31       1.0  0.3049056451207121  0.45713797297545966  0.9864082617160292  1.0000
  H   H32       1.0  0.6950692039986845  0.9571370454941713  0.5135844239149918  1.0000
  H   H33       1.0  0.8799071729741498  0.41694732813175506  0.057065174442186596  1.0000
  H   H34       1.0  0.12008649405001386  0.9169438944034383  0.4429353092915065  1.0000
  H   H35       1.0  0.12009510835363099  0.5830531961264  0.9429267024661739  1.0000
  H   H36       1.0  0.8798855007685872  0.08305366805927858  0.557061645250421  1.0000
  C   C1        1.0  0.47949252978270346  0.14470297652746922  0.9411581229894209  1.0000
  C   C2        1.0  0.5205075782132126  0.6447027592615625  0.5588375933637693  1.0000
  C   C3        1.0  0.5205068921222704  0.8552916241443927  0.058843449820450595  1.0000
  C   C4        1.0  0.4795018003086752  0.355299739500893  0.4411597788528709  1.0000
  C   C5        1.0  0.8938392663430436  0.13058542356343145  0.1628345256520305  1.0000
  C   C6        1.0  0.10616603346315398  0.6305993730639942  0.3371651232091395  1.0000
  C   C7        1.0  0.1061875506016179  0.8694091770984895  0.8371710866348607  1.0000
  C   C8        1.0  0.8938231113323167  0.3694080619887004  0.6628348623526604  1.0000
  C   C9        1.0  0.2136275112829367  0.22513733969650218  0.12318259223088289  1.0000
  C   C10       1.0  0.7863594858447199  0.7251462044152746  0.3768125077273651  1.0000
  C   C11       1.0  0.786378366713343  0.7748602227722899  0.8768129005142312  1.0000
  C   C12       1.0  0.21361607360432083  0.2748543198182958  0.6231874838377321  1.0000
  C   C13       1.0  0.9139053914207267  0.20873474297297898  0.2296436038465117  1.0000
  C   C14       1.0  0.08610036252543547  0.7087490700714979  0.2703548496578847  1.0000
  C   C15       1.0  0.08612476577025058  0.7912638067310664  0.7703609940780822  1.0000
  C   C16       1.0  0.9138766747150626  0.29125342869299703  0.7296411621164225  1.0000
  C   C17       1.0  0.24245200694691954  0.30974235785870974  0.18764328238378877  1.0000
  C   C18       1.0  0.7575474291086337  0.809754547609174  0.3123516034341449  1.0000
  C   C19       1.0  0.7575674563843221  0.6902581663901515  0.8123522043882261  1.0000
  C   C20       1.0  0.24244190802427562  0.1902548619531785  0.6876518547221975  1.0000
  C   C21       1.0  0.0918502993139825  0.29904720776600874  0.24271918723673735  1.0000
  C   C22       1.0  0.9081541811207926  0.7990636767458383  0.2572760769456933  1.0000
  C   C23       1.0  0.9081883046127358  0.7009454183822187  0.7572846112077585  1.0000
  C   C24       1.0  0.0918246224029744  0.20093882201526714  0.7427211639673885  1.0000
  C   C25       1.0  0.4228270065532199  0.41297614433089086  0.1974784628634865  1.0000
  C   C26       1.0  0.5771632330766038  0.9129824460200879  0.3025219383335979  1.0000
  C   C27       1.0  0.577197563293268  0.5870233926578976  0.8025172387227641  1.0000
  C   C28       1.0  0.4228109127001431  0.0870190654585627  0.6974831905361967  1.0000
  C   C29       1.0  0.7061790731768907  0.5245208844990046  0.1386525295801775  1.0000
  C   C30       1.0  0.2938207601731193  0.024527458102120606  0.3613531570155287  1.0000
  C   C31       1.0  0.2938421884871687  0.4754776652252987  0.8613447651139907  1.0000
  C   C32       1.0  0.706149885095236  0.9754750406414344  0.6386500923374356  1.0000
  C   C33       1.0  0.8152972753708311  0.5166694220366068  0.0654006974482826  1.0000
  C   C34       1.0  0.18469217107718794  0.0166696432452014  0.43460236460368407  1.0000
  C   C35       1.0  0.18471014453894694  0.48333406399886775  0.9345919730123811  1.0000
  C   C36       1.0  0.8152749736827758  0.9833338427632656  0.5653990052324502  1.0000
  S   S1        1.0  0.7281046170745498  0.1961274243229951  0.9245306060463321  1.0000
  S   S2        1.0  0.27190764083542257  0.6961201735744141  0.5754636674632535  1.0000
  S   S3        1.0  0.2719015814659612  0.8038671763500816  0.07547067440417268  1.0000
  S   S4        1.0  0.7281000355051505  0.30387936340886773  0.42453363317381587  1.0000
  N   N1        1.0  0.04354041694318769  0.13715178630948088  0.1114178313620755  1.0000
  N   N2        1.0  0.9564511754093061  0.6371625778948626  0.3885788291947563  1.0000
  N   N3        1.0  0.9564690897797448  0.862843801628074  0.8885818559805116  1.0000
  N   N4        1.0  0.0435380014443183  0.3628458444159505  0.611421735127763  1.0000
  N   N5        1.0  0.7035688567871856  0.89022486623152  0.0474721151272206  1.0000
  N   N6        1.0  0.2964247511560103  0.39023585800109845  0.4525305135415465  1.0000
  N   N7        1.0  0.2964425444344201  0.10976874717653833  0.9525311164423441  1.0000
  N   N8        1.0  0.7035879676093157  0.6097696025437217  0.5474658443203494  1.0000
  O   O1        1.0  0.5306625244297295  0.42275415097210367  0.1342115591129485  1.0000
  O   O2        1.0  0.4693228578026875  0.9227492208696759  0.3657919504108733  1.0000
  O   O3        1.0  0.46936390785727156  0.5772424242290698  0.8657871079395534  1.0000
  O   O4        1.0  0.5306307977594855  0.0772414307561746  0.634211161778687  1.0000
  O   O5        1.0  0.4650730612656344  0.4828729855949662  0.2555124481132083  1.0000
  O   O6        1.0  0.5349044480294864  0.9828914595720164  0.24449499257118384  1.0000
  O   O7        1.0  0.534939817750292  0.5171235896037774  0.7444868036580132  1.0000
  O   O8        1.0  0.46507499661429097  0.0171159754550203  0.7555138236696308  1.0000
