data_image0
_chemical_formula_structural       Zn2H44C48N12O16
_chemical_formula_sum              "Zn2 H44 C48 N12 O16"
_cell_length_a       6.613514199310134
_cell_length_b       13.156111092295562
_cell_length_c       15.752087154012637
_cell_angle_alpha    107.7801686769972
_cell_angle_beta     102.14599788760619
_cell_angle_gamma    104.55740177005602

_space_group_name_H-M_alt    "P 1"
_space_group_IT_number       1

loop_
  _space_group_symop_operation_xyz
  'x, y, z'

loop_
  _atom_site_type_symbol
  _atom_site_label
  _atom_site_symmetry_multiplicity
  _atom_site_fract_x
  _atom_site_fract_y
  _atom_site_fract_z
  _atom_site_occupancy
  Zn  Zn1       1.0  0.43401169568500825  0.24970124819490286  0.24987217912742923  1.0000
  Zn  Zn2       1.0  0.5659982685501179  0.7502978011876141  0.7501262795652579  1.0000
  H   H1        1.0  0.9479455110855992  0.30468222389612276  0.33928891620396223  1.0000
  H   H2        1.0  0.8032445571320109  0.19480414549260422  0.1603364678792403  1.0000
  H   H3        1.0  0.05205634977188823  0.6953199213900735  0.6607002919067142  1.0000
  H   H4        1.0  0.19676535506641102  0.8051906958430806  0.839661881633397  1.0000
  H   H5        1.0  0.6117578741059049  0.5201796355233341  0.276037195172556  1.0000
  H   H6        1.0  0.31532262233827874  0.9791847668036269  0.22366044309378447  1.0000
  H   H7        1.0  0.3882463690815928  0.47982950479116954  0.7239612452776641  1.0000
  H   H8        1.0  0.6846743270530881  0.0208099677024052  0.7763342346777051  1.0000
  H   H9        1.0  0.06098708166994996  0.6402510275305886  0.35253061929614665  1.0000
  H   H10       1.0  0.568074008854488  0.8592709600155858  0.14725013771687398  1.0000
  H   H11       1.0  0.9390218844266087  0.3597573720899945  0.647471279859232  1.0000
  H   H12       1.0  0.4319193047194149  0.1407195966048604  0.8527454791591182  1.0000
  H   H13       1.0  0.34480501170975963  0.44130928070699593  0.336632505209991  1.0000
  H   H14       1.0  0.06655703099591652  0.05820219344040821  0.1633394912036294  1.0000
  H   H15       1.0  0.6552000388530747  0.558694799431983  0.6633654392251671  1.0000
  H   H16       1.0  0.9334479822853295  0.9417918522261458  0.8366604322560531  1.0000
  H   H17       1.0  0.38891964657543115  0.5871355011019476  0.3942895011033158  1.0000
  H   H18       1.0  0.9069247953787426  0.9124047938798445  0.10537225730456622  1.0000
  H   H19       1.0  0.6110848541671317  0.41286773077126787  0.6057081922838989  1.0000
  H   H20       1.0  0.09307862047839432  0.0875909150362517  0.8946270221913366  1.0000
  H   H21       1.0  0.2803565183467428  0.4090942026475162  0.4817665035287106  1.0000
  H   H22       1.0  0.8895016783550673  0.0908713779271153  0.01832297132198588  1.0000
  H   H23       1.0  0.7196424668665458  0.590909003669566  0.5182303153729748  1.0000
  H   H24       1.0  0.11051179032003967  0.9091226445618618  0.9816761374153062  1.0000
  H   H25       1.0  0.34260731941331096  0.557043960037646  0.5373619735301104  1.0000
  H   H26       1.0  0.7481471253447369  0.9429580085343474  0.962466020588117  1.0000
  H   H27       1.0  0.6573914503041041  0.4429601169805864  0.4626358731299476  1.0000
  H   H28       1.0  0.25186312117809  0.057038551768258124  0.0375336077308361  1.0000
  H   H29       1.0  0.9133536696987861  0.14157775554276236  0.3728495178558049  1.0000
  H   H30       1.0  0.8985620094421803  0.35836545686805016  0.12741163958467178  1.0000
  H   H31       1.0  0.08665223513320822  0.8584307338193825  0.627155488141284  1.0000
  H   H32       1.0  0.10141158485689052  0.6416343996203794  0.8725857067949148  1.0000
  H   H33       1.0  0.7111322966959932  0.09538063015523333  0.4802138334675874  1.0000
  H   H34       1.0  0.6349990898788392  0.4048653394962756  0.02021467940851098  1.0000
  H   H35       1.0  0.2888714088549165  0.9046244661438437  0.5197901683377352  1.0000
  H   H36       1.0  0.3649818354409221  0.5951293779216584  0.9797794334635412  1.0000
  H   H37       1.0  0.32608099011666514  0.1655490619373552  0.685846040975683  1.0000
  H   H38       1.0  0.9729110328756647  0.3344357409234604  0.8143342886030708  1.0000
  H   H39       1.0  0.6739229755607499  0.8344474952445041  0.314153489568163  1.0000
  H   H40       1.0  0.027094914015528177  0.6655677106985466  0.1856709980893783  1.0000
  H   H41       1.0  0.5275209370241641  0.21253278920346472  0.5772139338554041  1.0000
  H   H42       1.0  0.23596677351267917  0.28707978965667286  0.9227337411409664  1.0000
  H   H43       1.0  0.47248682535843767  0.7874654977919207  0.42278724484398805  1.0000
  H   H44       1.0  0.7640307179846529  0.7129236851429112  0.07727236027387357  1.0000
  C   C1        1.0  0.9121269575794598  0.3784247030919019  0.33270906744316864  1.0000
  C   C2        1.0  0.7004594692184938  0.12105726208264402  0.16698682658947206  1.0000
  C   C3        1.0  0.0878747818780571  0.6215774832021453  0.6672815583012977  1.0000
  C   C4        1.0  0.29954339681837905  0.8789375985676887  0.8330122018584873  1.0000
  C   C5        1.0  0.7462176980865961  0.4929589410651615  0.30111249960459213  1.0000
  C   C6        1.0  0.45182277225097073  0.0064296929198164  0.19858161050737516  1.0000
  C   C7        1.0  0.25379583260272665  0.5070485352576243  0.6988865467974392  1.0000
  C   C8        1.0  0.5481752494768702  0.9935659494322879  0.8014153768692083  1.0000
  C   C9        1.0  0.9674128547655343  0.5531950331125516  0.3377992887403138  1.0000
  C   C10       1.0  0.5762026315181004  0.9462776319497762  0.16194629621105608  1.0000
  C   C11       1.0  0.03258533782754117  0.4468074069544627  0.662200114381001  1.0000
  C   C12       1.0  0.4237957665933367  0.0537146916291178  0.8380522506672037  1.0000
  C   C13       1.0  0.3058853370274904  0.5018460493417224  0.3904671287057083  1.0000
  C   C14       1.0  0.9132441770853746  0.9977677101732569  0.10935733520271641  1.0000
  C   C15       1.0  0.694116654842219  0.4981554898628886  0.6095301983726883  1.0000
  C   C16       1.0  0.08676074209997607  0.0022271651866034936  0.8906421983815418  1.0000
  C   C17       1.0  0.3777193108800461  0.492332888170381  0.48525912861163073  1.0000
  C   C18       1.0  0.900107046820935  0.007608901558185701  0.014706557619391006  1.0000
  C   C19       1.0  0.6222796743332425  0.5076703181467012  0.5147376902900547  1.0000
  C   C20       1.0  0.0999061122624032  0.9923868213252547  0.9852931890008493  1.0000
  C   C21       1.0  0.3631078718635479  0.2123881422513563  0.406759349657051  1.0000
  C   C22       1.0  0.2429005375354194  0.28731223642760284  0.0933249689467459  1.0000
  C   C23       1.0  0.6369042890812223  0.7876169308701505  0.5932438374258737  1.0000
  C   C24       1.0  0.7570885679313192  0.7126870124948751  0.906680420376638  1.0000
  C   C25       1.0  0.2340083889126703  0.18200183809003082  0.4693145071136513  1.0000
  C   C26       1.0  0.0815815396054589  0.317774757215048  0.030789705360511687  1.0000
  C   C27       1.0  0.7659962454135466  0.8179981570256701  0.5306875810428123  1.0000
  C   C28       1.0  0.9184098865423285  0.6822278437626326  0.9692152705208487  1.0000
  C   C29       1.0  0.0038082206873327105  0.14797633881033787  0.44161942527242803  1.0000
  C   C30       1.0  0.9134343419254519  0.35192238218618854  0.05859979797614303  1.0000
  C   C31       1.0  0.9961964409429528  0.8520244449908178  0.5583808553748355  1.0000
  C   C32       1.0  0.08654939671604486  0.6480775888577527  0.9414014917187146  1.0000
  C   C33       1.0  0.8894206813274579  0.12132706156417333  0.5011390904236777  1.0000
  C   C34       1.0  0.7660525942738164  0.37868894917975393  0.9991691715818973  1.0000
  C   C35       1.0  0.11058486444750325  0.8786762894696666  0.49886272007783816  1.0000
  C   C36       1.0  0.23393938426568187  0.6213118693877604  0.0008323311489420129  1.0000
  C   C37       1.0  0.009623115936513328  0.1296389883413482  0.5887307626767821  1.0000
  C   C38       1.0  0.7899804733594493  0.3704437573221854  0.9115679243997192  1.0000
  C   C39       1.0  0.9903768622724769  0.8703601290895264  0.4112700641591474  1.0000
  C   C40       1.0  0.2100160945054554  0.6295595573089159  0.08843264226703695  1.0000
  C   C41       1.0  0.23896323684171264  0.16251045962318503  0.6179316174106262  1.0000
  C   C42       1.0  0.9569238679461238  0.33741523564160764  0.8822317277436511  1.0000
  C   C43       1.0  0.7610404192439336  0.8374877979531379  0.3820685510161681  1.0000
  C   C44       1.0  0.043076991836095084  0.662589079697881  0.11777435314500197  1.0000
  C   C45       1.0  0.34954880439502756  0.18839110675816784  0.5575094574368933  1.0000
  C   C46       1.0  0.10209830902741145  0.3113548992530255  0.9425515068032196  1.0000
  C   C47       1.0  0.6504508394895512  0.811606291705779  0.4424900905927275  1.0000
  C   C48       1.0  0.8978986326496496  0.6886477272807883  0.057454343563677  1.0000
  N   N1        1.0  0.06937747808758857  0.47950263014606537  0.3567963888383049  1.0000
  N   N2        1.0  0.7326658308128984  0.020034791166366996  0.1429214000252443  1.0000
  N   N3        1.0  0.9306285532872494  0.5205005568563693  0.6431997511280584  1.0000
  N   N4        1.0  0.26733507617138497  0.9799592250811245  0.8570775131618403  1.0000
  N   N5        1.0  0.7138381021875376  0.3838390085798552  0.2987011903019051  1.0000
  N   N6        1.0  0.5308054333757752  0.11556870930774474  0.2009962944509951  1.0000
  N   N7        1.0  0.28616213137033236  0.6161666419463573  0.7012929055526768  1.0000
  N   N8        1.0  0.46919724446929945  0.8844278107291927  0.7990019542461226  1.0000
  N   N9        1.0  0.8920792074041229  0.1018421815268553  0.652135572800894  1.0000
  N   N10       1.0  0.6371212923165289  0.3986857369190418  0.8483670641381805  1.0000
  N   N11       1.0  0.10792989484752984  0.8981603506602838  0.34786699692527623  1.0000
  N   N12       1.0  0.3628682987500867  0.6013133479720169  0.15163265465005082  1.0000
  O   O1        1.0  0.24846645440693751  0.21378093883539154  0.3293356817280895  1.0000
  O   O2        1.0  0.2043730809694182  0.28574492850070504  0.1706892705011853  1.0000
  O   O3        1.0  0.751543962981124  0.786222419182124  0.670666362335595  1.0000
  O   O4        1.0  0.7956101968048447  0.714258625936026  0.8293196064180819  1.0000
  O   O5        1.0  0.5667881961813777  0.2356945238207331  0.43193823373162826  1.0000
  O   O6        1.0  0.39805413231340486  0.26401280643030844  0.0681585262712758  1.0000
  O   O7        1.0  0.43321696066104226  0.7643055308752837  0.5680659129819858  1.0000
  O   O8        1.0  0.6019147088358353  0.7359798218818201  0.9318506012276373  1.0000
  O   O9        1.0  0.0023787739659724104  0.10968396598062212  0.7299749218860399  1.0000
  O   O10       1.0  0.6618416205562951  0.3912476187492971  0.7706386688314524  1.0000
  O   O11       1.0  0.9976305685141826  0.890321114866744  0.27002853677102223  1.0000
  O   O12       1.0  0.3381538997047642  0.6087582073971092  0.22936150491947419  1.0000
  O   O13       1.0  0.6881192665139083  0.07205690314221158  0.625852231093269  1.0000
  O   O14       1.0  0.48942504304000084  0.4285458089473836  0.8747485942348803  1.0000
  O   O15       1.0  0.31188517962051077  0.9279447513601015  0.37414907731236  1.0000
  O   O16       1.0  0.510556164567454  0.5714464193906467  0.125246688263438  1.0000
