data_image0
_chemical_formula_structural       Zn2H38C24N4Cl2O6
_chemical_formula_sum              "Zn2 H38 C24 N4 Cl2 O6"
_cell_length_a       7.254150500701401
_cell_length_b       9.748051253862686
_cell_length_c       9.349382678046371
_cell_angle_alpha    89.99964709930349
_cell_angle_beta     93.92806292872825
_cell_angle_gamma    89.99930963173225

_space_group_name_H-M_alt    "P 1"
_space_group_IT_number       1

loop_
  _space_group_symop_operation_xyz
  'x, y, z'

loop_
  _atom_site_type_symbol
  _atom_site_label
  _atom_site_symmetry_multiplicity
  _atom_site_fract_x
  _atom_site_fract_y
  _atom_site_fract_z
  _atom_site_occupancy
  Zn  Zn1       1.0  0.8265257708100078  0.8619846708872957  0.5212671909466808  1.0000
  Zn  Zn2       1.0  0.17348885230850186  0.3619835174222458  0.4787320441799069  1.0000
  H   H1        1.0  0.15475592286043843  0.6473261880995338  0.5843233523779576  1.0000
  H   H2        1.0  0.8452533554791017  0.1473192674392934  0.4156688200562046  1.0000
  H   H3        1.0  0.5093068299345089  0.2638765921967448  0.5304682646046502  1.0000
  H   H4        1.0  0.49069720096571956  0.7638769935485143  0.4695247930866629  1.0000
  H   H5        1.0  0.45428424698946646  0.4552557484560823  0.9703935138129228  1.0000
  H   H6        1.0  0.5456984078970493  0.9552697273785641  0.029616488796698103  1.0000
  H   H7        1.0  0.4372347793366416  0.611948000644979  0.8732696895498651  1.0000
  H   H8        1.0  0.5627332443363358  0.1119612654543687  0.1267403826413727  1.0000
  H   H9        1.0  0.7425750275882306  0.5911907011626738  0.7941227646233957  1.0000
  H   H10       1.0  0.25739441026863125  0.0911871869319043  0.20587867258746687  1.0000
  H   H11       1.0  0.8586689824460123  0.3603564004304829  0.7170975598457832  1.0000
  H   H12       1.0  0.1413140322262478  0.8603434420640778  0.2828980762366839  1.0000
  H   H13       1.0  0.61433916412323  0.20699289055453104  0.9117833382538125  1.0000
  H   H14       1.0  0.3856636350190285  0.7069912892936899  0.08821510851613823  1.0000
  H   H15       1.0  0.6765065264916286  0.15443758918121378  0.7441610542262114  1.0000
  H   H16       1.0  0.3235023271555733  0.6544332737110565  0.2558307618619368  1.0000
  H   H17       1.0  0.032076365947965285  0.5732075612993838  0.030763868333032504  1.0000
  H   H18       1.0  0.9679191707729017  0.0732010863423298  0.9692314465498487  1.0000
  H   H19       1.0  0.13009621622313713  0.41509617453349523  0.986463222381133  1.0000
  H   H20       1.0  0.8698878144165788  0.915098373345046  0.01352923604906659  1.0000
  H   H21       1.0  0.054821685541689535  0.5323713170846887  0.8474208133687855  1.0000
  H   H22       1.0  0.9451572661664612  0.0323717770039096  0.1525726140505625  1.0000
  H   H23       1.0  0.6391225974085089  0.34976474072707475  0.09887545315083202  1.0000
  H   H24       1.0  0.36087184610921225  0.8497626649872314  0.9011234117648785  1.0000
  H   H25       1.0  0.8503210073660198  0.41582151494610997  0.1758655429555631  1.0000
  H   H26       1.0  0.14967051958458197  0.9158205018602457  0.8241323226248982  1.0000
  H   H27       1.0  0.8466083466560262  0.2548126254716718  0.09290815290035677  1.0000
  H   H28       1.0  0.1533934834156908  0.7548101569350576  0.9070849473940971  1.0000
  H   H29       1.0  0.2972187602886933  0.24211624200623313  0.9368696868310028  1.0000
  H   H30       1.0  0.7027862290345438  0.7421178761106829  0.06311794219940475  1.0000
  H   H31       1.0  0.3154293379342191  0.09384404020195088  0.8311971577377124  1.0000
  H   H32       1.0  0.6845810780967554  0.5938497822775731  0.16879307356814627  1.0000
  H   H33       1.0  0.14327198891339069  0.21989917656311056  0.7825854863849957  1.0000
  H   H34       1.0  0.8567278151033902  0.7199004192513384  0.21740012245125942  1.0000
  H   H35       1.0  0.4169687153128974  0.019148639129241498  0.6291502816848864  1.0000
  H   H36       1.0  0.5830660371964598  0.5191532732861432  0.37085961053877275  1.0000
  H   H37       1.0  0.4049373369735108  0.06880179810415399  0.447761135199599  1.0000
  H   H38       1.0  0.595070455890969  0.5688102198219269  0.5522469796295298  1.0000
  C   C1        1.0  0.144136164540889  0.0667138780600851  0.5326406428473762  1.0000
  C   C2        1.0  0.8558667791242698  0.5667085847217663  0.4673808436012197  1.0000
  C   C3        1.0  0.4262006162786206  0.2773394357370407  0.7374335930051077  1.0000
  C   C4        1.0  0.5738038075495667  0.7773395317821538  0.26256867133280093  1.0000
  C   C5        1.0  0.39100553247683917  0.43111983833608025  0.7467346276549736  1.0000
  C   C6        1.0  0.6089741152341689  0.9311159853719245  0.2532522020923339  1.0000
  C   C7        1.0  0.4864969289132617  0.5060378598592192  0.8698313664989359  1.0000
  C   C8        1.0  0.5134837614376409  0.0060465043864326  0.1301795741823497  1.0000
  C   C9        1.0  0.6916993006692779  0.5004120429421235  0.8473417203692579  1.0000
  C   C10       1.0  0.30828412718091863  0.00041058314512549995  0.15266339516891492  1.0000
  C   C11       1.0  0.7636548556091609  0.36111626288007403  0.8025086880851834  1.0000
  C   C12       1.0  0.2363443943203052  0.8611151679447601  0.19749043124125626  1.0000
  C   C13       1.0  0.626025169256245  0.24362625443728086  0.8017515896683067  1.0000
  C   C14       1.0  0.3739809269509422  0.7436187220365653  0.19824584506678636  1.0000
  C   C15       1.0  0.8334018662390718  0.4252507270507309  0.9447255192330745  1.0000
  C   C16       1.0  0.16658584054416536  0.9252473662591139  0.05527461894818941  1.0000
  C   C17       1.0  0.023260018552313935  0.4896380532537137  0.9515062152577092  1.0000
  C   C18       1.0  0.9767259014578825  0.9896396255054464  0.04848669409481938  1.0000
  C   C19       1.0  0.7876352371310773  0.3583958925260262  0.08401682726224644  1.0000
  C   C20       1.0  0.21236349093987159  0.8583965024000692  0.9159780138348952  1.0000
  C   C21       1.0  0.2858709824186007  0.20389449061432433  0.8263401413977649  1.0000
  C   C22       1.0  0.7141434877052575  0.7038987081586255  0.17364832706241634  1.0000
  C   C23       1.0  0.3516441065773535  0.09273403301384767  0.5521190618780168  1.0000
  C   C24       1.0  0.6483775106987792  0.5927408847820246  0.4478890654654324  1.0000
  N   N1        1.0  0.3961302015396555  0.2367164078430618  0.5836537945938005  1.0000
  N   N2        1.0  0.6038787082420995  0.73671862885228  0.41633787883056084  1.0000
  N   N3        1.0  0.288139891923187  0.4870251762440176  0.6450250722277389  1.0000
  N   N4        1.0  0.7118763449277593  0.9870217138381178  0.3549811186256377  1.0000
  Cl  Cl1       1.0  0.7118442250134791  0.8730572406611544  0.7376607462894074  1.0000
  Cl  Cl2       1.0  0.2881620256581171  0.373058964027436  0.262333542793364  1.0000
  O   O1        1.0  0.09159949446972603  0.9431205577470363  0.5357570404803199  1.0000
  O   O2        1.0  0.9084121598436067  0.4431231422118175  0.4642696715882054  1.0000
  O   O3        1.0  0.03727899233192029  0.17021659041251516  0.5087546922262192  1.0000
  O   O4        1.0  0.9627415995384607  0.6702113492765703  0.49124470425854133  1.0000
  O   O5        1.0  0.26362684184103097  0.6279477036935219  0.6550705510926776  1.0000
  O   O6        1.0  0.7363820506073752  0.12794744267095126  0.3449234384217093  1.0000
