data_image0
_chemical_formula_structural       Cu6H24C36I6N12
_chemical_formula_sum              "Cu6 H24 C36 I6 N12"
_cell_length_a       6.83745319154127
_cell_length_b       12.588476126761446
_cell_length_c       13.468137740505796
_cell_angle_alpha    68.84279532919031
_cell_angle_beta     80.53188146443775
_cell_angle_gamma    82.15965828233978

_space_group_name_H-M_alt    "P 1"
_space_group_IT_number       1

loop_
  _space_group_symop_operation_xyz
  'x, y, z'

loop_
  _atom_site_type_symbol
  _atom_site_label
  _atom_site_symmetry_multiplicity
  _atom_site_fract_x
  _atom_site_fract_y
  _atom_site_fract_z
  _atom_site_occupancy
  Cu  Cu1       1.0  0.022112496759198998  0.3067123207302274  0.34977545858923537  1.0000
  Cu  Cu2       1.0  0.9778842840452454  0.6932863762927824  0.650229603724199  1.0000
  Cu  Cu3       1.0  0.366038435930122  0.3661220655499947  0.23831011592893964  1.0000
  Cu  Cu4       1.0  0.6339476097957045  0.633878353921105  0.7616841505718528  1.0000
  Cu  Cu5       1.0  0.4520859500841112  0.9669942728835395  0.11778819746761118  1.0000
  Cu  Cu6       1.0  0.5479115087459191  0.033009552426413805  0.8822076501814707  1.0000
  H   H1        1.0  0.2808796898473959  0.503436410762319  0.019187982142597135  1.0000
  H   H2        1.0  0.719133048866304  0.49656397994227325  0.9808039984459288  1.0000
  H   H3        1.0  0.1337757382280742  0.47569043986274556  0.873736954802958  1.0000
  H   H4        1.0  0.866241921919915  0.5243065270893227  0.12625427340515222  1.0000
  H   H5        1.0  0.04833696935862971  0.27864065191445764  0.8982264857840366  1.0000
  H   H6        1.0  0.9516884156664105  0.7213545964540701  0.1017713407984502  1.0000
  H   H7        1.0  0.1289222199651263  0.11652889504463812  0.06453357212987501  1.0000
  H   H8        1.0  0.8710774528701533  0.8834697998958846  0.9354638171457808  1.0000
  H   H9        1.0  0.5755074035939316  0.7055332700792647  0.17072175192829062  1.0000
  H   H10       1.0  0.4244988384408046  0.2944714003256834  0.8292737975511744  1.0000
  H   H11       1.0  0.6466834380500398  0.5422113319110196  0.33742678512287244  1.0000
  H   H12       1.0  0.3533249391241923  0.45779931853002154  0.6625687893552767  1.0000
  H   H13       1.0  0.5897485619712269  0.5777660323996656  0.5143616568258765  1.0000
  H   H14       1.0  0.4102522282770806  0.4222352253283645  0.48563477114380776  1.0000
  H   H15       1.0  0.4411691726799418  0.7704522958051426  0.5153209420863903  1.0000
  H   H16       1.0  0.5588241400913034  0.22954982381776293  0.4846817779933303  1.0000
  H   H17       1.0  0.26356992613210645  0.9454308188955665  0.6262698290031354  1.0000
  H   H18       1.0  0.7364477917650447  0.054576403444045206  0.3737216444902104  1.0000
  H   H19       1.0  0.1374393744990172  0.00048556349496920007  0.7891583363720758  1.0000
  H   H20       1.0  0.8625811679574865  0.9995019982205663  0.2108417592187166  1.0000
  H   H21       1.0  0.9646134017591237  0.19686515080434222  0.7617571303096614  1.0000
  H   H22       1.0  0.035395731306010675  0.8031198579741102  0.23825371841002865  1.0000
  H   H23       1.0  0.9202477976576517  0.3278148533753154  0.5751224424312724  1.0000
  H   H24       1.0  0.07974262441895516  0.672177012051492  0.42489364063901314  1.0000
  C   C1        1.0  0.24344967904846015  0.41912478191797947  0.02673961892001129  1.0000
  C   C2        1.0  0.7565434823365251  0.5808781929456545  0.9732598554370783  1.0000
  C   C3        1.0  0.16161277407438487  0.4028891239246803  0.9457525160184944  1.0000
  C   C4        1.0  0.8383897649618604  0.5971104222806362  0.054246566877559056  1.0000
  C   C5        1.0  0.11652617611996162  0.29351121247194095  0.9591915068107115  1.0000
  C   C6        1.0  0.8834751458166892  0.706486625406953  0.040810485001955436  1.0000
  C   C7        1.0  0.1590409963632808  0.20354979679432716  0.051987840272708814  1.0000
  C   C8        1.0  0.8409616792878937  0.7964488943930164  0.9480130045364634  1.0000
  C   C9        1.0  0.2345028013992092  0.2272518361815514  0.1311457361600432  1.0000
  C   C10       1.0  0.765498649766691  0.772745146790747  0.8688572756609936  1.0000
  C   C11       1.0  0.2618253868066915  0.1373309910661646  0.23576128113455752  1.0000
  C   C12       1.0  0.7381730615433213  0.8626659956593058  0.7642382751529627  1.0000
  C   C13       1.0  0.360535665928161  0.9539278110823518  0.3378436177442553  1.0000
  C   C14       1.0  0.6394666515779406  0.04607344437926031  0.6621571346588198  1.0000
  C   C15       1.0  0.4471810380655937  0.8394737508172132  0.34316859373116426  1.0000
  C   C16       1.0  0.552817818792974  0.16053092713291764  0.6568305583429322  1.0000
  C   C17       1.0  0.5539825961684457  0.7166107149508322  0.2484219417160532  1.0000
  C   C18       1.0  0.44602626099443654  0.2833965164207227  0.7515740032718058  1.0000
  C   C19       1.0  0.5901925164420021  0.6257219629905749  0.34212916832741785  1.0000
  C   C20       1.0  0.4098011679094498  0.37428784841388574  0.6578694380151121  1.0000
  C   C21       1.0  0.5566291536183599  0.6451320857650842  0.43968286088819775  1.0000
  C   C22       1.0  0.4433604769752008  0.3548751656026284  0.5603199283695803  1.0000
  C   C23       1.0  0.4791647380045703  0.7527955337875981  0.4406663262988388  1.0000
  C   C24       1.0  0.5208234945604459  0.24721086493993744  0.5593331585339102  1.0000
  C   C25       1.0  0.23606416697876398  0.0825469483774839  0.41959464785535533  1.0000
  C   C26       1.0  0.763941253029799  0.9174534488698782  0.5804076124705875  1.0000
  C   C27       1.0  0.1604817931154088  0.1084885715229049  0.5173154932945252  1.0000
  C   C28       1.0  0.8395160755593807  0.8915126887331227  0.4826856400939193  1.0000
  C   C29       1.0  0.1876627055035627  0.029268164260457797  0.6190984590203926  1.0000
  C   C30       1.0  0.8123328065015869  0.9707288252157726  0.38090431887639664  1.0000
  C   C31       1.0  0.11644559987270499  0.05993137258295889  0.7087271867283322  1.0000
  C   C32       1.0  0.8835589537956565  0.9400647521750828  0.29127733301557873  1.0000
  C   C33       1.0  0.021969048062729292  0.16925645782747273  0.693749024848856  1.0000
  C   C34       1.0  0.9780325471037655  0.8307396700154684  0.3062564907900553  1.0000
  C   C35       1.0  0.9959722639464701  0.2424653161562986  0.5900090366113063  1.0000
  C   C36       1.0  0.004024897160057616  0.7575308162583025  0.40999834382249406  1.0000
  I   I1        1.0  0.7299069587575031  0.29753132716113845  0.25359282876978995  1.0000
  I   I2        1.0  0.2700863392423969  0.7024707926845225  0.7464084075004183  1.0000
  I   I3        1.0  0.14057142515140697  0.5088087221238596  0.30583518437564555  1.0000
  I   I4        1.0  0.8594284913710268  0.4911882632262278  0.6941627611072436  1.0000
  I   I5        1.0  0.2832022867749018  0.8968383204582648  0.9964215692171906  1.0000
  I   I6        1.0  0.7167990647044319  0.10315951697511137  0.0035833902144873325  1.0000
  N   N1        1.0  0.4909906564355992  0.8224468220241902  0.2477493114633094  1.0000
  N   N2        1.0  0.5090215395312397  0.177557841654064  0.7522479557499084  1.0000
  N   N3        1.0  0.32663728064269987  0.0305584748890979  0.23874827070771698  1.0000
  N   N4        1.0  0.6733503994131665  0.9694410877431354  0.761249114520581  1.0000
  N   N5        1.0  0.275194928124364  0.3338559390492151  0.11925129894780898  1.0000
  N   N6        1.0  0.724798591405687  0.6661444715401502  0.8807482678153777  1.0000
  N   N7        1.0  0.2162533417771613  0.1681493786867563  0.3237179528727411  1.0000
  N   N8        1.0  0.7837459729130457  0.8318518805280347  0.676279343996818  1.0000
  N   N9        1.0  0.06072284082061691  0.212800961717079  0.5030575821576095  1.0000
  N   N10       1.0  0.9392735670674169  0.7872002998029544  0.49694590394022964  1.0000
  N   N11       1.0  0.3156241642843937  0.9771611721413789  0.42849949554175754  1.0000
  N   N12       1.0  0.6843811264949196  0.022840080012571193  0.571501744775816  1.0000
