data_image0
_chemical_formula_structural       Al2H9C20N2ClO14
_chemical_formula_sum              "Al2 H9 C20 N2 Cl1 O14"
_cell_length_a       6.6657878935943895
_cell_length_b       11.270055817625119
_cell_length_c       11.06096724273055
_cell_angle_alpha    79.15792979213175
_cell_angle_beta     73.49367613646815
_cell_angle_gamma    71.22851303918061

_space_group_name_H-M_alt    "P 1"
_space_group_IT_number       1

loop_
  _space_group_symop_operation_xyz
  'x, y, z'

loop_
  _atom_site_type_symbol
  _atom_site_label
  _atom_site_symmetry_multiplicity
  _atom_site_fract_x
  _atom_site_fract_y
  _atom_site_fract_z
  _atom_site_occupancy
  Al  Al1       1.0  0.4893165289288106  0.4999684033903333  0.5002498644696587  1.0000
  Al  Al2       1.0  0.9906921706453032  0.5027690541088745  0.4938472471538587  1.0000
  H   H1        1.0  0.20683575362375  0.41773419328207945  0.6454903763821631  1.0000
  H   H2        1.0  0.7545507153996451  0.5980231062323113  0.3519765660437456  1.0000
  H   H3        1.0  0.10213512961256309  0.5783679189343545  0.09422720731547674  1.0000
  H   H4        1.0  0.7625096557915825  0.428643151423735  0.1360225584801498  1.0000
  H   H5        1.0  0.24157546296584811  0.5712929986156609  0.8596717033640783  1.0000
  H   H6        1.0  0.2677181602438594  0.23805931433319927  0.3280441561936484  1.0000
  H   H7        1.0  0.47427086577465627  0.7712486508378051  0.34933605177702975  1.0000
  H   H8        1.0  0.7291074983630422  0.8865075008093652  0.584434808893256  1.0000
  H   H9        1.0  0.6250818425963587  0.12166415901089071  0.5763241435067241  1.0000
  C   C1        1.0  0.865070584648997  0.2755521561025063  0.48373846623966427  1.0000
  C   C2        1.0  0.6427125331369155  0.494547981428667  0.725197968438536  1.0000
  C   C3        1.0  0.12128342731642759  0.7294432095834368  0.49584587316917333  1.0000
  C   C4        1.0  0.347038113217863  0.5073109489554498  0.26853013122980934  1.0000
  C   C5        1.0  0.577463152697831  0.49380352875099487  0.8658203204401077  1.0000
  C   C6        1.0  0.4246440242101458  0.5048377389738903  0.12859980738706153  1.0000
  C   C7        1.0  0.7244411616354256  0.4518933238579734  0.9452047357773806  1.0000
  C   C8        1.0  0.27576406161835365  0.5433600770922311  0.051763037805194805  1.0000
  C   C9        1.0  0.6485464349427023  0.4606958441683985  0.07522583073468772  1.0000
  C   C10       1.0  0.35357282187351297  0.5394247610205768  0.9217889715583706  1.0000
  C   C11       1.0  0.9407566457438248  0.1365230585639594  0.47382091235473206  1.0000
  C   C12       1.0  0.15593218015875007  0.07202901466970249  0.40891860471030117  1.0000
  C   C13       1.0  0.7906811096248275  0.0694237710613947  0.5321744986491054  1.0000
  C   C14       1.0  0.3107089166638771  0.13583263743993973  0.3345334871368734  1.0000
  C   C15       1.0  0.5113240581452558  0.06998696965239048  0.26820833755786566  1.0000
  C   C16       1.0  0.05933339272730374  0.8706825972262704  0.4819537568877479  1.0000
  C   C17       1.0  0.8485878315629947  0.9376067266670702  0.5362530244544034  1.0000
  C   C18       1.0  0.21477225851825935  0.937068997161745  0.41336487912802505  1.0000
  C   C19       1.0  0.42407525147122976  0.8730665403884573  0.3449246194786824  1.0000
  C   C20       1.0  0.5700634890789972  0.9370349267834115  0.2743524763288858  1.0000
  N   N1        1.0  0.6543439413420628  0.1427410059427743  0.18207426689460957  1.0000
  N   N2        1.0  0.7890046167783211  0.8624515808006734  0.2145882711109123  1.0000
  Cl  Cl1       1.0  0.0007552952944322976  0.38006498000203953  0.8915241455038794  1.0000
  O   O1        1.0  0.6638854099286036  0.3286683234678947  0.4886246268937811  1.0000
  O   O2        1.0  0.8312719052236446  0.5047918138544956  0.6670494874401456  1.0000
  O   O3        1.0  0.9810531620017497  0.6789750116484539  0.48759138971777805  1.0000
  O   O4        1.0  0.48067909424407423  0.515622103072367  0.3267594199707773  1.0000
  O   O5        1.0  0.3102760442327437  0.6723929583838385  0.514488902206807  1.0000
  O   O6        1.0  0.1535967751457648  0.5005014058743954  0.32031474794810305  1.0000
  O   O7        1.0  0.0035859457362548077  0.3279227336836428  0.49137940104444044  1.0000
  O   O8        1.0  0.5004999405012781  0.48714983176512305  0.6726313080876591  1.0000
  O   O9        1.0  0.24141457209678674  0.4439097641004464  0.5548684389439487  1.0000
  O   O10       1.0  0.7344894692415737  0.5597577706334744  0.43942704235766417  1.0000
  O   O11       1.0  0.7294118608929451  0.2032341529760231  0.2312418008877869  1.0000
  O   O12       1.0  0.6800938177776173  0.14082096361001106  0.06723739753634562  1.0000
  O   O13       1.0  0.8133878703831884  0.751810884293633  0.1986638132396194  1.0000
  O   O14       1.0  0.9380615961316966  0.9133447415342815  0.1857336727006993  1.0000
