data_image0
_chemical_formula_structural       Cd4H24C32N16O8
_chemical_formula_sum              "Cd4 H24 C32 N16 O8"
_cell_length_a       8.733826922834167
_cell_length_b       8.733799808214371
_cell_length_c       12.18083725208592
_cell_angle_alpha    90.00042689003286
_cell_angle_beta     90.00002394172027
_cell_angle_gamma    96.26186547385703

_space_group_name_H-M_alt    "P 1"
_space_group_IT_number       1

loop_
  _space_group_symop_operation_xyz
  'x, y, z'

loop_
  _atom_site_type_symbol
  _atom_site_label
  _atom_site_symmetry_multiplicity
  _atom_site_fract_x
  _atom_site_fract_y
  _atom_site_fract_z
  _atom_site_occupancy
  Cd  Cd1       1.0  9.178489080904186e-08  0.49999880030305394  0.7613071274668213  1.0000
  Cd  Cd2       1.0  0.5000009310823968  8.84461570981043e-08  0.2613055955560029  1.0000
  Cd  Cd3       1.0  0.9999948828022622  4.5120341948606555e-07  0.1578571181295061  1.0000
  Cd  Cd4       1.0  0.9999993892298348  0.9999979450303729  0.6578566321962782  1.0000
  H   H1        1.0  0.595244175237866  0.29592910357303753  0.42371642296067336  1.0000
  H   H2        1.0  0.40475767046761746  0.7040698755887222  0.42371502681714895  1.0000
  H   H3        1.0  0.7040700978183309  0.4047580590494065  0.9237160236801572  1.0000
  H   H4        1.0  0.29592905888644333  0.5952449755636523  0.92371647267003  1.0000
  H   H5        1.0  0.758140362426218  0.2622783286296127  0.6170799130441437  1.0000
  H   H6        1.0  0.2418584824057675  0.737723782328246  0.6170786477393975  1.0000
  H   H7        1.0  0.7377212730662921  0.24186083734044678  0.11707810037101037  1.0000
  H   H8        1.0  0.262274131875003  0.758145170337919  0.11707859289895589  1.0000
  H   H9        1.0  0.8254241261263077  0.4815943493894468  0.3929588083230016  1.0000
  H   H10       1.0  0.1745787061330333  0.5184031726772391  0.3929596284701943  1.0000
  H   H11       1.0  0.5184037188394512  0.17457566500142724  0.8929605126185647  1.0000
  H   H12       1.0  0.4815957797981341  0.8254190022755525  0.8929556868818266  1.0000
  H   H13       1.0  0.976870760484445  0.6373613747881424  0.2175575137585355  1.0000
  H   H14       1.0  0.02313198534064041  0.36263660475393794  0.21755827198671795  1.0000
  H   H15       1.0  0.3626361104756626  0.023126241760451204  0.7175583461039352  1.0000
  H   H16       1.0  0.6373613303918759  0.9768723015415405  0.7175593071655371  1.0000
  H   H17       1.0  0.5995891859710482  0.589256797563394  0.51989779192035  1.0000
  H   H18       1.0  0.4004095993570757  0.4107454423527913  0.5198972820998264  1.0000
  H   H19       1.0  0.4107408722107451  0.4004116409202824  0.0198996060189103  1.0000
  H   H20       1.0  0.5892561222575878  0.599587622080847  0.0198944214311112  1.0000
  H   H21       1.0  0.646352040714717  0.7831449196144223  0.5625891453924722  1.0000
  H   H22       1.0  0.3536526595079009  0.21685901275874647  0.5625900429171864  1.0000
  H   H23       1.0  0.2168548313633281  0.35364963590947707  0.0625894555095314  1.0000
  H   H24       1.0  0.783141914130823  0.6463466212602142  0.0625862233315218  1.0000
  C   C1        1.0  0.6654267983215048  0.20707341013343958  0.44901823254168954  1.0000
  C   C2        1.0  0.33457405145964  0.7929269687159606  0.44901647112516224  1.0000
  C   C3        1.0  0.7929249204113302  0.3345724341283543  0.9490162443281562  1.0000
  C   C4        1.0  0.2070718786700354  0.665429678459553  0.9490170430197222  1.0000
  C   C5        1.0  0.25514276230607175  0.8115956221402387  0.5453465047822234  1.0000
  C   C6        1.0  0.7448568912538036  0.18840344878247353  0.5453465483400136  1.0000
  C   C7        1.0  0.1884022137542232  0.7448594333056067  0.0453470235304962  1.0000
  C   C8        1.0  0.8115951467391723  0.2551435526295336  0.04534416207838629  1.0000
  C   C9        1.0  0.22185995507463466  0.0021736277719526004  0.4352624023435751  1.0000
  C   C10       1.0  0.7781407636419431  0.9978254546172567  0.4352626980743182  1.0000
  C   C11       1.0  0.9978249606439957  0.7781430824499723  0.9352606127135344  1.0000
  C   C12       1.0  0.0021753627174803058  0.2218600919571189  0.9352622504306538  1.0000
  C   C13       1.0  0.8232943220202174  0.8543538785874534  0.38953475698209417  1.0000
  C   C14       1.0  0.17670588839797569  0.14564011573808955  0.3895335759640588  1.0000
  C   C15       1.0  0.1456431135439331  0.1767041713098436  0.8895337674188751  1.0000
  C   C16       1.0  0.8543569163926108  0.8232962184458119  0.8895331492214138  1.0000
  C   C17       1.0  0.840046799770178  0.6026995028509392  0.37131119853336253  1.0000
  C   C18       1.0  0.15995463360364676  0.39729546968326457  0.37130972190895045  1.0000
  C   C19       1.0  0.39729806462456446  0.15995261431186958  0.8713108756779776  1.0000
  C   C20       1.0  0.6027028659584985  0.8400452985405878  0.8713086284491495  1.0000
  C   C21       1.0  0.9149679065275079  0.6809629539849669  0.285905960864774  1.0000
  C   C22       1.0  0.0850337024453722  0.31903457485401543  0.2859048619732505  1.0000
  C   C23       1.0  0.31903455468850683  0.0850308766116967  0.7859060241965281  1.0000
  C   C24       1.0  0.6809631110223788  0.9149695376783812  0.7859050242488904  1.0000
  C   C25       1.0  0.6950335578603202  0.6787937344772674  0.5355201258003176  1.0000
  C   C26       1.0  0.3049673330786219  0.3212064030181026  0.5355182849512942  1.0000
  C   C27       1.0  0.32120630639689546  0.30496848021869744  0.03551977296000789  1.0000
  C   C28       1.0  0.6787918617300761  0.6950309654732794  0.0355167702658221  1.0000
  C   C29       1.0  0.7980202643514218  0.624381723316482  0.6255753814221305  1.0000
  C   C30       1.0  0.20197952702611843  0.37561819193480545  0.6255746222029898  1.0000
  C   C31       1.0  0.3756158660100794  0.20198116178059422  0.1255748907137146  1.0000
  C   C32       1.0  0.6243824568153684  0.7980192316588631  0.1255724244273253  1.0000
  N   N1        1.0  0.6867060434172885  0.08678076682328852  0.3799783235988414  1.0000
  N   N2        1.0  0.3132967665430186  0.9132166186302089  0.37997802262027847  1.0000
  N   N3        1.0  0.9132181603962053  0.31329660231430273  0.8799782583404862  1.0000
  N   N4        1.0  0.08678332225895252  0.6867071602816993  0.8799774925341878  1.0000
  N   N5        1.0  0.18376063562428158  0.9442319524673056  0.5366348051842493  1.0000
  N   N6        1.0  0.8162380710198462  0.05576931189402501  0.536635800240873  1.0000
  N   N7        1.0  0.05576772772781173  0.8162408906632737  0.03663515007757919  1.0000
  N   N8        1.0  0.9442296178020155  0.18376200359882233  0.0366344087898227  1.0000
  N   N9        1.0  0.7813159542891269  0.7125278455672375  0.4350468405554295  1.0000
  N   N10       1.0  0.21868569600872687  0.28746894943802204  0.4350472550009385  1.0000
  N   N11       1.0  0.2874715645254469  0.21868495022160775  0.9350471936395832  1.0000
  N   N12       1.0  0.7125284361574272  0.7813147668099775  0.9350454856013711  1.0000
  N   N13       1.0  0.9037951718404923  0.8362255521192383  0.29735550693877133  1.0000
  N   N14       1.0  0.09620749618983379  0.1637709638119063  0.2973560405537156  1.0000
  N   N15       1.0  0.16377395541832127  0.09620375454441192  0.797355982272883  1.0000
  N   N16       1.0  0.8362271704348103  0.9037968351256469  0.7973557908305579  1.0000
  O   O1        1.0  0.9386114562227377  0.6822905972265546  0.6260016375259382  1.0000
  O   O2        1.0  0.06138855075876389  0.31771162591239493  0.625999703315287  1.0000
  O   O3        1.0  0.3177117685966592  0.06138896311640002  0.1259997624653622  1.0000
  O   O4        1.0  0.6822864475229338  0.9386102830945335  0.12599806892081486  1.0000
  O   O5        1.0  0.740198596912201  0.5235003544194968  0.6924309329567322  1.0000
  O   O6        1.0  0.2598046423496712  0.47649916761076144  0.6924331960850266  1.0000
  O   O7        1.0  0.47649796651175785  0.2598055669399031  0.19243335557615637  1.0000
  O   O8        1.0  0.5235015105510001  0.7401943967033021  0.1924297269043294  1.0000
