data_image0
_chemical_formula_structural       Cu2P4H48C52Cl4O4
_chemical_formula_sum              "Cu2 P4 H48 C52 Cl4 O4"
_cell_length_a       10.389329499400777
_cell_length_b       11.714545617009941
_cell_length_c       11.714514325489638
_cell_angle_alpha    117.04558362049109
_cell_angle_beta     94.02612898735944
_cell_angle_gamma    94.02623270524776

_space_group_name_H-M_alt    "P 1"
_space_group_IT_number       1

loop_
  _space_group_symop_operation_xyz
  'x, y, z'

loop_
  _atom_site_type_symbol
  _atom_site_label
  _atom_site_symmetry_multiplicity
  _atom_site_fract_x
  _atom_site_fract_y
  _atom_site_fract_z
  _atom_site_occupancy
  Cu  Cu1       1.0  0.750000183560161  0.8084985813271284  0.19150027047935922  1.0000
  Cu  Cu2       1.0  0.2500001145576363  0.1915017573716185  0.8084989501840667  1.0000
  P   P1        1.0  0.9174581901241865  0.5731619596186731  0.18626967192827953  1.0000
  P   P2        1.0  0.5825433859164945  0.8137311713702782  0.4268383852781524  1.0000
  P   P3        1.0  0.0825446855690686  0.42683548224807305  0.8137309347984854  1.0000
  P   P4        1.0  0.4174558435471383  0.1862681839187346  0.5731628800362998  1.0000
  H   H1        1.0  0.110770141887933  0.4935150782344165  0.09223200416090538  1.0000
  H   H2        1.0  0.38923093693180283  0.9077682722334044  0.5064856817889094  1.0000
  H   H3        1.0  0.8892329490412437  0.5064842932871088  0.907769501964836  1.0000
  H   H4        1.0  0.6107679667911513  0.09222819825624379  0.49351253139150225  1.0000
  H   H5        1.0  0.21905163494101032  0.8791897913657107  0.6704612605987349  1.0000
  H   H6        1.0  0.2809531169979849  0.3295381281779014  0.12081264263679967  1.0000
  H   H7        1.0  0.7809517759552663  0.12081248432080118  0.3295398915899241  1.0000
  H   H8        1.0  0.7190458943429335  0.6704593071391328  0.879186020243104  1.0000
  H   H9        1.0  0.15180244897593553  0.976353291215986  0.5298286192878764  1.0000
  H   H10       1.0  0.3481992978379509  0.4701705932314581  0.023647119670393093  1.0000
  H   H11       1.0  0.8481950635474506  0.023647990452957405  0.4701725735021327  1.0000
  H   H12       1.0  0.6517998196775352  0.529827811754373  0.9763511413912198  1.0000
  H   H13       1.0  0.019445147357629398  0.8417432339553839  0.31814565874401507  1.0000
  H   H14       1.0  0.48055620226320184  0.6818537852567487  0.15825628766283018  1.0000
  H   H15       1.0  0.9805532272443643  0.15825707242008485  0.6818576991026646  1.0000
  H   H16       1.0  0.5194427029031488  0.3181426803914888  0.841742777035364  1.0000
  H   H17       1.0  0.07605458888826892  0.6358263593927518  0.08422243116800833  1.0000
  H   H18       1.0  0.4239448383528385  0.9157767292254703  0.36417449830332765  1.0000
  H   H19       1.0  0.9239466789261002  0.36417396883991415  0.9157794042515803  1.0000
  H   H20       1.0  0.5760551397978518  0.08422070530828309  0.6358250762971807  1.0000
  H   H21       1.0  0.6624142332270324  0.4866415848803809  0.20902918349638355  1.0000
  H   H22       1.0  0.8375878731849085  0.7909714295798618  0.5133571141763439  1.0000
  H   H23       1.0  0.33758714220529373  0.5133597081796779  0.7909731016226971  1.0000
  H   H24       1.0  0.16241317217656362  0.20902699320503607  0.48663956425536276  1.0000
  H   H25       1.0  0.5567235728804221  0.274424577526993  0.17238070925500887  1.0000
  H   H26       1.0  0.94327835108507  0.8276204223658608  0.7255755143277866  1.0000
  H   H27       1.0  0.4432758703757358  0.7255767122582097  0.8276206039406446  1.0000
  H   H28       1.0  0.05672484168849223  0.1723799333486795  0.2744230354263237  1.0000
  H   H29       1.0  0.6858625858704812  0.08677745634130928  0.11027804088543292  1.0000
  H   H30       1.0  0.814137168911941  0.889724414568526  0.9132233729073888  1.0000
  H   H31       1.0  0.3141339598431259  0.9132238261109148  0.8897222401839711  1.0000
  H   H32       1.0  0.1858652722877707  0.11027787158406707  0.0867751645251076  1.0000
  H   H33       1.0  0.9190083734890422  0.11324907282987337  0.0852012630927774  1.0000
  H   H34       1.0  0.5809921993738527  0.9148024582676157  0.8867530774299228  1.0000
  H   H35       1.0  0.0809889237984223  0.8867502791842836  0.9147990302982478  1.0000
  H   H36       1.0  0.4190102432692555  0.0851998230435811  0.11324631152035641  1.0000
  H   H37       1.0  0.025891021307700202  0.3238644148668328  0.121556755827207  1.0000
  H   H38       1.0  0.4741113505105261  0.8784444640050139  0.6761355510863041  1.0000
  H   H39       1.0  0.9741079900332181  0.6761330204502015  0.8784419070526965  1.0000
  H   H40       1.0  0.5258898039122997  0.1215549187658738  0.3238624285626699  1.0000
  H   H41       1.0  0.02301879264389581  0.5099782850094812  0.38882554322006513  1.0000
  H   H42       1.0  0.47698483787691964  0.6111790434741093  0.4900248320553899  1.0000
  H   H43       1.0  0.9769805473244804  0.4900220254241175  0.6111778748294369  1.0000
  H   H44       1.0  0.5230153540663096  0.38882032555584084  0.5099747904263268  1.0000
  H   H45       1.0  0.1583563997608479  0.6455028796055301  0.5990146893170732  1.0000
  H   H46       1.0  0.3416475015419422  0.4009890534221794  0.354502684024851  1.0000
  H   H47       1.0  0.8416460457690391  0.3544993920228592  0.4009864026687637  1.0000
  H   H48       1.0  0.6583508672864795  0.5990112723189114  0.645497267750713  1.0000
  C   C1        1.0  0.03265786652106329  0.540735842541224  0.06884430624312178  1.0000
  C   C2        1.0  0.4673412831669665  0.9311558970098943  0.45926448607869463  1.0000
  C   C3        1.0  0.9673442561549379  0.45926353460498587  0.9311554366442394  1.0000
  C   C4        1.0  0.5326560126771015  0.06884345984567365  0.540734955794548  1.0000
  C   C5        1.0  0.8511986109373311  0.42032747196510906  0.1707407851625575  1.0000
  C   C6        1.0  0.6488034265185761  0.8292609622366242  0.5796734913131942  1.0000
  C   C7        1.0  0.14880147483133038  0.5796709273960372  0.8292592391374498  1.0000
  C   C8        1.0  0.3511977307910428  0.17073841085145594  0.42032619137134475  1.0000
  C   C9        1.0  0.718834202826642  0.40535377621825563  0.18471112119705418  1.0000
  C   C10       1.0  0.7811667944234132  0.8152911481286578  0.5946457855932934  1.0000
  C   C11       1.0  0.28116513425494827  0.5946465438981505  0.81529059381689  1.0000
  C   C12       1.0  0.2188335022509946  0.18470919541149294  0.4053525835523502  1.0000
  C   C13       1.0  0.659855279884077  0.2857367327582451  0.16351717895042842  1.0000
  C   C14       1.0  0.8401470255454769  0.8364843104882024  0.7142644428753754  1.0000
  C   C15       1.0  0.3401430875009482  0.7142635978242494  0.8364819213073461  1.0000
  C   C16       1.0  0.1598553094796671  0.16351700599559388  0.28573449637541165  1.0000
  C   C17       1.0  0.7319030466105545  0.18079460189328236  0.12779335149857468  1.0000
  C   C18       1.0  0.7680992304209866  0.8722095871028226  0.8192071141190523  1.0000
  C   C19       1.0  0.2680944615826561  0.8192066942998787  0.8722052867380865  1.0000
  C   C20       1.0  0.2319033183966823  0.12779366387716345  0.1807918730129288  1.0000
  C   C21       1.0  0.8635908841585903  0.1957035242713445  0.11429871421191959  1.0000
  C   C22       1.0  0.6364108820299493  0.8857035158867603  0.8042960364977746  1.0000
  C   C23       1.0  0.1364053372577416  0.8042948685401039  0.8856993662412265  1.0000
  C   C24       1.0  0.3635907028647267  0.11429972619369978  0.1957037419491741  1.0000
  C   C25       1.0  0.9238161379986707  0.31513654169085464  0.13586673234456728  1.0000
  C   C26       1.0  0.5761837798995019  0.864136191865647  0.6848629593940245  1.0000
  C   C27       1.0  0.0761829795168154  0.6848618632949763  0.8641315287170528  1.0000
  C   C28       1.0  0.42381662583625973  0.1358651116604932  0.31513671096889345  1.0000
  C   C29       1.0  0.0122653286939638  0.6672987290203736  0.3407290121738029  1.0000
  C   C30       1.0  0.4877337563113927  0.6592715839941546  0.3327002355626902  1.0000
  C   C31       1.0  0.9877330444646333  0.33270158219649903  0.6592734941550944  1.0000
  C   C32       1.0  0.5122651459681721  0.3407248913368902  0.6672971260999461  1.0000
  C   C33       1.0  0.05160756522947449  0.6120080016026462  0.4195581051815082  1.0000
  C   C34       1.0  0.4483949401043503  0.5804433091913238  0.3879936027661158  1.0000
  C   C35       1.0  0.9483927386619018  0.3879923177304787  0.5804445215530336  1.0000
  C   C36       1.0  0.5516051456643112  0.4195550901698296  0.6120064215338844  1.0000
  C   C37       1.0  0.127348530832549  0.6880517424293797  0.5374051644315969  1.0000
  C   C38       1.0  0.3726563784935095  0.4625956274366345  0.3119520640760882  1.0000
  C   C39       1.0  0.8726528417129913  0.31194956031347937  0.46259541765192574  1.0000
  C   C40       1.0  0.6273426314040195  0.5374018127218037  0.68804574728604  1.0000
  C   C41       1.0  0.1624246341046884  0.8190234234315664  0.5770976480860311  1.0000
  C   C42       1.0  0.337579295009526  0.4229043183140959  0.18098088506258853  1.0000
  C   C43       1.0  0.8375757759612555  0.18097786557036236  0.4229045768302271  1.0000
  C   C44       1.0  0.6624197177747818  0.5770931121615346  0.8190186293350976  1.0000
  C   C45       1.0  0.12343603087245472  0.8742016276136865  0.498445675928359  1.0000
  C   C46       1.0  0.37656691006349524  0.5015553433288247  0.12579999496045244  1.0000
  C   C47       1.0  0.8765634167138856  0.12579964764730522  0.5015581918206351  1.0000
  C   C48       1.0  0.6234321012774231  0.4984420919882096  0.8741986679194582  1.0000
  C   C49       1.0  0.0492832366509859  0.7987167155162068  0.3798389801956644  1.0000
  C   C50       1.0  0.45071892861861335  0.6201618478273544  0.2012841052918972  1.0000
  C   C51       1.0  0.9507151379510006  0.2012835908592621  0.6201643776510082  1.0000
  C   C52       1.0  0.5492799736609513  0.37983462750369057  0.7987132563707321  1.0000
  Cl  Cl1       1.0  0.5868284847288764  0.8815941875919789  0.12485003213193109  1.0000
  Cl  Cl2       1.0  0.9131721918826083  0.875150403888696  0.11840581865006768  1.0000
  Cl  Cl3       1.0  0.413168274777263  0.11840902935642816  0.8751502968186743  1.0000
  Cl  Cl4       1.0  0.08683218293666073  0.12485188069734927  0.8815945422236383  1.0000
  O   O1        1.0  0.8062670781688369  0.6401734363606764  0.16233281818295342  1.0000
  O   O2        1.0  0.6937334601826566  0.8376694447930647  0.3598261293695445  1.0000
  O   O3        1.0  0.19373257424118864  0.35982111337371236  0.8376637042835213  1.0000
  O   O4        1.0  0.3062679166930593  0.1623318434255836  0.6401770072673189  1.0000
