data_image0
_chemical_formula_structural       Zr6H23C50N7O46
_chemical_formula_sum              "Zr6 H23 C50 N7 O46"
_cell_length_a       14.757412332987814
_cell_length_b       14.764265328640954
_cell_length_c       14.78177363513309
_cell_angle_alpha    60.28524446486452
_cell_angle_beta     60.01663388820106
_cell_angle_gamma    60.07869442011249

_space_group_name_H-M_alt    "P 1"
_space_group_IT_number       1

loop_
  _space_group_symop_operation_xyz
  'x, y, z'

loop_
  _atom_site_type_symbol
  _atom_site_label
  _atom_site_symmetry_multiplicity
  _atom_site_fract_x
  _atom_site_fract_y
  _atom_site_fract_z
  _atom_site_occupancy
  Zr  Zr1       1.0  0.8810642573441496  0.879706672527853  0.6120206307739978  1.0000
  Zr  Zr2       1.0  0.11818596313795386  0.12129934127275985  0.3763991792292813  1.0000
  Zr  Zr3       1.0  0.11933173190072945  0.8818515550133623  0.61312044123698  1.0000
  Zr  Zr4       1.0  0.8784446666378825  0.12006513562001701  0.3766264387807753  1.0000
  Zr  Zr5       1.0  0.11981661694964159  0.882684479192484  0.3725188226565023  1.0000
  Zr  Zr6       1.0  0.8784194028838072  0.11902960222023036  0.6160814261996066  1.0000
  H   H1        1.0  0.09591239880955264  0.7181447762112114  0.5846348092658786  1.0000
  H   H2        1.0  0.09288999519075249  0.09823327919281868  0.21201842864577708  1.0000
  H   H3        1.0  0.09372114778216907  0.09538148055640508  0.5887566443029756  1.0000
  H   H4        1.0  0.7160051670046954  0.09236744161664504  0.5903233127858627  1.0000
  H   H5        1.0  0.8206548175370613  0.6354071293485359  0.573912543409314  1.0000
  H   H6        1.0  0.17404380247938186  0.5431207783797662  0.40227266274815315  1.0000
  H   H7        1.0  0.8211891798646604  0.4634261642775926  0.5770393892888919  1.0000
  H   H8        1.0  0.5812192428594612  0.8505971718866974  0.9141636811305033  1.0000
  H   H9        1.0  0.6085523240739974  0.12272390994402127  0.9232289516265054  1.0000
  H   H10       1.0  0.4116668014935456  0.8568600562554424  0.08406059727942519  1.0000
  H   H11       1.0  0.13969087860981927  0.8522112065340581  0.0818328876402959  1.0000
  H   H12       1.0  0.8502643902031578  0.1451623580503851  0.08377059557044926  1.0000
  H   H13       1.0  0.13889430152126195  0.8551965562425038  0.9113742875421734  1.0000
  H   H14       1.0  0.5899536638681794  0.4287272921066716  0.6328331603685626  1.0000
  H   H15       1.0  0.5914114242068109  0.415595727390695  0.3477964686783609  1.0000
  H   H16       1.0  0.4223370864321012  0.6004884812420671  0.6266528336743207  1.0000
  H   H17       1.0  0.7495599015916312  0.6202525965317421  0.9391478748476135  1.0000
  H   H18       1.0  0.8520018515390717  0.5330405107057673  0.8573916691840965  1.0000
  H   H19       1.0  0.8478255745154467  0.3655113907709336  0.030093551996373067  1.0000
  H   H20       1.0  0.7440074540119993  0.4529675697084628  0.11144744045147092  1.0000
  H   H21       1.0  0.5891505392105428  0.13902648986946547  0.34290962927173757  1.0000
  H   H22       1.0  0.5892534758872824  0.8522918089111473  0.6362089215607368  1.0000
  H   H23       1.0  0.418382513593606  0.13793739004932354  0.34678437512969407  1.0000
  C   C1        1.0  0.9973976781463066  0.701612882778562  0.48592455423916203  1.0000
  C   C2        1.0  0.3083585695305758  0.9984824080359971  0.1950475787886747  1.0000
  C   C3        1.0  0.9951366468400592  0.30504428158985053  0.4969971934057754  1.0000
  C   C4        1.0  0.7018625784509493  0.9897524320722371  0.8036553956279209  1.0000
  C   C5        1.0  0.995729288214207  0.7018299999434134  0.800452968472051  1.0000
  C   C6        1.0  0.6997924628402074  0.9962909309897154  0.489586529332847  1.0000
  C   C7        1.0  0.9847916233180171  0.31453667832479243  0.20495219283711935  1.0000
  C   C8        1.0  0.30623208924233586  0.9970902593048052  0.49145530776366547  1.0000
  C   C9        1.0  0.30901098248357767  0.7035083801899162  0.487297285185015  1.0000
  C   C10       1.0  0.9958737246147892  0.9984087755078124  0.8012028805191137  1.0000
  C   C11       1.0  0.6974779664043851  0.3072440349828228  0.49500238957863735  1.0000
  C   C12       1.0  0.9957304313663329  0.9993220022606553  0.1931319836866052  1.0000
  C   C13       1.0  0.9972597015928455  0.4046971606014367  0.4979359223304629  1.0000
  C   C14       1.0  0.9963960052869538  0.600675406376496  0.486442548328128  1.0000
  C   C15       1.0  0.09577497399996567  0.42788291611832113  0.4516892760701552  1.0000
  C   C16       1.0  0.8974306313212139  0.577364874202182  0.5375028903617293  1.0000
  C   C17       1.0  0.09653264595112192  0.526253114839811  0.4410534938098891  1.0000
  C   C18       1.0  0.8977905594503282  0.48139296247982344  0.5405478018589067  1.0000
  C   C19       1.0  0.4137109746465911  0.9934005302322076  0.09825220091190802  1.0000
  C   C20       1.0  0.6038379253252658  0.9873571414664114  0.9076322226408138  1.0000
  C   C21       1.0  0.4719092053972744  0.06630072111881455  0.05213246800001771  1.0000
  C   C22       1.0  0.5495542289860751  0.9112021929739598  0.953586542931376  1.0000
  C   C23       1.0  0.5652147363649931  0.06486088967712073  0.95780384473359  1.0000
  C   C24       1.0  0.4554330082641301  0.91481926263652  0.0475562619456725  1.0000
  C   C25       1.0  0.9948901074561436  0.0007380485271684788  0.9015655712450439  1.0000
  C   C26       1.0  0.9952200357644471  0.9984651987465726  0.09269928975760426  1.0000
  C   C27       1.0  0.9146758719959394  0.08227414647985405  0.9511998910439702  1.0000
  C   C28       1.0  0.07670304034622417  0.916672593490084  0.044379988156165895  1.0000
  C   C29       1.0  0.9134628379709467  0.08182237417336331  0.04581706055886078  1.0000
  C   C30       1.0  0.07628940208638835  0.9182856935241899  0.9497434561410785  1.0000
  C   C31       1.0  0.41198323178498714  0.6041975657077074  0.48509851940431764  1.0000
  C   C32       1.0  0.6000704306654183  0.41191242853881255  0.4910617637031934  1.0000
  C   C33       1.0  0.4619387973806042  0.5513840790579749  0.40642948494349446  1.0000
  C   C34       1.0  0.5533049704304815  0.46408743196074204  0.5693235404025287  1.0000
  C   C35       1.0  0.5545508214744997  0.4564724566385293  0.4084633121619349  1.0000
  C   C36       1.0  0.46022114042893497  0.5591602082134629  0.5660893515339396  1.0000
  C   C37       1.0  0.9910737905626021  0.6069041924870079  0.9061234650375883  1.0000
  C   C38       1.0  0.9776213766519604  0.4212850147799684  0.11132875618396562  1.0000
  C   C39       1.0  0.9156440108415111  0.5525768572090898  0.9521614903000782  1.0000
  C   C40       1.0  0.04682967333621957  0.4826113076460031  0.07112080659896246  1.0000
  C   C41       1.0  0.9115520450445587  0.46098065429173113  0.04907941513811674  1.0000
  C   C42       1.0  0.05849135462261756  0.5670499676307301  0.9692284249043651  1.0000
  C   C43       1.0  0.8258755625300369  0.5481574352915574  0.9338839481074217  1.0000
  C   C44       1.0  0.8226123830174854  0.443449917820189  0.042204711361748144  1.0000
  C   C45       1.0  0.40764590297201386  0.9951913211797819  0.49245942047332386  1.0000
  C   C46       1.0  0.5994459570298005  0.9955537467038127  0.488915861551739  1.0000
  C   C47       1.0  0.4569243989039081  0.9156304467176355  0.5737404979405908  1.0000
  C   C48       1.0  0.5515453775920491  0.07619947591235388  0.4073179317155677  1.0000
  C   C49       1.0  0.551935270410489  0.9144755968964517  0.5726838495517584  1.0000
  C   C50       1.0  0.4566006434499171  0.0757580527686201  0.4094700265691031  1.0000
  N   N1        1.0  0.20503135396172908  0.3422575600012365  0.4243056448685465  1.0000
  N   N2        1.0  0.4401524274895933  0.14933621675223926  0.10023284007270662  1.0000
  N   N3        1.0  0.8272198366899488  0.17579094897387643  0.9052951591584062  1.0000
  N   N4        1.0  0.41894446370530153  0.5915491257247608  0.31672455044048325  1.0000
  N   N5        1.0  0.4107591604215984  0.8286835172448335  0.6676648813152469  1.0000
  N   N6        1.0  0.10254941430957125  0.464354459937269  0.14209557309595064  1.0000
  N   N7        1.0  0.1461451661949412  0.6136123737733143  0.9289490243242894  1.0000
  O   O1        1.0  0.9195864581941107  0.7412887558928318  0.5627033029240706  1.0000
  O   O2        1.0  0.2661759168240607  0.07787285090493162  0.23204792562678023  1.0000
  O   O3        1.0  0.07124821397513169  0.2664594183154918  0.41926569603029407  1.0000
  O   O4        1.0  0.7395598090877727  0.9147073182157045  0.7620546535948806  1.0000
  O   O5        1.0  0.07121477608388473  0.7428040727570248  0.7607181102498543  1.0000
  O   O6        1.0  0.7382687473907268  0.0740048623754675  0.41410115479494186  1.0000
  O   O7        1.0  0.9115345450180498  0.2724579843289233  0.2386774028946236  1.0000
  O   O8        1.0  0.26575410888008844  0.9210336673135942  0.5681527845476494  1.0000
  O   O9        1.0  0.2693812378082043  0.7425772826655361  0.4108864412997379  1.0000
  O   O10       1.0  0.918321377543954  0.073877473050068  0.7623690022322337  1.0000
  O   O11       1.0  0.7350775302063325  0.2665692562857559  0.573286396922228  1.0000
  O   O12       1.0  0.07334881155375673  0.9232622705537564  0.23145967748545362  1.0000
  O   O13       1.0  0.0737224070951185  0.9222341474600171  0.7614818429123318  1.0000
  O   O14       1.0  0.7344147406854515  0.2657008811567891  0.4202411633068336  1.0000
  O   O15       1.0  0.9195909013237297  0.07725823450460481  0.23185882605379504  1.0000
  O   O16       1.0  0.2675296491174495  0.7400148238238201  0.5666923200874266  1.0000
  O   O17       1.0  0.9227991362780867  0.7337855124626459  0.7588113078954067  1.0000
  O   O18       1.0  0.26682562891851097  0.07393376934084736  0.41536538044729093  1.0000
  O   O19       1.0  0.06628764731382839  0.2716785929187324  0.2385012042398031  1.0000
  O   O20       1.0  0.7385322367462874  0.9203133099769051  0.5668548874500204  1.0000
  O   O21       1.0  0.7391833011650559  0.06838956603295542  0.7631123744106105  1.0000
  O   O22       1.0  0.07646443337701926  0.7387253771219519  0.4116764427685809  1.0000
  O   O23       1.0  0.26691953106366356  0.923903765686063  0.2316316683533374  1.0000
  O   O24       1.0  0.9167500126575305  0.2676574272983532  0.5724073982990846  1.0000
  O   O25       1.0  0.7964737816048882  0.06617035993337343  0.5631691100254201  1.0000
  O   O26       1.0  0.06608563532252999  0.06820518637419333  0.5629497521975039  1.0000
  O   O27       1.0  0.06569114003605851  0.07079134746631148  0.29218575099920235  1.0000
  O   O28       1.0  0.06828883390846135  0.7983612048787946  0.5593883720868718  1.0000
  O   O29       1.0  0.1478611912527301  0.9523046762457382  0.44411111021694444  1.0000
  O   O30       1.0  0.9503218928909829  0.9512151818733515  0.443408227594155  1.0000
  O   O31       1.0  0.9482047115697511  0.14917408656854994  0.4470394897089561  1.0000
  O   O32       1.0  0.9499263954066283  0.9499430042785447  0.6427883676718481  1.0000
  O   O33       1.0  0.2195909052607163  0.25201673851307044  0.4997898665115343  1.0000
  O   O34       1.0  0.27499411604980395  0.3673432466769526  0.33301917807025216  1.0000
  O   O35       1.0  0.3899013919465801  0.24569904768335962  0.0553921460452358  1.0000
  O   O36       1.0  0.4733989421888509  0.11584896249237185  0.17692134640386578  1.0000
  O   O37       1.0  0.8507299236302114  0.2601048002599172  0.8364988910432984  1.0000
  O   O38       1.0  0.7358779691996206  0.16470685151156775  0.9442970255230563  1.0000
  O   O39       1.0  0.34921854491392407  0.5550287245102156  0.3370093682246704  1.0000
  O   O40       1.0  0.46165066707113306  0.6527856239993568  0.2264234664045832  1.0000
  O   O41       1.0  0.340126215855591  0.8531956648818594  0.7513033706518754  1.0000
  O   O42       1.0  0.4518743968706219  0.7366446109198393  0.657423287211053  1.0000
  O   O43       1.0  0.038488412917764864  0.4878964356587119  0.22781106875965657  1.0000
  O   O44       1.0  0.2044590393263661  0.4329687062631037  0.10905348059172584  1.0000
  O   O45       1.0  0.23393192544017447  0.5795296227764836  0.8599333735854131  1.0000
  O   O46       1.0  0.12405291547617031  0.6795716594862284  0.9711585893463449  1.0000
