data_image0
_chemical_formula_structural       Ag4H48C72N12O12
_chemical_formula_sum              "Ag4 H48 C72 N12 O12"
_cell_length_a       8.148265633225662
_cell_length_b       10.85702349284159
_cell_length_c       17.985923322971782
_cell_angle_alpha    103.58021629817057
_cell_angle_beta     89.99942626424048
_cell_angle_gamma    90.00075021343307

_space_group_name_H-M_alt    "P 1"
_space_group_IT_number       1

loop_
  _space_group_symop_operation_xyz
  'x, y, z'

loop_
  _atom_site_type_symbol
  _atom_site_label
  _atom_site_symmetry_multiplicity
  _atom_site_fract_x
  _atom_site_fract_y
  _atom_site_fract_z
  _atom_site_occupancy
  Ag  Ag1       1.0  0.897418442856143  0.4915655430639135  0.3454883689054071  1.0000
  Ag  Ag2       1.0  0.39741859520952255  0.5084358426908863  0.15451155035935224  1.0000
  Ag  Ag3       1.0  0.1025871303639576  0.5084346401696892  0.6545109131859662  1.0000
  Ag  Ag4       1.0  0.6025832962269105  0.4915643257653814  0.8454893975944274  1.0000
  H   H1        1.0  0.7050176086424499  0.33724357888546314  0.5906824751646695  1.0000
  H   H2        1.0  0.20500990960309204  0.6627496164351145  0.9093176454719655  1.0000
  H   H3        1.0  0.2949830555575232  0.6627566043272424  0.4093168069348536  1.0000
  H   H4        1.0  0.7949932090675061  0.3372467667806164  0.090682198432674  1.0000
  H   H5        1.0  0.5642609774606201  0.5308122687727206  0.6595228981095005  1.0000
  H   H6        1.0  0.06426000874896692  0.4691749856271343  0.840477559599563  1.0000
  H   H7        1.0  0.43573968673877767  0.46918697181896357  0.3404756915141718  1.0000
  H   H8        1.0  0.9357431099283956  0.5308223451301757  0.1595224214954882  1.0000
  H   H9        1.0  0.48742816066116024  0.7605690393880807  0.6658009753100204  1.0000
  H   H10       1.0  0.9874324406457262  0.2394151405598706  0.8342021133936584  1.0000
  H   H11       1.0  0.5125712762832039  0.23943020119838113  0.3341976143156984  1.0000
  H   H12       1.0  0.0125669962868358  0.7605850328065034  0.16579827927876783  1.0000
  H   H13       1.0  0.4920669927287874  0.9432057908480973  0.6056280183373133  1.0000
  H   H14       1.0  0.992071656628859  0.05678220399848039  0.8943772695683309  1.0000
  H   H15       1.0  0.5079312169611185  0.05679439235416339  0.39437126376628845  1.0000
  H   H16       1.0  0.007919189511710601  0.9432170217897422  0.10562298592795119  1.0000
  H   H17       1.0  0.6241135122287818  0.9234941589163486  0.47788106946313047  1.0000
  H   H18       1.0  0.12411640699798451  0.07649821317212262  0.022124905827226406  1.0000
  H   H19       1.0  0.37588592471615806  0.07650602429113461  0.5221182126384392  1.0000
  H   H20       1.0  0.8758793481559551  0.923500065095418  0.9778752124704795  1.0000
  H   H21       1.0  0.7589055733798061  0.7208389290605766  0.4118544556440753  1.0000
  H   H22       1.0  0.2589068680224856  0.27915935779432033  0.0881484259591119  1.0000
  H   H23       1.0  0.24109631807576898  0.2791621967783797  0.5881455189292666  1.0000
  H   H24       1.0  0.7410925688830188  0.7208370254057429  0.9118514179516454  1.0000
  H   H25       1.0  0.7879720294738705  0.1790816641957775  0.5250148001934392  1.0000
  H   H26       1.0  0.2879705510900976  0.8209141423017386  0.9749842085758686  1.0000
  H   H27       1.0  0.212028634727254  0.8209204042589773  0.4749858668577929  1.0000
  H   H28       1.0  0.7120301130833939  0.17908319336567763  0.02501521723782931  1.0000
  H   H29       1.0  0.9274182339744995  0.9890516897657805  0.4471568429166979  1.0000
  H   H30       1.0  0.4274143935922865  0.010947128430466102  0.0528403439490006  1.0000
  H   H31       1.0  0.07258365746869802  0.010949426232066597  0.5528442422275078  1.0000
  H   H32       1.0  0.5725838160970441  0.9890521121507732  0.9471582456787573  1.0000
  H   H33       1.0  0.10720973401477352  0.8923384173069382  0.3345353417402849  1.0000
  H   H34       1.0  0.6072093092722426  0.10766621254832394  0.1654630333518625  1.0000
  H   H35       1.0  0.8927909301851925  0.10766176590577463  0.6654639403592385  1.0000
  H   H36       1.0  0.39278399137335646  0.8923348935718424  0.8345391623774818  1.0000
  H   H37       1.0  0.2554550332078946  0.9165118471658646  0.21971806959982842  1.0000
  H   H38       1.0  0.7554626895566232  0.0834902841559568  0.280275932368653  1.0000
  H   H39       1.0  0.744543176494389  0.0834883458775053  0.7802801019329167  1.0000
  H   H40       1.0  0.24452570206942428  0.9165117645643406  0.7197269558446918  1.0000
  H   H41       1.0  0.2610840717880123  0.1257758868770154  0.183950129525094  1.0000
  H   H42       1.0  0.761087579625986  0.8742253546490631  0.3160426059830641  1.0000
  H   H43       1.0  0.7389141379075069  0.8742233586247748  0.816047904817232  1.0000
  H   H44       1.0  0.23890572102580174  0.12577575639165423  0.683959034460841  1.0000
  H   H45       1.0  0.11744810397935619  0.3120949302818162  0.26480241595765364  1.0000
  H   H46       1.0  0.6174452350179535  0.6879069687046736  0.23519273711686853  1.0000
  H   H47       1.0  0.882551332971772  0.6879052578462251  0.7351963108584771  1.0000
  H   H48       1.0  0.3825554291746798  0.3120913243454382  0.7648057153163847  1.0000
  C   C1        1.0  0.7815203047802938  0.4174209581553044  0.49555870573462363  1.0000
  C   C2        1.0  0.2815140300479015  0.5825756408746942  0.0044421604926796286  1.0000
  C   C3        1.0  0.21848281394945704  0.5825811250715702  0.5044402954562273  1.0000
  C   C4        1.0  0.7184878613682385  0.41742168495684245  0.9955583758898428  1.0000
  C   C5        1.0  0.704002432355992  0.42012206378817774  0.5666150673361301  1.0000
  C   C6        1.0  0.2039988878316379  0.5798711229074627  0.9333850566671487  1.0000
  C   C7        1.0  0.29599945910577224  0.57987906697133  0.4333843519517799  1.0000
  C   C8        1.0  0.7960042308395356  0.4201262029292891  0.0666154797133345  1.0000
  C   C9        1.0  0.6253960396367974  0.5284641406972597  0.6052637793811686  1.0000
  C   C10       1.0  0.12539391091292626  0.4715255243289819  0.8947373048373422  1.0000
  C   C11       1.0  0.3746046245699405  0.4715369900570252  0.39473563990878097  1.0000
  C   C12       1.0  0.8746067532611336  0.5284727539594555  0.10526281345221382  1.0000
  C   C13       1.0  0.622574643381256  0.6365621465549792  0.5740608858367864  1.0000
  C   C14       1.0  0.12257729753886079  0.3634274846307691  0.9259413183204543  1.0000
  C   C15       1.0  0.3774260208131039  0.36343897435819633  0.4259396440240195  1.0000
  C   C16       1.0  0.8774233666222457  0.6365698411955378  0.07405921806410731  1.0000
  C   C17       1.0  0.546339398604097  0.7524123110482679  0.610397840879891  1.0000
  C   C18       1.0  0.046343286135474705  0.24757571373705636  0.8896055899941261  1.0000
  C   C19       1.0  0.4536612655958763  0.24758787216443778  0.38960144121963225  1.0000
  C   C20       1.0  0.9536549235229116  0.7524235022414062  0.1103957760607841  1.0000
  C   C21       1.0  0.5485583111794056  0.8538932635650341  0.5764610243622671  1.0000
  C   C22       1.0  0.0485609004886314  0.1460947702641988  0.9235435097110738  1.0000
  C   C23       1.0  0.45144112575315626  0.14610690980133967  0.4235393683101591  1.0000
  C   C24       1.0  0.9514336274046543  0.853904445698589  0.07645785634995413  1.0000
  C   C25       1.0  0.6244978720852287  0.8428116682004756  0.5043464151481842  1.0000
  C   C26       1.0  0.1245027406379933  0.1571845924767885  0.9956589640889248  1.0000
  C   C27       1.0  0.3755027921153201  0.1571894576332582  0.4956535594271898  1.0000
  C   C28       1.0  0.8754930145041443  0.8428146185706638  0.004342957255495588  1.0000
  C   C29       1.0  0.6995648149179772  0.7313838659608649  0.46745046995824424  1.0000
  C   C30       1.0  0.19956592859608688  0.2686110779960202  0.032551641984632305  1.0000
  C   C31       1.0  0.300437076543794  0.2686172647986425  0.5325489493296587  1.0000
  C   C32       1.0  0.8004322810549525  0.7313862478198344  0.9674488944040078  1.0000
  C   C33       1.0  0.7017369851848089  0.626316970027716  0.5017771398407191  1.0000
  C   C34       1.0  0.20174067295585016  0.37367808265404534  0.9982243766305815  1.0000
  C   C35       1.0  0.29826490627753094  0.3736851033528197  0.4982229719230348  1.0000
  C   C36       1.0  0.798258763944041  0.6263192382464808  0.0017767150414585236  1.0000
  C   C37       1.0  0.867477951133516  0.30194072400048816  0.4516342105912585  1.0000
  C   C38       1.0  0.3674714958642085  0.6980575691258933  0.0483648413234405  1.0000
  C   C39       1.0  0.13252639484507966  0.6980613543110508  0.5483653458829849  1.0000
  C   C40       1.0  0.6325303955648848  0.30194070916776644  0.951635276964069  1.0000
  C   C41       1.0  0.858164267425188  0.18553280103866848  0.4746662099201018  1.0000
  C   C42       1.0  0.35815790267698583  0.8144644554140753  0.02533384632532429  1.0000
  C   C43       1.0  0.14184007853426553  0.8144683198901818  0.5253343199345863  1.0000
  C   C44       1.0  0.6418415342476607  0.18553288516867641  0.9746650242049809  1.0000
  C   C45       1.0  0.935748430808509  0.08020614647470842  0.4317036443772793  1.0000
  C   C46       1.0  0.4357429565644395  0.9197946278751276  0.06829489976063742  1.0000
  C   C47       1.0  0.06425591515094448  0.9197949744541347  0.5682968854774089  1.0000
  C   C48       1.0  0.5642564803737358  0.0802046077907761  0.9317042451505132  1.0000
  C   C49       1.0  0.026490703850356595  0.08848524650483111  0.3660367720447296  1.0000
  C   C50       1.0  0.5264878489898379  0.9115168109026826  0.13396048633826751  1.0000
  C   C51       1.0  0.973513642115286  0.9115158793445772  0.6339632025245336  1.0000
  C   C52       1.0  0.47351036067416163  0.0884814673753098  0.866039631955367  1.0000
  C   C53       1.0  0.10945044197240608  0.9839086455769462  0.3194430604287959  1.0000
  C   C54       1.0  0.6094505366972598  0.0160950656561525  0.1805540594550834  1.0000
  C   C55       1.0  0.8905502222281426  0.016092480256787698  0.6805569141465853  1.0000
  C   C56       1.0  0.39054276396071685  0.9839060503051231  0.819447025703397  1.0000
  C   C57       1.0  0.1914061408310701  0.9976011606221249  0.254807914063008  1.0000
  C   C58       1.0  0.6914131561798695  0.0024004106599023  0.24518796660458264  1.0000
  C   C59       1.0  0.8085932961138695  0.0023990225853651975  0.7451913680385547  1.0000
  C   C60       1.0  0.3085789172106955  0.9976006954550414  0.7548142291267936  1.0000
  C   C61       1.0  0.1939218929807751  0.11602974037383972  0.23472569531427476  1.0000
  C   C62       1.0  0.6939254679150223  0.883971867072873  0.265268511142601  1.0000
  C   C63       1.0  0.8060799984742245  0.8839704428440953  0.7652735867832093  1.0000
  C   C64       1.0  0.30606905999798784  0.11602924889363211  0.7347325740138331  1.0000
  C   C65       1.0  0.11544548505375468  0.22005391621804188  0.27938229141387444  1.0000
  C   C66       1.0  0.6154470025402362  0.7799498509800243  0.22061425325998837  1.0000
  C   C67       1.0  0.8845551791406051  0.7799472046951409  0.7206182384469315  1.0000
  C   C68       1.0  0.3845512071496699  0.22005033222223605  0.7793850288436133  1.0000
  C   C69       1.0  0.029671793565675796  0.20864341975651254  0.34602084756216556  1.0000
  C   C70       1.0  0.5296663948511622  0.7913596073431607  0.15397709272977525  1.0000
  C   C71       1.0  0.9703325523937777  0.7913577011723374  0.6539796822925225  1.0000
  C   C72       1.0  0.4703330420937775  0.20864057586432236  0.8460221893717872  1.0000
  N   N1        1.0  0.1495839790590736  0.6330192165066464  0.2782518637077587  1.0000
  N   N2        1.0  0.6495868422360901  0.36698389379105123  0.22174443032736244  1.0000
  N   N3        1.0  0.850414230675881  0.3669838290025709  0.7217456088253728  1.0000
  N   N4        1.0  0.3504150492009259  0.6330172172862447  0.778257210102268  1.0000
  N   N5        1.0  0.7778925280793558  0.517592209178183  0.46477104369430583  1.0000
  N   N6        1.0  0.27789241128692055  0.4824043688343238  0.03522872400741761  1.0000
  N   N7        1.0  0.22211181790542864  0.48240987405390706  0.5352279574945129  1.0000
  N   N8        1.0  0.722108252874186  0.517592956991983  0.964771812377144  1.0000
  N   N9        1.0  0.9501699416900208  0.3114502758555915  0.3892356905732868  1.0000
  N   N10       1.0  0.45016439345285864  0.6885515688119527  0.11076294283085285  1.0000
  N   N11       1.0  0.0498356315244664  0.6885508450784813  0.6107648392793621  1.0000
  N   N12       1.0  0.5498374980083297  0.31144861932653367  0.8892357839811995  1.0000
  O   O1        1.0  0.0261833352201961  0.6710944373686376  0.3219107912155437  1.0000
  O   O2        1.0  0.5261914081757482  0.32890858469243506  0.1780843842194031  1.0000
  O   O3        1.0  0.973812420030022  0.32890957043337476  0.6780851526557897  1.0000
  O   O4        1.0  0.47381293775837463  0.6710915739331684  0.8219176743011688  1.0000
  O   O5        1.0  0.15451817346886537  0.5174038514374146  0.24097273442714603  1.0000
  O   O6        1.0  0.6545222327118408  0.48259640904197443  0.2590286844921579  1.0000
  O   O7        1.0  0.845483717942237  0.48259535471560605  0.7590297421925101  1.0000
  O   O8        1.0  0.34548211323523503  0.5174047020457664  0.740972955933394  1.0000
  O   O9        1.0  0.2633561445018131  0.7081622325229944  0.273004516721592  1.0000
  O   O10       1.0  0.7633600322840619  0.2918399611277422  0.2269900142822934  1.0000
  O   O11       1.0  0.7366420652381862  0.29183893266473154  0.7269910155744059  1.0000
  O   O12       1.0  0.23664431365624947  0.7081602024184193  0.7730114889528394  1.0000
