data_image0
_chemical_formula_structural       K2H14C8O12
_chemical_formula_sum              "K2 H14 C8 O12"
_cell_length_a       7.46159596046916
_cell_length_b       7.461581515456159
_cell_length_c       7.616020494606579
_cell_angle_alpha    67.81770262130497
_cell_angle_beta     67.81780609962168
_cell_angle_gamma    89.19177499578933

_space_group_name_H-M_alt    "P 1"
_space_group_IT_number       1

loop_
  _space_group_symop_operation_xyz
  'x, y, z'

loop_
  _atom_site_type_symbol
  _atom_site_label
  _atom_site_symmetry_multiplicity
  _atom_site_fract_x
  _atom_site_fract_y
  _atom_site_fract_z
  _atom_site_occupancy
  K   K1        1.0  0.06506184905899916  0.9452895988666229  0.4890505223483356  1.0000
  K   K2        1.0  0.9452899792377208  0.06506993415202093  0.9890501277919413  1.0000
  H   H1        1.0  0.34615972635130987  0.235766555560879  0.7243986020587059  1.0000
  H   H2        1.0  0.2357653263146631  0.346160008360954  0.22439926461524343  1.0000
  H   H3        1.0  0.5048478098578358  0.8452877946589438  0.2428960583713502  1.0000
  H   H4        1.0  0.8452887244546333  0.5048497386336521  0.7428948129360151  1.0000
  H   H5        1.0  0.5450064754045201  0.3149948249446552  0.16757017060784554  1.0000
  H   H6        1.0  0.3149974132980872  0.5450051259148552  0.6675692371230184  1.0000
  H   H7        1.0  0.41780614737567834  0.21828543748470952  0.4145603310496996  1.0000
  H   H8        1.0  0.21828756894662862  0.4178043461102234  0.9145610555586217  1.0000
  H   H9        1.0  0.5715806723906951  0.7132917183837435  0.8156327356626961  1.0000
  H   H10       1.0  0.713290839190499  0.5715781238298803  0.3156304822499365  1.0000
  H   H11       1.0  0.33003737208684913  0.7403718252918806  0.8246798839853471  1.0000
  H   H12       1.0  0.7403741413124224  0.3300353563279045  0.32467640640484774  1.0000
  H   H13       1.0  0.6458621893401215  0.0767888640903749  0.695137594390019  1.0000
  H   H14       1.0  0.07678802689438409  0.6458625954040045  0.19513522093559746  1.0000
  C   C1        1.0  0.5619298470039098  0.8481256761925947  0.5162909518181493  1.0000
  C   C2        1.0  0.8481251115826466  0.5619295197867729  0.016290473354999262  1.0000
  C   C3        1.0  0.48335289667958387  0.8108340231333813  0.7451098053477382  1.0000
  C   C4        1.0  0.8108333070336755  0.4833498415910428  0.24510907984237915  1.0000
  C   C5        1.0  0.49319824614077123  0.0031175365253802018  0.7719680014933773  1.0000
  C   C6        1.0  0.0031173064258283242  0.49319750779164917  0.2719671746312287  1.0000
  C   C7        1.0  0.421148968266067  0.9516363078971324  0.004015660373305291  1.0000
  C   C8        1.0  0.9516354687502471  0.42114818004932175  0.5040161367556167  1.0000
  O   O1        1.0  0.4492462785431783  0.7695633057198348  0.46112417072239953  1.0000
  O   O2        1.0  0.7695667644293637  0.44924531614503144  0.9611204209348542  1.0000
  O   O3        1.0  0.7256605977001841  0.9500711811145379  0.3957179586885076  1.0000
  O   O4        1.0  0.9500705387293851  0.7256617192589306  0.8957175214354931  1.0000
  O   O5        1.0  0.3721420143013177  0.12037429628510668  0.6833442083029058  1.0000
  O   O6        1.0  0.12037411257518472  0.3721400562578907  0.18334523630004898  1.0000
  O   O7        1.0  0.2486495398118578  0.9527593516628771  0.11095376882027348  1.0000
  O   O8        1.0  0.9527579654105766  0.2486492490666734  0.6109556604864892  1.0000
  O   O9        1.0  0.5573737758830148  0.898826379401207  0.07588426996586857  1.0000
  O   O10       1.0  0.898823407770152  0.5573740076651958  0.5758824326793787  1.0000
  O   O11       1.0  0.41184445724235985  0.256707543468373  0.27747397179247457  1.0000
  O   O12       1.0  0.2567074724862266  0.41184283683996625  0.7774715129273062  1.0000
