data_image0
_chemical_formula_structural       Mo2H28C14N2O8
_chemical_formula_sum              "Mo2 H28 C14 N2 O8"
_cell_length_a       8.210518495177492
_cell_length_b       8.329073170174238
_cell_length_c       8.625664128991959
_cell_angle_alpha    106.89709654276801
_cell_angle_beta     114.56907574763713
_cell_angle_gamma    92.39236402366983

_space_group_name_H-M_alt    "P 1"
_space_group_IT_number       1

loop_
  _space_group_symop_operation_xyz
  'x, y, z'

loop_
  _atom_site_type_symbol
  _atom_site_label
  _atom_site_symmetry_multiplicity
  _atom_site_fract_x
  _atom_site_fract_y
  _atom_site_fract_z
  _atom_site_occupancy
  Mo  Mo1       1.0  0.10790689700888832  0.042227659528528194  0.13419786793522084  1.0000
  Mo  Mo2       1.0  0.8920919833033595  0.9577537513609113  0.8657832575212934  1.0000
  H   H1        1.0  0.7132619704969514  0.3240009714547653  0.3304794712699319  1.0000
  H   H2        1.0  0.28676519713491183  0.6759883075472713  0.6695151956954815  1.0000
  H   H3        1.0  0.5396999770388434  0.1396778679726864  0.1748303337270087  1.0000
  H   H4        1.0  0.46031756053327644  0.8603178549777082  0.8251772726449145  1.0000
  H   H5        1.0  0.5644726056553184  0.312874356980302  0.10401869698132771  1.0000
  H   H6        1.0  0.43553618080508016  0.6871174406047798  0.8959808369565037  1.0000
  H   H7        1.0  0.9348576744784438  0.5294377786529622  0.18785004492365673  1.0000
  H   H8        1.0  0.06513415071032819  0.47057828312567535  0.8121666301440765  1.0000
  H   H9        1.0  0.7837127434140286  0.4401603646340745  0.9495018377997367  1.0000
  H   H10       1.0  0.2162694566426637  0.5598340730832305  0.05051899792239565  1.0000
  H   H11       1.0  0.7091085724661498  0.5706320258586999  0.10057882957629267  1.0000
  H   H12       1.0  0.2908877270190757  0.4293866641159666  0.8994450007633217  1.0000
  H   H13       1.0  0.5618703822567852  0.14818952285151707  0.453109754026073  1.0000
  H   H14       1.0  0.4381259896785253  0.8518212881122762  0.5468876184237244  1.0000
  H   H15       1.0  0.6068490022955757  0.1540725376083714  0.6746844601884021  1.0000
  H   H16       1.0  0.39314392726082303  0.8459344535827922  0.32531396539823015  1.0000
  H   H17       1.0  0.12220902977828983  0.149501775889007  0.57500706054617  1.0000
  H   H18       1.0  0.8777820798480677  0.8505026399024728  0.4249887725540446  1.0000
  H   H19       1.0  0.337834290694417  0.13711430386678805  0.7434290369448462  1.0000
  H   H20       1.0  0.6621631690352814  0.8628952509192727  0.2565695924132995  1.0000
  H   H21       1.0  0.204991361187254  0.9563461367998086  0.5443075553411629  1.0000
  H   H22       1.0  0.7950082648184138  0.0436609163976485  0.4556947464170519  1.0000
  H   H23       1.0  0.22617619095021982  0.3765892946131046  0.5180318853189547  1.0000
  H   H24       1.0  0.7738108859060803  0.6234151012015586  0.48196347581173865  1.0000
  H   H25       1.0  0.41198977294858713  0.3759175513719555  0.4624732190031293  1.0000
  H   H26       1.0  0.5880033727146029  0.6240907493122377  0.537529127526383  1.0000
  H   H27       1.0  0.45448470988777256  0.4027767363983725  0.6904546648736127  1.0000
  H   H28       1.0  0.5455047866025213  0.5972264242533  0.30954365526645217  1.0000
  C   C1        1.0  0.7706177289915175  0.1597333003454081  0.12373798614857606  1.0000
  C   C2        1.0  0.22939598055214816  0.8402559300120129  0.8762570385574404  1.0000
  C   C3        1.0  0.6410826557475888  0.24036983002655885  0.18893408752479968  1.0000
  C   C4        1.0  0.3589304820305513  0.7596231785929743  0.8110570949080793  1.0000
  C   C5        1.0  0.8903731499031623  0.709045374580654  0.04542166389790477  1.0000
  C   C6        1.0  0.10962350099583769  0.29094640614140826  0.9545810884649553  1.0000
  C   C7        1.0  0.8273018225313749  0.5521665304844062  0.07238788580012558  1.0000
  C   C8        1.0  0.172682939044023  0.44784053918852595  0.9276223402648183  1.0000
  C   C9        1.0  0.49175554512368075  0.9032928841091842  0.47022961790460005  1.0000
  C   C10       1.0  0.5082460776152118  0.09671030417236887  0.5297666423938308  1.0000
  C   C11       1.0  0.24599190159658244  0.09552188593040967  0.5960778524425763  1.0000
  C   C12       1.0  0.7540050700426805  0.9044851144707093  0.40391988653017535  1.0000
  C   C13       1.0  0.3582440956680699  0.336648439054997  0.5456464286367717  1.0000
  C   C14       1.0  0.6417472393778922  0.6633572754626583  0.45435216682292884  1.0000
  N   N1        1.0  0.6679952413556193  0.849262782789516  0.5030686073147803  1.0000
  N   N2        1.0  0.3320007634155786  0.1507390980748653  0.4969261923038031  1.0000
  O   O1        1.0  0.9364277256170795  0.16958549360766986  0.23634709919493002  1.0000
  O   O2        1.0  0.06358255086048807  0.8303999062102675  0.7636478200645269  1.0000
  O   O3        1.0  0.28946715916880084  0.9219916258227624  0.0473392861151537  1.0000
  O   O4        1.0  0.7105455835068002  0.0779924849979139  0.9526527992366949  1.0000
  O   O5        1.0  0.028996191741462965  0.8193544464184016  0.17592635285048167  1.0000
  O   O6        1.0  0.9710112535665232  0.1806373409187927  0.8240726375697134  1.0000
  O   O7        1.0  0.1980844566242865  0.26843677399171634  0.10742189955433186  1.0000
  O   O8        1.0  0.8019176240740366  0.731554972353919  0.8925749167953184  1.0000
