data_image0
_chemical_formula_structural       Na2Zn2Fe2P2H54C50S2I6O6
_chemical_formula_sum              "Na2 Zn2 Fe2 P2 H54 C50 S2 I6 O6"
_cell_length_a       8.883211157250424
_cell_length_b       9.381633204330303
_cell_length_c       18.2554
_cell_angle_alpha    91.08336477945953
_cell_angle_beta     99.66911154923865
_cell_angle_gamma    95.32806110615014

_space_group_name_H-M_alt    "P 1"
_space_group_IT_number       1

loop_
  _space_group_symop_operation_xyz
  'x, y, z'

loop_
  _atom_site_type_symbol
  _atom_site_label
  _atom_site_symmetry_multiplicity
  _atom_site_fract_x
  _atom_site_fract_y
  _atom_site_fract_z
  _atom_site_occupancy
  Na  Na1       1.0  0.7150161817070426  0.0570381845749992  0.03500311504453178  1.0000
  Na  Na2       1.0  0.28497873619839  0.9429569770289987  0.9649940123396804  1.0000
  Zn  Zn1       1.0  0.6846241318309509  0.1597544780884732  0.24245157935514072  1.0000
  Zn  Zn2       1.0  0.3153756892311605  0.8402438971154211  0.7575487189027541  1.0000
  Fe  Fe1       1.0  0.1305152104027272  0.4655285083048781  0.2720961974985627  1.0000
  Fe  Fe2       1.0  0.8694874535278743  0.5344752228988483  0.727904932930862  1.0000
  P   P1        1.0  0.8197721322977785  0.3017591727448661  0.3482860404090077  1.0000
  P   P2        1.0  0.18023248012383422  0.6982413448589568  0.6517141224783174  1.0000
  H   H1        1.0  0.3774469432580929  0.5037757030811107  0.19557899789844413  1.0000
  H   H2        1.0  0.6225517358627358  0.4962226721227765  0.8044179203303516  1.0000
  H   H3        1.0  0.2539915455770725  0.7389437299566382  0.23938400411768163  1.0000
  H   H4        1.0  0.7460163808712039  0.2610557164472169  0.7606158714321014  1.0000
  H   H5        1.0  0.9456516911909816  0.6798916894460802  0.21600168635259112  1.0000
  H   H6        1.0  0.054359413517339306  0.3201163265575033  0.7840034622702916  1.0000
  H   H7        1.0  0.8782117219775074  0.4085460261280929  0.15645973534271462  1.0000
  H   H8        1.0  0.12178726856543422  0.5914662746753478  0.8435439170451033  1.0000
  H   H9        1.0  0.12116680600991711  0.1759199567712386  0.3070015602780388  1.0000
  H   H10       1.0  0.8788438515096645  0.8240837744324807  0.6930002234639829  1.0000
  H   H11       1.0  0.3903422460214685  0.3423362274465518  0.34100028337598337  1.0000
  H   H12       1.0  0.6096630371832461  0.657670717357064  0.6590021879170253  1.0000
  H   H13       1.0  0.3315730348732302  0.6010267343694551  0.3925851572472538  1.0000
  H   H14       1.0  0.6684273451748056  0.3989769968342713  0.6074157865214289  1.0000
  H   H15       1.0  0.0265055701874601  0.5934319266124604  0.3924548037783709  1.0000
  H   H16       1.0  0.9734953928159343  0.406566448591434  0.6075461355930258  1.0000
  H   H17       1.0  0.07701553771689622  0.1769118879394966  0.156318583819008  1.0000
  H   H18       1.0  0.9229795798134576  0.8230961280640869  0.8436797803474647  1.0000
  H   H19       1.0  0.2705451439419093  0.2364588228342228  0.1472702895596143  1.0000
  H   H20       1.0  0.7294505565438101  0.7635438371695287  0.8527351913901526  1.0000
  H   H21       1.0  0.07607263481564533  0.2537694142803559  0.4684446490510084  1.0000
  H   H22       1.0  0.9239247905667156  0.7462278897235706  0.5315543474343727  1.0000
  H   H23       1.0  0.08474500896185333  0.1446527009716689  0.5910436669664564  1.0000
  H   H24       1.0  0.9152513862764098  0.8553456742322254  0.4089563513003328  1.0000
  H   H25       1.0  0.8431432715354746  0.0433514626129181  0.6308135950145655  1.0000
  H   H26       1.0  0.1568507280230378  0.9566458413910085  0.369184573696586  1.0000
  H   H27       1.0  0.5949658895737571  0.0447151001692916  0.545629470814518  1.0000
  H   H28       1.0  0.4050305056645059  0.9552832750346026  0.4543683563197832  1.0000
  H   H29       1.0  0.5847499979362141  0.1505967895814777  0.420830733041008  1.0000
  H   H30       1.0  0.4152475392433317  0.8494015856224095  0.5791671874236641  1.0000
  H   H31       1.0  0.733319180033945  0.4402149819148136  0.4810840600599137  1.0000
  H   H32       1.0  0.26669147748563665  0.5597887492889129  0.5189177236821082  1.0000
  H   H33       1.0  0.6247360743910022  0.6684973354106489  0.49912234345799084  1.0000
  H   H34       1.0  0.3752637466711094  0.3315010397932383  0.500880145932399  1.0000
  H   H35       1.0  0.5630936576549601  0.8268410431442632  0.39083526956495274  1.0000
  H   H36       1.0  0.43690468607432115  0.1731541184597347  0.6091654245091009  1.0000
  H   H37       1.0  0.6076614375217488  0.7526465199182013  0.2668727582224548  1.0000
  H   H38       1.0  0.3923405556257435  0.2473507840857252  0.7331288027168982  1.0000
  H   H39       1.0  0.7128720600408301  0.5202250497547993  0.2476679179935104  1.0000
  H   H40       1.0  0.2871279846156511  0.4797754678490307  0.7523324193554545  1.0000
  H   H41       1.0  0.3046867720276226  0.3961511713246821  0.016373444939873104  1.0000
  H   H42       1.0  0.6953180639883527  0.6038514886790693  0.9836240181229032  1.0000
  H   H43       1.0  0.1373416417327249  0.49078097629689676  0.017681304331354404  1.0000
  H   H44       1.0  0.862659209473492  0.5092163277070298  0.9823179721451396  1.0000
  H   H45       1.0  0.149238102702725  0.3788887838770165  0.9378551791330312  1.0000
  H   H46       1.0  0.8507638904447675  0.62110852012691  0.062144190673834004  1.0000
  H   H47       1.0  0.45545186242932806  0.9743334952250678  0.11878919042248982  1.0000
  H   H48       1.0  0.5445401886381731  0.0256670223787552  0.8812083024813901  1.0000
  H   H49       1.0  0.3713668467709256  0.728809107080906  0.1103414728243308  1.0000
  H   H50       1.0  0.6286226968196401  0.2711892681229813  0.8896541509783803  1.0000
  H   H51       1.0  0.5750262446706742  0.7630553699851603  0.1419680406199859  1.0000
  H   H52       1.0  0.4249643290639895  0.2369419340187662  0.8580276569675648  1.0000
  H   H53       1.0  0.5018543394489967  0.7132295747793904  0.0465786752171056  1.0000
  H   H54       1.0  0.4981353159387539  0.2867698716244647  0.953416968131144  1.0000
  C   C1        1.0  0.1329824226034972  0.4078390341507188  0.1645503829166515  1.0000
  C   C2        1.0  0.8670145316206828  0.5921646970530006  0.8354508286440492  1.0000
  C   C3        1.0  0.2560659162862819  0.5167789994650533  0.191372861861133  1.0000
  C   C4        1.0  0.7439320680820033  0.48322366053869814  0.8086256845687887  1.0000
  C   C5        1.0  0.1905545159475821  0.6401523131175821  0.2147051666039488  1.0000
  C   C6        1.0  0.8094489545327478  0.3598482044862408  0.7852949029530052  1.0000
  C   C7        1.0  0.027233943239338008  0.6085187069297362  0.20239393576432013  1.0000
  C   C8        1.0  0.9727735120507647  0.3914871666739117  0.7976081548607752  1.0000
  C   C9        1.0  0.991668112998731  0.4655188675051818  0.1714527488480613  1.0000
  C   C10       1.0  0.008331795891123796  0.5344912908983304  0.8285498622128173  1.0000
  C   C11       1.0  0.0164361515108169  0.3665914082704802  0.3474543872317285  1.0000
  C   C12       1.0  0.9835730286759272  0.6334091093333427  0.6525466967602043  1.0000
  C   C13       1.0  0.1369325430806612  0.2843746685011013  0.33075399906714154  1.0000
  C   C14       1.0  0.863074688615072  0.7156290627026181  0.6692486002500077  1.0000
  C   C15       1.0  0.279346212473861  0.3725087168811498  0.34956625553472526  1.0000
  C   C16       1.0  0.7206589589336759  0.6274971567224981  0.650436196212752  1.0000
  C   C17       1.0  0.24803600975875645  0.509176693308298  0.3767953031231954  1.0000
  C   C18       1.0  0.7519665423746604  0.49082596669545353  0.6232074511100621  1.0000
  C   C19       1.0  0.0866470649287621  0.5061066342065317  0.3758302275234513  1.0000
  C   C20       1.0  0.9133526443361648  0.4938906697973948  0.6241705989720359  1.0000
  C   C21       1.0  0.150999728406525  0.2624000724042048  0.1354682464160746  1.0000
  C   C22       1.0  0.8489985913533148  0.7376058011994502  0.8645320019998196  1.0000
  C   C23       1.0  0.8298550777570455  0.2109942572489913  0.4364640005967999  1.0000
  C   C24       1.0  0.1701455498547944  0.7890009043549995  0.5635341412223839  1.0000
  C   C25       1.0  0.9701803803202083  0.2075160709602812  0.4846546309139725  1.0000
  C   C26       1.0  0.029815679526507197  0.7924790906437096  0.5153442331499747  1.0000
  C   C27       1.0  0.9749842959931244  0.1463280577180655  0.5540326747376412  1.0000
  C   C28       1.0  0.025014606722074  0.8536724598857575  0.4459664737147122  1.0000
  C   C29       1.0  0.8399099909193241  0.0887660563598303  0.5760956248008072  1.0000
  C   C30       1.0  0.1600815011622529  0.9112291052441677  0.42390286594165627  1.0000
  C   C31       1.0  0.7000246498815627  0.089960444321612  0.527955463116939  1.0000
  C   C32       1.0  0.2999725519064356  0.9100347172823859  0.47204185092801504  1.0000
  C   C33       1.0  0.6943634652721329  0.1498276680060897  0.45823268118572014  1.0000
  C   C34       1.0  0.3056335129214958  0.8501653511979725  0.5417651415512879  1.0000
  C   C35       1.0  0.7306522708694915  0.46487293392585377  0.3633087597681026  1.0000
  C   C36       1.0  0.26935142320520816  0.5351297260779049  0.6366891577474265  1.0000
  C   C37       1.0  0.7046039412955309  0.5072656725694458  0.43378080420242787  1.0000
  C   C38       1.0  0.2953983872435161  0.4927348450343771  0.5662213631566433  1.0000
  C   C39       1.0  0.6440363567270282  0.6369119332212634  0.4438665571375964  1.0000
  C   C40       1.0  0.3559631289435288  0.3630832283827274  0.5561314913512164  1.0000
  C   C41       1.0  0.6099117891134329  0.7250695480005618  0.3837858872033665  1.0000
  C   C42       1.0  0.3900870018045809  0.2749298984033004  0.6162170761853077  1.0000
  C   C43       1.0  0.634603995440081  0.6827582205543621  0.3133281452053894  1.0000
  C   C44       1.0  0.3653920644066275  0.3172369410496358  0.6866707188585579  1.0000
  C   C45       1.0  0.6943291228443371  0.5530819663035018  0.30281225809576284  1.0000
  C   C46       1.0  0.30567331749189464  0.4469196225002889  0.6971899288088395  1.0000
  C   C47       1.0  0.18023589796842293  0.3934721002104027  0.9984178447100335  1.0000
  C   C48       1.0  0.8197682672644577  0.606524132593556  0.0015822399951588041  1.0000
  C   C49       1.0  0.480753845389316  0.772908267269905  0.09545975932010722  1.0000
  C   C50       1.0  0.519234556259967  0.22709010793398932  0.9045357711522327  1.0000
  S   S1        1.0  0.09351554855701492  0.2400462715194394  0.036187931635709  1.0000
  S   S2        1.0  0.9064915713415334  0.7599563884843121  0.9638130047865447  1.0000
  I   I1        1.0  0.42427905129741117  0.0280097367037939  0.2654368163560648  1.0000
  I   I2        1.0  0.5757192924318701  0.9719854249001969  0.7345627821517411  1.0000
  I   I3        1.0  0.8683394002161081  0.9772696543311241  0.20801328299813093  1.0000
  I   I4        1.0  0.13165927890472773  0.0227287208727702  0.7919863741462764  1.0000
  I   I5        1.0  0.5851841652973846  0.3079839157456945  0.12271155234635242  1.0000
  I   I6        1.0  0.4148132600849764  0.692013388258232  0.8772879919221453  1.0000
  O   O1        1.0  0.9268424641741646  0.24027443711214153  0.017936851411505503  1.0000
  O   O2        1.0  0.0731645678966402  0.7597164396919922  0.9820601288584074  1.0000
  O   O3        1.0  0.160700206284389  0.1150018859203783  0.012232802705071301  1.0000
  O   O4        1.0  0.8393158255500596  0.8849986316834447  0.9877715801846919  1.0000
  O   O5        1.0  0.47485211872152183  0.9205753249451264  0.0750344479652014  1.0000
  O   O6        1.0  0.5251398205487945  0.0794241214587359  0.9249630253931473  1.0000
