data_image0
_chemical_formula_structural       Ca2H36C32N4O22
_chemical_formula_sum              "Ca2 H36 C32 N4 O22"
_cell_length_a       6.900706592103437
_cell_length_b       12.164842064692845
_cell_length_c       12.03902236793034
_cell_angle_alpha    69.52519690255602
_cell_angle_beta     73.34316429475257
_cell_angle_gamma    73.55235596536168

_space_group_name_H-M_alt    "P 1"
_space_group_IT_number       1

loop_
  _space_group_symop_operation_xyz
  'x, y, z'

loop_
  _atom_site_type_symbol
  _atom_site_label
  _atom_site_symmetry_multiplicity
  _atom_site_fract_x
  _atom_site_fract_y
  _atom_site_fract_z
  _atom_site_occupancy
  Ca  Ca1       1.0  0.8547398079776586  0.7500238104339799  0.24996038312602312  1.0000
  Ca  Ca2       1.0  0.14526043440293523  0.24997615786374888  0.7500412898682144  1.0000
  H   H1        1.0  0.3104121331474802  0.6799923579098389  0.2727594416948378  1.0000
  H   H2        1.0  0.2639443135577723  0.8197965056790864  0.2269171213624688  1.0000
  H   H3        1.0  0.6895853960370532  0.32000846054417315  0.7272404193912507  1.0000
  H   H4        1.0  0.7360560595291475  0.18020507643512218  0.7730818346867069  1.0000
  H   H5        1.0  0.6269205725732759  0.2667484952364205  0.580355849699899  1.0000
  H   H6        1.0  0.4741377558854085  0.23326477595407621  0.9198076575177793  1.0000
  H   H7        1.0  0.3730758518000814  0.7332566437596242  0.4196413039975583  1.0000
  H   H8        1.0  0.5258659238966106  0.7667327194774528  0.08019491412733973  1.0000
  H   H9        1.0  0.6321840013609618  0.05246019841318627  0.6046784065637996  1.0000
  H   H10       1.0  0.2898910648678382  0.44753555786157745  0.8954928444431333  1.0000
  H   H11       1.0  0.3678127440216205  0.94754520548328  0.39531784051154534  1.0000
  H   H12       1.0  0.7101119954860521  0.5524622179909002  0.10450791316515762  1.0000
  H   H13       1.0  0.9487112318139593  0.1084650697905332  0.2304921590033616  1.0000
  H   H14       1.0  0.2871479178458643  0.3914007827969002  0.2698092312586199  1.0000
  H   H15       1.0  0.05129206736225464  0.8915351234731188  0.7695067919958593  1.0000
  H   H16       1.0  0.7128485964528154  0.608593328744952  0.7301933289957462  1.0000
  H   H17       1.0  0.9291109277066883  0.3212765154593171  0.21852952400698208  1.0000
  H   H18       1.0  0.4683615306251738  0.1786790770270982  0.2817282764295115  1.0000
  H   H19       1.0  0.07088984857636403  0.6787231790445601  0.781469425407039  1.0000
  H   H20       1.0  0.5316360548171913  0.8213166328107065  0.7182724742945084  1.0000
  H   H21       1.0  0.9184682351563821  0.44945692896149586  0.3216877256372825  1.0000
  H   H22       1.0  0.6893247561232486  0.05065524742057193  0.1785816889877196  1.0000
  H   H23       1.0  0.08153111530626957  0.5505468211839996  0.6783094230102193  1.0000
  H   H24       1.0  0.310676423355943  0.9493425594729672  0.8214172537911466  1.0000
  H   H25       1.0  0.7950080410126292  0.42564260654751257  0.47674616753919713  1.0000
  H   H26       1.0  0.6974048403729965  0.07442464307359134  0.023503235532992103  1.0000
  H   H27       1.0  0.20499182076215336  0.5743600595823393  0.5232518848091418  1.0000
  H   H28       1.0  0.3025969585343162  0.9255728833989989  0.9764975212827027  1.0000
  H   H29       1.0  0.7337350334409652  0.6122101757406851  0.5225293202334954  1.0000
  H   H30       1.0  0.868732762158267  0.8878704860483352  0.9774873446238815  1.0000
  H   H31       1.0  0.2662664703862063  0.38779004193693106  0.4774723535533384  1.0000
  H   H32       1.0  0.131268312543682  0.1121286631341647  0.0225143254490732  1.0000
  H   H33       1.0  0.8078341042827901  0.7322341108715165  0.49774457589950344  1.0000
  H   H34       1.0  0.03762422095437069  0.7677520857475953  0.0023310057698964  1.0000
  H   H35       1.0  0.19216699634824855  0.2677679944164311  0.5022571045224852  1.0000
  H   H36       1.0  0.9623727483986143  0.2322460503948135  0.9976715685473752  1.0000
  C   C1        1.0  0.6971837523194396  0.2264276510962233  0.5067692905224561  1.0000
  C   C2        1.0  0.4305263988274674  0.27355615640712466  0.9934250817944703  1.0000
  C   C3        1.0  0.30281315743696513  0.7735734477787375  0.49322875652681125  1.0000
  C   C4        1.0  0.5694755307861714  0.7264429838819524  0.006572958076162601  1.0000
  C   C5        1.0  0.700686103819905  0.10878869308744747  0.5181586675654799  1.0000
  C   C6        1.0  0.32797498223720123  0.3911705657746082  0.9820256115116878  1.0000
  C   C7        1.0  0.29931104475881665  0.8912148231986875  0.4818375728747101  1.0000
  C   C8        1.0  0.6720286975448172  0.6088269296569209  0.017976960133431405  1.0000
  C   C9        1.0  0.7900357666662714  0.06425110665340125  0.4186389069807107  1.0000
  C   C10       1.0  0.2730147627685256  0.4357158473622603  0.08155226911495111  1.0000
  C   C11       1.0  0.20997107802736578  0.9357474173387456  0.581361853005383  1.0000
  C   C12       1.0  0.7269846213616231  0.5642819839452357  0.9184493964515356  1.0000
  C   C13       1.0  0.8750985410019325  0.14086308334847797  0.30918417552702243  1.0000
  C   C14       1.0  0.32476724715041183  0.35907696472742145  0.1910653223934915  1.0000
  C   C15       1.0  0.12490569861162727  0.8591370943946474  0.6908156828869068  1.0000
  C   C16       1.0  0.6752313046583754  0.6409216856952965  0.8089363460942637  1.0000
  C   C17       1.0  0.8700191664234328  0.2573047491187026  0.3021214360308662  1.0000
  C   C18       1.0  0.42900157494377567  0.24266090636582757  0.19813905960058523  1.0000
  C   C19       1.0  0.12997438811845555  0.742696670111698  0.6978766123544702  1.0000
  C   C20       1.0  0.5709979398926917  0.7573385387581553  0.8018598890208324  1.0000
  C   C21       1.0  0.7823687279575327  0.4222709045961112  0.38920852115262516  1.0000
  C   C22       1.0  0.5937412468703016  0.07780808722702659  0.11100751481120602  1.0000
  C   C23       1.0  0.21762936105854178  0.5777325961694968  0.6107886267022736  1.0000
  C   C24       1.0  0.4062657285296538  0.9221920505816145  0.888990528229833  1.0000
  C   C25       1.0  0.5881374249764807  0.5119253536245267  0.351130941408222  1.0000
  C   C26       1.0  0.45106707489672015  0.9880911937431022  0.14889152928626004  1.0000
  C   C27       1.0  0.41185980912790404  0.4880781560345113  0.6488698366490057  1.0000
  C   C28       1.0  0.5489352612518061  0.011908204819292136  0.8511101415792982  1.0000
  C   C29       1.0  0.7909524900803788  0.9370285158837817  0.4264702622310424  1.0000
  C   C30       1.0  0.15436772331285922  0.5628947178922202  0.07363865008655782  1.0000
  C   C31       1.0  0.2090458714255093  0.06297148345500149  0.5735295959337705  1.0000
  C   C32       1.0  0.8456311269148318  0.43710338720912717  0.9263657390601384  1.0000
  N   N1        1.0  0.7836430137314779  0.2980426507556331  0.4002645934223851  1.0000
  N   N2        1.0  0.481765480160874  0.20193717091379432  0.09997722612632741  1.0000
  N   N3        1.0  0.2163541348472437  0.7019608655305092  0.5997316470178049  1.0000
  N   N4        1.0  0.5182364268624371  0.7980611591534841  0.9000244410253586  1.0000
  O   O1        1.0  0.6060360202217226  0.6209098140168335  0.3073120108647345  1.0000
  O   O2        1.0  0.5337996495634841  0.8791205060519047  0.19285745115769265  1.0000
  O   O3        1.0  0.3939631995346109  0.3790923223121752  0.6926878547278292  1.0000
  O   O4        1.0  0.4661999474599058  0.1208767865613254  0.80714239745069  1.0000
  O   O5        1.0  0.8312939908075097  0.6628148355863175  0.46562939982587176  1.0000
  O   O6        1.0  0.9599384752066842  0.8372587152882857  0.034348853543420405  1.0000
  O   O7        1.0  0.16870909547546392  0.3371858963716079  0.5343713681314527  1.0000
  O   O8        1.0  0.040068608309262316  0.16274222611504274  0.9656500998336032  1.0000
  O   O9        1.0  0.4266357391042703  0.47545753089853793  0.3655775967692066  1.0000
  O   O10       1.0  0.2677597845316555  0.0245631320701278  0.13422076486423865  1.0000
  O   O11       1.0  0.5733592931161768  0.5245457449011396  0.634422273080709  1.0000
  O   O12       1.0  0.7322437049474646  0.9754357122774662  0.8657799964579311  1.0000
  O   O13       1.0  0.2006283935731759  0.7499693525861416  0.24970340650916265  1.0000
  O   O14       1.0  0.7993695647365725  0.25003253436297257  0.7502964582907978  1.0000
  O   O15       1.0  0.7729004861114248  0.8616191371156531  0.5310106529181198  1.0000
  O   O16       1.0  0.16450033937179126  0.6382095749059997  0.9690811994280184  1.0000
  O   O17       1.0  0.2271011258317373  0.13838188415665084  0.46899193120470545  1.0000
  O   O18       1.0  0.8354957683920006  0.3617842783625349  0.03091772983142251  1.0000
  O   O19       1.0  0.8073470669861464  0.9181241802455062  0.3267418018215409  1.0000
  O   O20       1.0  0.05248496228531242  0.5817978667066654  0.17344789309590422  1.0000
  O   O21       1.0  0.1926493910547081  0.08187503991254629  0.6732598687948937  1.0000
  O   O22       1.0  0.947522180827214  0.4182001119641112  0.8265555875491305  1.0000
