data_image0
_chemical_formula_structural       Cu2H24C40N4O8
_chemical_formula_sum              "Cu2 H24 C40 N4 O8"
_cell_length_a       9.158656149007482
_cell_length_b       9.158657446899447
_cell_length_c       10.255406498204259
_cell_angle_alpha    88.22973632402189
_cell_angle_beta     88.2298819282472
_cell_angle_gamma    66.95661746018706

_space_group_name_H-M_alt    "P 1"
_space_group_IT_number       1

loop_
  _space_group_symop_operation_xyz
  'x, y, z'

loop_
  _atom_site_type_symbol
  _atom_site_label
  _atom_site_symmetry_multiplicity
  _atom_site_fract_x
  _atom_site_fract_y
  _atom_site_fract_z
  _atom_site_occupancy
  Cu  Cu1       1.0  0.4173210015157592  0.31182514469823996  0.21664096010128733  1.0000
  Cu  Cu2       1.0  0.3118258159993488  0.4173202723138659  0.716640433119714  1.0000
  H   H1        1.0  0.34451983667191405  0.1423660902270711  0.46929910029655986  1.0000
  H   H2        1.0  0.1423695128239402  0.34451865809676013  0.9692993539921062  1.0000
  H   H3        1.0  0.4816740389170633  0.8750200209191945  0.5708467879202315  1.0000
  H   H4        1.0  0.8750221487173989  0.4816705247083775  0.07084476370462059  1.0000
  H   H5        1.0  0.7432633804956766  0.6899422571009238  0.47763941235270113  1.0000
  H   H6        1.0  0.6899452938220065  0.7432595861003719  0.9776370194389656  1.0000
  H   H7        1.0  0.971204884800251  0.6523858816077137  0.3107760246307975  1.0000
  H   H8        1.0  0.6523861563459903  0.9712048423621696  0.8107762249427352  1.0000
  H   H9        1.0  0.07661754337244989  0.7571295386363487  0.12363596996161155  1.0000
  H   H10       1.0  0.7571313469112653  0.07661815943259852  0.6236371970667419  1.0000
  H   H11       1.0  0.04026587243647845  0.9850085494715157  0.9571173105061347  1.0000
  H   H12       1.0  0.9850099604007807  0.0402701332852331  0.45711855691920517  1.0000
  H   H13       1.0  0.855892787871525  0.2467217129347078  0.8636617087047398  1.0000
  H   H14       1.0  0.24672319465494744  0.8558937889235808  0.3636623253802184  1.0000
  H   H15       1.0  0.5881029954804546  0.3841396558726444  0.9643707416028632  1.0000
  H   H16       1.0  0.3841378742194479  0.5881016546684562  0.46437104535219464  1.0000
  H   H17       1.0  0.3215994732829373  0.6312900872610784  0.887792339037567  1.0000
  H   H18       1.0  0.6312886471002982  0.3215978683558731  0.3877912599158364  1.0000
  H   H19       1.0  0.2907443145029161  0.8617839134147832  0.7358136106706538  1.0000
  H   H20       1.0  0.8617860239680725  0.29074637841419815  0.23581352358387864  1.0000
  H   H21       1.0  0.4080245471358523  0.09750323167945402  0.04586854136256589  1.0000
  H   H22       1.0  0.09750145952622093  0.4080309852157811  0.5458695581786727  1.0000
  H   H23       1.0  0.4380631668933503  0.8673583275174721  0.19806247265372426  1.0000
  H   H24       1.0  0.8673569999858799  0.43806476324517973  0.698062527206602  1.0000
  C   C1        1.0  0.4559617024727062  0.05956998478823292  0.42764074829741366  1.0000
  C   C2        1.0  0.059573339491265545  0.45595972088386827  0.9276398440749105  1.0000
  C   C3        1.0  0.535568671149413  0.9085135615420228  0.48521018858764353  1.0000
  C   C4        1.0  0.9085173142915296  0.5355659532823154  0.9852091763682506  1.0000
  C   C5        1.0  0.6803024391586162  0.8075177964343396  0.434375282934532  1.0000
  C   C6        1.0  0.8075198625750132  0.68029936705247  0.9343740751045001  1.0000
  C   C7        1.0  0.7483273160215304  0.8589262451833193  0.32603007847635007  1.0000
  C   C8        1.0  0.8589232134683372  0.748325872946168  0.8260270331713782  1.0000
  C   C9        1.0  0.900924507451336  0.7688695978777459  0.26897333376821553  1.0000
  C   C10       1.0  0.7688696932863973  0.9009248685966116  0.7689727578091164  1.0000
  C   C11       1.0  0.9602205892960215  0.8277620934560871  0.1654322261372627  1.0000
  C   C12       1.0  0.8277633424414998  0.9602202847116178  0.6654326064453995  1.0000
  C   C13       1.0  0.8705589289133184  0.9803660717729415  0.1082371238811675  1.0000
  C   C14       1.0  0.9803668091726934  0.8705620506027575  0.6082396132361081  1.0000
  C   C15       1.0  0.922546348544607  0.04819531337344781  0.00011579866214361337  1.0000
  C   C16       1.0  0.04819708581815268  0.9225500097160408  0.500118110629387  1.0000
  C   C17       1.0  0.821876555835246  0.1929639971835968  0.9491169261434038  1.0000
  C   C18       1.0  0.1929643570279324  0.8218787926358287  0.4491175165816087  1.0000
  C   C19       1.0  0.6706391342219788  0.27277077834052227  0.006285886790855998  1.0000
  C   C20       1.0  0.27276985518187047  0.6706402408034792  0.5062850259761332  1.0000
  C   C21       1.0  0.718236446094238  0.07033310633124762  0.1614665388286767  1.0000
  C   C22       1.0  0.07033501799694616  0.7182366222531938  0.6614672786012008  1.0000
  C   C23       1.0  0.6586800406788595  0.011197253572419198  0.2725766288888636  1.0000
  C   C24       1.0  0.011195620732323167  0.6586800289447936  0.7725765352782188  1.0000
  C   C25       1.0  0.4010337218235236  0.5986768072449067  0.14228703119110966  1.0000
  C   C26       1.0  0.5986773925321174  0.4010330480716817  0.6422858668277414  1.0000
  C   C27       1.0  0.3795949176499818  0.7370711187443604  0.0518210464631608  1.0000
  C   C28       1.0  0.7370705559410949  0.3795970098022253  0.5518190231469261  1.0000
  C   C29       1.0  0.3381973037022945  0.7349459572998357  0.9216433427410207  1.0000
  C   C30       1.0  0.7349461509231574  0.33819369642710484  0.42164139907165316  1.0000
  C   C31       1.0  0.3232423596683274  0.8614593187861957  0.8371860690745762  1.0000
  C   C32       1.0  0.8614607504927037  0.32324429173878855  0.33718402585909496  1.0000
  C   C33       1.0  0.34959525773246  0.9919112722205838  0.8819149479711467  1.0000
  C   C34       1.0  0.9919115921874204  0.3496009902083871  0.38191584410932927  1.0000
  C   C35       1.0  0.39110772061260224  0.9939828535200309  0.012096182764651091  1.0000
  C   C36       1.0  0.993982022305346  0.39111237246923036  0.5120962955825021  1.0000
  C   C37       1.0  0.40582980568100147  0.8675762269792174  0.0966274707397545  1.0000
  C   C38       1.0  0.8675757055742183  0.4058333221017634  0.596626482905414  1.0000
  C   C39       1.0  0.32819601919059954  0.1301503569457481  0.7912256167669796  1.0000
  C   C40       1.0  0.13014979518998618  0.3282029650351533  0.2912275174628363  1.0000
  N   N1        1.0  0.5149781320556029  0.10791442704694992  0.32230867428310717  1.0000
  N   N2        1.0  0.10791473646563073  0.5149783789866831  0.822307789135543  1.0000
  N   N3        1.0  0.6217855452757914  0.21394261113983504  0.11145263935972588  1.0000
  N   N4        1.0  0.21394318689001315  0.6217850532812718  0.6114517712437503  1.0000
  O   O1        1.0  0.4746081374559451  0.5814444087684764  0.24621791732484866  1.0000
  O   O2        1.0  0.5814438975542017  0.47460931424341635  0.7462166235605919  1.0000
  O   O3        1.0  0.3413614363590869  0.5005757764753226  0.10233908178931729  1.0000
  O   O4        1.0  0.5005774050301993  0.34136084827796515  0.6023378319985184  1.0000
  O   O5        1.0  0.25426640988303717  0.14721218604038466  0.6874930998350307  1.0000
  O   O6        1.0  0.14720942967286277  0.2542707374236882  0.1874962590271565  1.0000
  O   O7        1.0  0.3882148134199923  0.22815972627093833  0.8307055771812982  1.0000
  O   O8        1.0  0.22816418750646514  0.38821494245686944  0.3307075880029656  1.0000
