data_image0
_chemical_formula_structural       Cd2H20C16I4N8
_chemical_formula_sum              "Cd2 H20 C16 I4 N8"
_cell_length_a       5.3245876817317805
_cell_length_b       8.263483120619018
_cell_length_c       15.637277257010972
_cell_angle_alpha    87.86687024388308
_cell_angle_beta     83.33945879798885
_cell_angle_gamma    71.26339828055866

_space_group_name_H-M_alt    "P 1"
_space_group_IT_number       1

loop_
  _space_group_symop_operation_xyz
  'x, y, z'

loop_
  _atom_site_type_symbol
  _atom_site_label
  _atom_site_symmetry_multiplicity
  _atom_site_fract_x
  _atom_site_fract_y
  _atom_site_fract_z
  _atom_site_occupancy
  Cd  Cd1       1.0  0.17176501162764177  0.38392788358074637  0.7859690668117878  1.0000
  Cd  Cd2       1.0  0.557944165342832  0.6159296521864375  0.2872211755942473  1.0000
  H   H1        1.0  0.602588775258795  0.7657779229305032  0.5378667219000802  1.0000
  H   H2        1.0  0.3660012281185984  0.23751491251939424  0.0381198965747984  1.0000
  H   H3        1.0  0.07583935028833363  0.5405091194577807  0.5879119315547499  1.0000
  H   H4        1.0  0.6167410612195  0.461276774650308  0.0887544836508312  1.0000
  H   H5        1.0  0.09591755271713959  0.8636014827647001  0.7389931815111908  1.0000
  H   H6        1.0  0.9569609624084239  0.13894641401275717  0.2391354239354655  1.0000
  H   H7        1.0  0.10162667772328857  0.8492205570590413  0.6250551731905247  1.0000
  H   H8        1.0  0.9511840536777713  0.1514357535586157  0.1251198239793325  1.0000
  H   H9        1.0  0.22159733926907424  0.0036123661601336985  0.6700564483592757  1.0000
  H   H10       1.0  0.2234356502336327  0.9979439469135722  0.1711249903516006  1.0000
  H   H11       1.0  0.3444633408936327  0.7909527998631986  0.026664171174630293  1.0000
  H   H12       1.0  0.13526130665673014  0.20641976778049545  0.5270730512507598  1.0000
  H   H13       1.0  0.10436366114468842  0.555963424973612  0.9834686310765477  1.0000
  H   H14       1.0  0.6612626687413866  0.441772034146254  0.48393342509003645  1.0000
  H   H15       1.0  0.6125953922282434  0.9509651397413064  0.9448868675788304  1.0000
  H   H16       1.0  0.5610096491056423  0.046315530436565694  0.4456339292593725  1.0000
  H   H17       1.0  0.5664835564084287  0.9790275349154596  0.8336066572660243  1.0000
  H   H18       1.0  0.5472150393040067  0.020766943598857793  0.3337833950697799  1.0000
  H   H19       1.0  0.8542823501741098  0.8185674694073837  0.8673283990864532  1.0000
  H   H20       1.0  0.6740350364559619  0.18023646182012948  0.3696964427776521  1.0000
  C   C1        1.0  0.5958124472465229  0.6623462855300699  0.7400634269571782  1.0000
  C   C2        1.0  0.259425905261999  0.3378750662358455  0.24070876653569678  1.0000
  C   C3        1.0  0.6553349829848257  0.7129468890870851  0.6003183086826098  1.0000
  C   C4        1.0  0.3668966055109095  0.2894509492494207  0.1006894041980289  1.0000
  C   C5        1.0  0.8872845332574927  0.6013483629770205  0.626057329630072  1.0000
  C   C6        1.0  0.48886428945164795  0.4001294483004542  0.126690546079324  1.0000
  C   C7        1.0  0.20638821417447425  0.8742440677843886  0.6767386523657635  1.0000
  C   C8        1.0  0.079477767409351  0.1273784575014218  0.1771399007615955  1.0000
  C   C9        1.0  0.4655051825578696  0.6659141110918794  0.8276180400147339  1.0000
  C   C10       1.0  0.13295948283145986  0.33350348814126807  0.3282791156224434  1.0000
  C   C11       1.0  0.34970689567283125  0.7302983823116377  0.9659350723810931  1.0000
  C   C12       1.0  0.08033833539145262  0.2676856289595833  0.4664060805342203  1.0000
  C   C13       1.0  0.23332307738632366  0.61357824257265  0.9436268280515989  1.0000
  C   C14       1.0  0.8480499113102058  0.38491225618507485  0.4441536456747244  1.0000
  C   C15       1.0  0.6412488534171105  0.8848895642748642  0.8835822055008933  1.0000
  C   C16       1.0  0.526530467325273  0.11379321794031938  0.3845299218658482  1.0000
  I   I1        1.0  0.9507714289410316  0.2209485044222674  0.9152371486810225  1.0000
  I   I2        1.0  0.17470933184027626  0.7766746961074273  0.416749970977321  1.0000
  I   I3        1.0  0.5584165433077432  0.22113145486979843  0.6569031433850654  1.0000
  I   I4        1.0  0.7791888176889544  0.7806489412014697  0.1580166232727223  1.0000
  N   N1        1.0  0.8492296088381438  0.571629992843384  0.7128476911073918  1.0000
  N   N2        1.0  0.42241113494119287  0.4286486650430063  0.2136077814866724  1.0000
  N   N3        1.0  0.47329928095759044  0.7501023095022673  0.672544340723519  1.0000
  N   N4        1.0  0.2229195620311586  0.25136211019611915  0.17292973366749462  1.0000
  N   N5        1.0  0.30545367345452223  0.5749182421020933  0.8576681807482273  1.0000
  N   N6        1.0  0.8820163755206709  0.4242213537232046  0.3582873516760543  1.0000
  N   N7        1.0  0.4945919588436427  0.7623394932997627  0.8924542844500108  1.0000
  N   N8        1.0  0.2576691982631161  0.23639740344774646  0.3930342555514271  1.0000
