data_image0
_chemical_formula_structural       Cu4H24C36O20
_chemical_formula_sum              "Cu4 H24 C36 O20"
_cell_length_a       5.291314533316326
_cell_length_b       9.887279909638998
_cell_length_c       16.435621694088
_cell_angle_alpha    99.00850513939629
_cell_angle_beta     89.99974191369644
_cell_angle_gamma    90.00120760403175

_space_group_name_H-M_alt    "P 1"
_space_group_IT_number       1

loop_
  _space_group_symop_operation_xyz
  'x, y, z'

loop_
  _atom_site_type_symbol
  _atom_site_label
  _atom_site_symmetry_multiplicity
  _atom_site_fract_x
  _atom_site_fract_y
  _atom_site_fract_z
  _atom_site_occupancy
  Cu  Cu1       1.0  0.26227021930131406  0.06184327728544759  0.7085104654330295  1.0000
  Cu  Cu2       1.0  0.762304129846349  0.9381551137755721  0.2914907444439052  1.0000
  Cu  Cu3       1.0  0.7142815800374579  0.03701970286139301  0.7800419272339456  1.0000
  Cu  Cu4       1.0  0.21432228836943779  0.9629832402145981  0.21995793359661062  1.0000
  H   H1        1.0  0.0916703003914705  0.008972413130912602  0.9860870446700716  1.0000
  H   H2        1.0  0.5916769322855231  0.9910229700214755  0.013917118568038178  1.0000
  H   H3        1.0  0.947627820570027  0.8789417811281554  0.9146016522892354  1.0000
  H   H4        1.0  0.4476464722401444  0.12105163024860845  0.08540436417343503  1.0000
  H   H5        1.0  0.6432744146416596  0.36472101019182196  0.6494950192811333  1.0000
  H   H6        1.0  0.14330803432528677  0.6352728939984191  0.35049982245335093  1.0000
  H   H7        1.0  0.6517922832189527  0.6796258499773062  0.0037998654299543026  1.0000
  H   H8        1.0  0.1517991718034963  0.3203763343787501  0.9961926935018895  1.0000
  H   H9        1.0  0.634583210491293  0.6103711693971974  0.7055132404184762  1.0000
  H   H10       1.0  0.1346462725657815  0.3896164983678078  0.294483465650572  1.0000
  H   H11       1.0  0.34983182605443364  0.6672971389203327  0.591349995182391  1.0000
  H   H12       1.0  0.8498748073397449  0.3327135705774041  0.4086601704532171  1.0000
  H   H13       1.0  0.35894446012216713  0.419383743079905  0.5321147248732531  1.0000
  H   H14       1.0  0.8589618096410518  0.5806301357064712  0.46789329114947265  1.0000
  H   H15       1.0  0.8530214167756395  0.0699046269810566  0.49607667873402056  1.0000
  H   H16       1.0  0.35302201598617705  0.9300876570616978  0.5039238627590522  1.0000
  H   H17       1.0  0.6511724609393711  0.21501975940354603  0.5152522122707381  1.0000
  H   H18       1.0  0.1511867857524649  0.7849660563441746  0.4847449117669101  1.0000
  H   H19       1.0  0.09978828637702009  0.4610142967231496  0.77589725858234  1.0000
  H   H20       1.0  0.5998006572507748  0.5389903722982511  0.22410106505171265  1.0000
  H   H21       1.0  0.006556337098245999  0.695401153675185  0.8439650182583309  1.0000
  H   H22       1.0  0.5065609851615206  0.304602427212707  0.15603391686672555  1.0000
  H   H23       1.0  0.7463102636088905  0.443132643779741  0.9326008110611073  1.0000
  H   H24       1.0  0.24631361312489733  0.5568716700205059  0.0673918400794591  1.0000
  C   C1        1.0  0.13053659108562948  0.9221176427606965  0.9373553880887401  1.0000
  C   C2        1.0  0.6305493579750419  0.07787512059428539  0.0626478800493828  1.0000
  C   C3        1.0  0.7987153930267467  0.42931365892619777  0.6355221265272989  1.0000
  C   C4        1.0  0.29876711478689805  0.5706800406440564  0.36447921544682776  1.0000
  C   C5        1.0  0.5328373826651429  0.6304848062263773  0.9535341557640395  1.0000
  C   C6        1.0  0.0328358778927935  0.369519075076127  0.046462952609573414  1.0000
  C   C7        1.0  0.7928326441195567  0.5684910320787752  0.6672348641620476  1.0000
  C   C8        1.0  0.2928682924110575  0.43150770490286317  0.3327633015323528  1.0000
  C   C9        1.0  0.427715157085764  0.4366301522285524  0.8498540549084339  1.0000
  C   C10       1.0  0.9277127049668721  0.5633773210281988  0.15014233769516494  1.0000
  C   C11       1.0  0.9891712773747586  0.6555902111954807  0.6510763613129384  1.0000
  C   C12       1.0  0.48923358685902224  0.34441085681955025  0.3489309281529032  1.0000
  C   C13       1.0  0.1954264788813802  0.6002064548543942  0.6030855214755704  1.0000
  C   C14       1.0  0.6954551943040456  0.3998003775875533  0.396918372185148  1.0000
  C   C15       1.0  0.20271343849846354  0.46206260053851617  0.5709984316139868  1.0000
  C   C16       1.0  0.7027638516287026  0.5379463791525723  0.4290093039029089  1.0000
  C   C17       1.0  0.9832319989373274  0.8043359750378585  0.684451523537277  1.0000
  C   C18       1.0  0.48327979041884117  0.19566398556106893  0.3155520191196857  1.0000
  C   C19       1.0  0.004072942092797401  0.3759568661201556  0.5867484413289504  1.0000
  C   C20       1.0  0.5040853100130391  0.6240466834617991  0.4132498852213899  1.0000
  C   C21       1.0  0.8053294969359257  0.16054422921201453  0.5412257474528772  1.0000
  C   C22       1.0  0.3053406600534744  0.83944647308212  0.4587747004046606  1.0000
  C   C23       1.0  0.32398347490558166  0.702076423129462  0.9290861170101011  1.0000
  C   C24       1.0  0.8239968817217829  0.2979277866604734  0.07090947992657701  1.0000
  C   C25       1.0  0.22155248222564694  0.5097774466775179  0.8253229153977701  1.0000
  C   C26       1.0  0.7215714075781676  0.49022452960053914  0.17466954631994014  1.0000
  C   C27       1.0  0.7032852169309648  0.11161640181251901  0.6182251084508508  1.0000
  C   C28       1.0  0.20331088754575433  0.8883751505523634  0.3817743153920077  1.0000
  C   C29       1.0  0.169561909583166  0.6421211864149184  0.863960336744789  1.0000
  C   C30       1.0  0.6695670284162035  0.3578853249376835  0.13603868850221804  1.0000
  C   C31       1.0  0.5841551729541336  0.4987336869791933  0.9140652724848055  1.0000
  C   C32       1.0  0.084171217970507  0.501271784044988  0.0859227996594853  1.0000
  C   C33       1.0  0.26955848908803404  0.9764139444998534  0.867686028275344  1.0000
  C   C34       1.0  0.7695850184702381  0.023581466589831707  0.1323167220650134  1.0000
  C   C35       1.0  0.47060385094268037  0.2941393915334204  0.8086900472356504  1.0000
  C   C36       1.0  0.9706344457257784  0.7058644781785546  0.19130352910573833  1.0000
  O   O1        1.0  0.0279532382472212  0.24186702750852623  0.5511997718604391  1.0000
  O   O2        1.0  0.527975751731482  0.7581347764315964  0.44880445028784527  1.0000
  O   O3        1.0  0.28066544509137964  0.828771713709436  0.9739642352716092  1.0000
  O   O4        1.0  0.7806767050414297  0.17122382257940671  0.026037297430043807  1.0000
  O   O5        1.0  0.17138419659605827  0.8748249216216523  0.6654789641515749  1.0000
  O   O6        1.0  0.6714167965798267  0.12517550854606443  0.33453044621339967  1.0000
  O   O7        1.0  0.47858412815164536  0.066862527508782  0.6104432358791315  1.0000
  O   O8        1.0  0.9786086157379613  0.9331291794411953  0.3895577202612018  1.0000
  O   O9        1.0  0.33319541401526465  0.253056075335529  0.7453130003297731  1.0000
  O   O10       1.0  0.8332245948477495  0.746947222868741  0.2546837185380468  1.0000
  O   O11       1.0  0.6356254770514198  0.22105048801514476  0.8384281518463157  1.0000
  O   O12       1.0  0.1356715455016939  0.7789545911113365  0.1615677360942627  1.0000
  O   O13       1.0  0.5046112583958263  0.9548276606616496  0.8610634255331036  1.0000
  O   O14       1.0  0.0046280103837617005  0.045170798160782503  0.13894051206103342  1.0000
  O   O15       1.0  0.7931927250429281  0.8486136785173243  0.7290271746940462  1.0000
  O   O16       1.0  0.293252828017998  0.15138813721288363  0.27097188490471075  1.0000
  O   O17       1.0  0.8415925877415802  0.11850238762225727  0.682240364313458  1.0000
  O   O18       1.0  0.3416209794200924  0.8814928280852498  0.3177586368420435  1.0000
  O   O19       1.0  0.1342779889446319  0.04180886089674372  0.8223814340347674  1.0000
  O   O20       1.0  0.6342975923857493  0.9581849725915176  0.1776225377279985  1.0000
