data_image0
_chemical_formula_structural       Mn8H56C40O36
_chemical_formula_sum              "Mn8 H56 C40 O36"
_cell_length_a       7.571417312
_cell_length_b       9.018378834
_cell_length_c       17.9749
_cell_angle_alpha    90.0
_cell_angle_beta     90.0
_cell_angle_gamma    90.0

_space_group_name_H-M_alt    "P 1"
_space_group_IT_number       1

loop_
  _space_group_symop_operation_xyz
  'x, y, z'

loop_
  _atom_site_type_symbol
  _atom_site_label
  _atom_site_symmetry_multiplicity
  _atom_site_fract_x
  _atom_site_fract_y
  _atom_site_fract_z
  _atom_site_occupancy
  Mn  Mn1       1.0  0.7062918050395268  0.055126315843566  0.525082754285144  1.0000
  Mn  Mn2       1.0  0.7062918050395268  0.05512520699682  0.974917245714856  1.0000
  Mn  Mn3       1.0  0.706289163526165  0.44487374880220193  0.0250838669478028  1.0000
  Mn  Mn4       1.0  0.2937085499798684  0.5551274893360727  0.5250833106164734  1.0000
  Mn  Mn5       1.0  0.2937085499798684  0.9448727046012237  0.47491724571485616  1.0000
  Mn  Mn6       1.0  0.2937085499798684  0.9448738134479626  0.0250827542851439  1.0000
  Mn  Mn7       1.0  0.2937098707365493  0.5551252716425878  0.9749155767208748  1.0000
  Mn  Mn8       1.0  0.7062904842828459  0.4448726399554559  0.47491724571485616  1.0000
  H   H1        1.0  0.2999200686509482  0.12144089532710468  0.3260852633394364  1.0000
  H   H2        1.0  0.2999187478942673  0.12143978648036581  0.1739147366605636  1.0000
  H   H3        1.0  0.29992138940762914  0.3785569516251712  0.826085819670766  1.0000
  H   H4        1.0  0.7000789656117661  0.6214409599728725  0.3260852633394364  1.0000
  H   H5        1.0  0.7000816071251279  0.878558125117678  0.6739147366605636  1.0000
  H   H6        1.0  0.7000816071251279  0.8785603428111628  0.8260852633394364  1.0000
  H   H7        1.0  0.700080286368447  0.6214431776663574  0.17391418032923414  1.0000
  H   H8        1.0  0.2999200686509482  0.3785591693186561  0.6739141803292341  1.0000
  H   H9        1.0  0.4884277074701515  0.0131265277472821  0.3169975910853466  1.0000
  H   H10       1.0  0.4884263867134706  0.0131265277472821  0.1830024089146534  1.0000
  H   H11       1.0  0.48843034898351334  0.486870210358255  0.8169987037480055  1.0000
  H   H12       1.0  0.5115713267925628  0.5131277012397888  0.3169981474166761  1.0000
  H   H13       1.0  0.5115739683059246  0.9868736015442465  0.6830024089146534  1.0000
  H   H14       1.0  0.5115739683059246  0.9868736015442465  0.8169975910853468  1.0000
  H   H15       1.0  0.5115700060358819  0.5131299189332736  0.1830012962519945  1.0000
  H   H16       1.0  0.4884277074701515  0.48687242805173975  0.6830018525833239  1.0000
  H   H17       1.0  0.6402777446062375  0.23291769381884816  0.24999972183433533  1.0000
  H   H18       1.0  0.6402777446062375  0.2670790442866888  0.7499991655030059  1.0000
  H   H19       1.0  0.3597212896564771  0.7329199761581009  0.2500002781656647  1.0000
  H   H20       1.0  0.3597226104131579  0.7670824354726804  0.7500002781656647  1.0000
  H   H21       1.0  0.4365668756312218  0.3248665923141871  0.24999972183433533  1.0000
  H   H22       1.0  0.4365681963879027  0.1751312546380888  0.7499991655030059  1.0000
  H   H23       1.0  0.5634321586314925  0.8248688746534398  0.2500008344969942  1.0000
  H   H24       1.0  0.5634334793881735  0.6751335369773415  0.7500008344969942  1.0000
  H   H25       1.0  0.816840460001842  0.476555717952003  0.7499997218343354  1.0000
  H   H26       1.0  0.8168417807585229  0.0234443466937648  0.2500002781656647  1.0000
  H   H27       1.0  0.1831598950175533  0.9765557825977637  0.7500002781656647  1.0000
  H   H28       1.0  0.1831598950175533  0.5234444113395327  0.2500002781656647  1.0000
  H   H29       1.0  0.0426247803682003  0.427204275947588  0.7500002781656647  1.0000
  H   H30       1.0  0.0426261011248812  0.0727957886981798  0.2500002781656647  1.0000
  H   H31       1.0  0.957374253894514  0.9272043405933488  0.7500002781656647  1.0000
  H   H32       1.0  0.957374253894514  0.5727969621906865  0.2500002781656647  1.0000
  H   H33       1.0  0.8895098133510473  0.7097107049739151  0.6790947376619628  1.0000
  H   H34       1.0  0.8895071718376857  0.7097118138206611  0.8209041496753785  1.0000
  H   H35       1.0  0.8895084925943664  0.7902894889633743  0.1790952939932922  1.0000
  H   H36       1.0  0.11049186242502883  0.2097106403281543  0.6790952939932923  1.0000
  H   H37       1.0  0.11049186242502883  0.2902894243176135  0.3209047060067078  1.0000
  H   H38       1.0  0.11049186242502883  0.2902905331643524  0.1790947376619627  1.0000
  H   H39       1.0  0.11049186242502883  0.2097106403281543  0.8209047060067078  1.0000
  H   H40       1.0  0.8895098133510473  0.7902894889633743  0.3209047060067078  1.0000
  H   H41       1.0  0.1168777209780103  0.657692486551845  0.6786541232496432  1.0000
  H   H42       1.0  0.1168764002213294  0.657693595398591  0.8213458767503568  1.0000
  H   H43       1.0  0.1168777209780103  0.8423065985387055  0.1786541232496432  1.0000
  H   H44       1.0  0.8831226340413849  0.1576935307528231  0.6786541232496432  1.0000
  H   H45       1.0  0.8831226340413849  0.3423065338929376  0.3213458767503568  1.0000
  H   H46       1.0  0.8831239547980658  0.3423065338929376  0.1786541232496432  1.0000
  H   H47       1.0  0.8831226340413849  0.1576935307528231  0.8213458767503568  1.0000
  H   H48       1.0  0.1168777209780103  0.8423065985387055  0.3213458767503568  1.0000
  H   H49       1.0  0.9854073144502424  0.1896504938949661  0.4662701878730928  1.0000
  H   H50       1.0  0.9854059936935615  0.1896504938949661  0.0337298121269072  1.0000
  H   H51       1.0  0.9854059936935615  0.3103506795975406  0.9662701878730928  1.0000
  H   H52       1.0  0.0145943613258339  0.689649449693988  0.4662701878730928  1.0000
  H   H53       1.0  0.0145943613258339  0.8103496353965625  0.5337303684582366  1.0000
  H   H54       1.0  0.0145943613258339  0.8103496353965625  0.9662701878730928  1.0000
  H   H55       1.0  0.0145943613258339  0.689649449693988  0.0337298121269072  1.0000
  H   H56       1.0  0.9854073144502424  0.3103506795975406  0.5337298121269072  1.0000
  C   C1        1.0  0.5175279394241912  0.1893278194926609  0.39147032806858567  1.0000
  C   C2        1.0  0.5175239771541484  0.18932449295243  0.1085296719314144  1.0000
  C   C3        1.0  0.5175332224509148  0.3106644832258993  0.8914703280685857  1.0000
  C   C4        1.0  0.4824710948385231  0.6893289929851676  0.39147032806858567  1.0000
  C   C5        1.0  0.482472415595204  0.8106723097988677  0.6085296719314144  1.0000
  C   C6        1.0  0.482473736351885  0.8106745274923526  0.8914703280685857  1.0000
  C   C7        1.0  0.4824671325684804  0.6893356460656292  0.1085296719314144  1.0000
  C   C8        1.0  0.5175292601808721  0.310671136306361  0.6085296719314144  1.0000
  C   C9        1.0  0.4441995284911329  0.129370258388505  0.3196857840655554  1.0000
  C   C10       1.0  0.444198207734452  0.129370258388505  0.1803153285970964  1.0000
  C   C11       1.0  0.4442008492478139  0.370626479717032  0.8196857840655554  1.0000
  C   C12       1.0  0.5557995057715814  0.6293703230342729  0.3196852277342259  1.0000
  C   C13       1.0  0.5558008265282623  0.8706287620562847  0.6803142159344446  1.0000
  C   C14       1.0  0.5558021472849433  0.8706298709030236  0.8196846714029036  1.0000
  C   C15       1.0  0.5557995057715814  0.6293725407277577  0.1803142159344446  1.0000
  C   C16       1.0  0.4442008492478139  0.3706286974105168  0.6803147722657742  1.0000
  C   C17       1.0  0.4969030030925836  0.2139885710638367  0.2500002781656647  1.0000
  C   C18       1.0  0.4969043238492645  0.2860092758884463  0.7499997218343354  1.0000
  C   C19       1.0  0.5030960311701307  0.7139908534030894  0.2500002781656647  1.0000
  C   C20       1.0  0.5030973519268116  0.786010449380953  0.7499997218343354  1.0000
  C   C21       1.0  0.9516421698986619  0.5221348633356797  0.7499997218343354  1.0000
  C   C22       1.0  0.9516434906553428  0.9778642217548708  0.2500002781656647  1.0000
  C   C23       1.0  0.0483581851207333  0.022134798689919  0.7500002781656647  1.0000
  C   C24       1.0  0.0483581851207333  0.4778641571091029  0.2500002781656647  1.0000
  C   C25       1.0  0.9807807037964551  0.6153167994095838  0.6795570489961023  1.0000
  C   C26       1.0  0.9807780622830933  0.615314581716099  0.8204440636665566  1.0000
  C   C27       1.0  0.9807807037964551  0.8846856122211975  0.17955593633344344  1.0000
  C   C28       1.0  0.0192196512229472  0.11531451707033111  0.6795559363334434  1.0000
  C   C29       1.0  0.0192209719796281  0.3846855475754367  0.3204440636665566  1.0000
  C   C30       1.0  0.0192209719796281  0.3846833298819448  0.1795570489961023  1.0000
  C   C31       1.0  0.0192196512229472  0.11531451707033111  0.8204440636665566  1.0000
  C   C32       1.0  0.9807807037964551  0.8846845033744586  0.3204440636665566  1.0000
  C   C33       1.0  0.9497125443876229  0.5256909348414709  0.6095905957752167  1.0000
  C   C34       1.0  0.9497125443876229  0.5256909348414709  0.8904094042247835  1.0000
  C   C35       1.0  0.9497125443876229  0.9743092590958254  0.109591152106546  1.0000
  C   C36       1.0  0.0502878106317723  0.025690870195703  0.6095911521065461  1.0000
  C   C37       1.0  0.0502878106317723  0.47430919445005776  0.3904094042247834  1.0000
  C   C38       1.0  0.0502891313884533  0.47430919445005776  0.1095905957752166  1.0000
  C   C39       1.0  0.0502878106317723  0.025690870195703  0.8904088478934541  1.0000
  C   C40       1.0  0.9497125443876229  0.9743092590958254  0.3904094042247834  1.0000
  O   O1        1.0  0.9071062546129556  0.2500005867462534  0.5  1.0000
  O   O2        1.0  0.9071062546129556  0.2500005867462534  0.0  1.0000
  O   O3        1.0  0.0928941004064399  0.7499995425452752  0.5  1.0000
  O   O4        1.0  0.0928941004064399  0.7499995425452752  0.0  1.0000
  O   O5        1.0  0.798829301142078  0.5302039410867323  0.5794029452180567  1.0000
  O   O6        1.0  0.7988253388720352  0.5302050499334783  0.9205970547819434  1.0000
  O   O7        1.0  0.798829301142078  0.9697951440038182  0.0794035015493861  1.0000
  O   O8        1.0  0.2011710538773173  0.030203876440971597  0.5794035015493861  1.0000
  O   O9        1.0  0.2011710538773173  0.46979618820479635  0.4205970547819433  1.0000
  O   O10       1.0  0.2011710538773173  0.4697972970515353  0.0794029452180567  1.0000
  O   O11       1.0  0.2011710538773173  0.0302049852877104  0.9205964984506211  1.0000
  O   O12       1.0  0.798829301142078  0.969796252850557  0.4205970547819433  1.0000
  O   O13       1.0  0.6178909188620878  0.3014155925399677  0.39032150387484427  1.0000
  O   O14       1.0  0.6178869565920451  0.3014167013867066  0.10968016511913703  1.0000
  O   O15       1.0  0.617888277348726  0.1985811455655693  0.8903203912121923  1.0000
  O   O16       1.0  0.3821107569139884  0.8014156571857285  0.39032150387484427  1.0000
  O   O17       1.0  0.3821094361573074  0.6985845367515608  0.6096784961251558  1.0000
  O   O18       1.0  0.3821133984273501  0.698583427904822  0.8903198348808629  1.0000
  O   O19       1.0  0.3821120776706692  0.8014178748792204  0.1096796087878076  1.0000
  O   O20       1.0  0.6178895981054069  0.1985844721058001  0.6096784961251558  1.0000
  O   O21       1.0  0.07859690933384662  0.4456266557409095  0.5845211934419652  1.0000
  O   O22       1.0  0.0785942678204847  0.4456288734343942  0.9154788065580348  1.0000
  O   O23       1.0  0.0785955885771656  0.0543734089048584  0.0845217497732946  1.0000
  O   O24       1.0  0.9214034456855487  0.9456267203866701  0.5845211934419652  1.0000
  O   O25       1.0  0.9214034456855487  0.5543734735506263  0.4154788065580348  1.0000
  O   O26       1.0  0.9214021249288677  0.5543723647038803  0.0845211934419652  1.0000
  O   O27       1.0  0.9214034456855487  0.9456267203866701  0.9154782502267053  1.0000
  O   O28       1.0  0.07859690933384662  0.0543734089048584  0.4154788065580348  1.0000
  O   O29       1.0  0.4799167514173348  0.1184292675722816  0.4518172562851532  1.0000
  O   O30       1.0  0.4799180721740157  0.1184281587255427  0.048183856377505704  1.0000
  O   O31       1.0  0.4799233552007394  0.3815685793799943  0.9518172562851532  1.0000
  O   O32       1.0  0.5200836036020604  0.6184293322180494  0.45181669995382384  1.0000
  O   O33       1.0  0.5200836036020604  0.881570861719247  0.5481827437148468  1.0000
  O   O34       1.0  0.5200822828453795  0.881571970565993  0.9518161436224943  1.0000
  O   O35       1.0  0.5200769998186558  0.6184315499115343  0.0481827437148468  1.0000
  O   O36       1.0  0.4799167514173348  0.3815707970734792  0.5481833000461762  1.0000
