data_image0
_chemical_formula_structural       Al4H44C56O20
_chemical_formula_sum              "Al4 H44 C56 O20"
_cell_length_a       6.626367481120389
_cell_length_b       18.232179445777856
_cell_length_c       17.91746761966233
_cell_angle_alpha    89.96339237378653
_cell_angle_beta     90.0006177247396
_cell_angle_gamma    89.99934843060684

_space_group_name_H-M_alt    "P 1"
_space_group_IT_number       1

loop_
  _space_group_symop_operation_xyz
  'x, y, z'

loop_
  _atom_site_type_symbol
  _atom_site_label
  _atom_site_symmetry_multiplicity
  _atom_site_fract_x
  _atom_site_fract_y
  _atom_site_fract_z
  _atom_site_occupancy
  Al  Al1       1.0  0.7018067621198014  0.7488807274414951  0.2458300076627182  1.0000
  Al  Al2       1.0  0.2982272964450559  0.24926662383488457  0.7538334632088991  1.0000
  Al  Al3       1.0  0.798187363892275  0.24887785520364497  0.7458300577423671  1.0000
  Al  Al4       1.0  0.20177727508428941  0.7492667537561885  0.2538328567701384  1.0000
  H   H1        1.0  0.7833709314518488  0.3816018770296664  0.557336893797192  1.0000
  H   H2        1.0  0.21108232824257558  0.6167751935256405  0.4388945649956426  1.0000
  H   H3        1.0  0.7139214606734328  0.6155680179646766  0.06174301468609401  1.0000
  H   H4        1.0  0.2790604862158901  0.38380362571887616  0.9403418281951305  1.0000
  H   H5        1.0  0.2889037418859814  0.1167498605827646  0.9388627878065918  1.0000
  H   H6        1.0  0.7166626956521187  0.8816008653112419  0.0573408011857524  1.0000
  H   H7        1.0  0.22094821165167391  0.8838080855241799  0.440334583476691  1.0000
  H   H8        1.0  0.7860685736592927  0.11557286070446787  0.5617340904590121  1.0000
  H   H9        1.0  0.6393130042842615  0.44040079226093815  0.4439401912951624  1.0000
  H   H10       1.0  0.354200084095055  0.5583739627040456  0.5534395949256918  1.0000
  H   H11       1.0  0.8616403699318127  0.5552564918926279  0.9490107165230627  1.0000
  H   H12       1.0  0.13038324647640562  0.44467565484348615  0.0515400441640494  1.0000
  H   H13       1.0  0.1457342110857738  0.058353163521609  0.0533999625081876  1.0000
  H   H14       1.0  0.8607165838445212  0.9404122469240337  0.9439513871713957  1.0000
  H   H15       1.0  0.36963521724605636  0.944679403381542  0.551534530736653  1.0000
  H   H16       1.0  0.6383594419336164  0.05525765538563831  0.4490084388476205  1.0000
  H   H17       1.0  0.470086870386119  0.5174292458565971  0.6670233380906084  1.0000
  H   H18       1.0  0.32111148266279343  0.4588057139741012  0.7246057559441184  1.0000
  H   H19       1.0  0.4949650774373282  0.4205344082013766  0.6615422734250345  1.0000
  H   H20       1.0  0.5105866466205101  0.4838533426903097  0.33569196901982673  1.0000
  H   H21       1.0  0.5031402039972762  0.5817193587124266  0.3359880740380774  1.0000
  H   H22       1.0  0.6641920692482088  0.5360765056184177  0.2734837994102435  1.0000
  H   H23       1.0  0.9951732256816969  0.4898301103905141  0.1573883740722621  1.0000
  H   H24       1.0  0.1504058664950279  0.538270763833296  0.2221014446927043  1.0000
  H   H25       1.0  0.9990889937353131  0.5877071270601276  0.1592946505638011  1.0000
  H   H26       1.0  0.9861509718849678  0.5120398322885221  0.8384164613833036  1.0000
  H   H27       1.0  0.9985413611169563  0.4147761675923221  0.8423588343724262  1.0000
  H   H28       1.0  0.8348282984550154  0.4568906986441233  0.7781952635382439  1.0000
  H   H29       1.0  0.9895370654552098  0.9838819614347043  0.8357281270519435  1.0000
  H   H30       1.0  0.835926173724218  0.0360866838053227  0.7734979154152128  1.0000
  H   H31       1.0  0.9968772770729686  0.08174715217963781  0.8360216750592997  1.0000
  H   H32       1.0  0.029866569856594104  0.017423056324524597  0.1669822044299494  1.0000
  H   H33       1.0  0.0050038286199410005  0.9205252577960438  0.1615220605665613  1.0000
  H   H34       1.0  0.17884903015399803  0.9588141393825822  0.224579954557683  1.0000
  H   H35       1.0  0.5138044732448322  0.012034241110015399  0.3384243894066756  1.0000
  H   H36       1.0  0.6651390549286021  0.956890938897061  0.2781939803819711  1.0000
  H   H37       1.0  0.5014555456044506  0.9147675771867511  0.3423648409878766  1.0000
  H   H38       1.0  0.5048369244795694  0.9898360552824528  0.6573861433255601  1.0000
  H   H39       1.0  0.5009100554417857  0.08771666871733429  0.6592931718593819  1.0000
  H   H40       1.0  0.3495863809573764  0.03827651230264449  0.7220983065809676  1.0000
  H   H41       1.0  0.4670035120642667  0.7773260065934906  0.3427988478007009  1.0000
  H   H42       1.0  0.5338141279037671  0.2802904209820198  0.658055320198585  1.0000
  H   H43       1.0  0.0329924608512613  0.2773316121370043  0.8427952431659094  1.0000
  H   H44       1.0  0.9661726898077208  0.7802897540560352  0.1580522214202844  1.0000
  C   C1        1.0  0.44269249224009855  0.6486124713198933  0.162288410283864  1.0000
  C   C2        1.0  0.5501445865510277  0.3503000915222501  0.8397113535154404  1.0000
  C   C3        1.0  0.049410112319989714  0.3511604528358347  0.6608827886203983  1.0000
  C   C4        1.0  0.943654762846528  0.6475314727102627  0.33618004420664954  1.0000
  C   C5        1.0  0.949868375294571  0.8502989253690955  0.3397109928351227  1.0000
  C   C6        1.0  0.057272166148486306  0.1486114218651764  0.6622843307047859  1.0000
  C   C7        1.0  0.5563827433343321  0.14753316826633525  0.8361698205007713  1.0000
  C   C8        1.0  0.4505720946538077  0.8511631238152616  0.16088019519575877  1.0000
  C   C9        1.0  0.06056488247010352  0.4145945198600884  0.6083154375730544  1.0000
  C   C10       1.0  0.9330885485391466  0.5840606520066203  0.3885944978434566  1.0000
  C   C11       1.0  0.4306364552397071  0.5854516900321798  0.1095159107328456  1.0000
  C   C12       1.0  0.5622262625912671  0.41384095539255117  0.891994127739288  1.0000
  C   C13       1.0  0.5668989702858624  0.08404750713116019  0.8885949225417278  1.0000
  C   C14       1.0  0.4394129803550443  0.9145807699159006  0.1083089124187566  1.0000
  C   C15       1.0  0.9377663636907274  0.9138496983159144  0.3919931630572009  1.0000
  C   C16       1.0  0.06937265234487461  0.08545828311397942  0.6095185624174562  1.0000
  C   C17       1.0  0.7633364154259044  0.4799279547245519  0.4431415972385366  1.0000
  C   C18       1.0  0.2310791276063497  0.518532507530473  0.5538438174987731  1.0000
  C   C19       1.0  0.7356007146004161  0.5166101253534522  0.9475539244753506  1.0000
  C   C20       1.0  0.2571382425360937  0.4829496177846551  0.0535323229038553  1.0000
  C   C21       1.0  0.2689065676759911  0.018513531385806897  0.0538112798070429  1.0000
  C   C22       1.0  0.7366976091692479  0.9799244253269492  0.943141797720351  1.0000
  C   C23       1.0  0.2428697128526309  0.9829537483312406  0.553527515156766  1.0000
  C   C24       1.0  0.7643885111390036  0.016612005836883305  0.4475459149902861  1.0000
  C   C25       1.0  0.7669321505690618  0.5332710101482547  0.38818846980945665  1.0000
  C   C26       1.0  0.22606783368912894  0.4654911258062099  0.609033377748375  1.0000
  C   C27       1.0  0.7312153164131702  0.4632429456067655  0.8927114172086591  1.0000
  C   C28       1.0  0.2607283349867018  0.536269082360725  0.1084239754661596  1.0000
  C   C29       1.0  0.2739155746418405  0.9654756802506768  0.10901292331957531  1.0000
  C   C30       1.0  0.7331041573797847  0.0332677857628525  0.8881933324352005  1.0000
  C   C31       1.0  0.23926759996728464  0.0362751631497673  0.6084165732479292  1.0000
  C   C32       1.0  0.7687723513053015  0.9632439705502519  0.3927099108034326  1.0000
  C   C33       1.0  0.0859980151716755  0.5779194156126977  0.4411086367515296  1.0000
  C   C34       1.0  0.9084869443421439  0.420422565152215  0.5555587334834655  1.0000
  C   C35       1.0  0.4067451277400523  0.4214720884880023  0.9431415545408867  1.0000
  C   C36       1.0  0.5864737427251044  0.5778781484124664  0.05841923370880411  1.0000
  C   C37       1.0  0.5914998030439237  0.9204197364010369  0.05555553969201551  1.0000
  C   C38       1.0  0.41397458623492883  0.0779035788217683  0.9410906526869169  1.0000
  C   C39       1.0  0.9135372945552691  0.07788315573834839  0.5584168611778608  1.0000
  C   C40       1.0  0.09326065956595643  0.9214741907707374  0.4431378049448824  1.0000
  C   C41       1.0  0.0809309253988033  0.5240021518457567  0.4976985448610378  1.0000
  C   C42       1.0  0.9142316317024638  0.47416266524907497  0.49885788233588363  1.0000
  C   C43       1.0  0.4117387135135573  0.4755589183747945  0.9994592275945067  1.0000
  C   C44       1.0  0.581700487052089  0.523842325598153  0.0020574352181768  1.0000
  C   C45       1.0  0.5857713512260717  0.9741590416526977  0.9988419672162082  1.0000
  C   C46       1.0  0.4190518174102422  0.023991784362507894  0.9976733179988386  1.0000
  C   C47       1.0  0.9182971655402882  0.023841285187380396  0.5020522916615491  1.0000
  C   C48       1.0  0.0882698910490802  0.9755615840481651  0.4994509965397639  1.0000
  C   C49       1.0  0.38632107110787234  0.46549705493075766  0.6686503167989457  1.0000
  C   C50       1.0  0.6021455295136917  0.533758772560482  0.3303069235238851  1.0000
  C   C51       1.0  0.09199881699102262  0.5381572450439975  0.1646932031595512  1.0000
  C   C52       1.0  0.8962444354197958  0.46159059035431244  0.8349395784533158  1.0000
  C   C53       1.0  0.8979370458903947  0.033776442814961186  0.8303296069148729  1.0000
  C   C54       1.0  0.11364478312736993  0.9654925132568336  0.1686231969581584  1.0000
  C   C55       1.0  0.6037458245626012  0.9615855311669602  0.3349492624478714  1.0000
  C   C56       1.0  0.40799446462186495  0.0381633659240492  0.6646880213853237  1.0000
  O   O1        1.0  0.2838859074035867  0.8222705386426482  0.180582073387221  1.0000
  O   O2        1.0  0.7214828351019592  0.16922394081766606  0.8077478396535085  1.0000
  O   O3        1.0  0.2219612461066305  0.17062695109761708  0.690739585355253  1.0000
  O   O4        1.0  0.7838123334731365  0.8208331010465811  0.3201990155132464  1.0000
  O   O5        1.0  0.7785301865928959  0.6692227424217803  0.3077446919613038  1.0000
  O   O6        1.0  0.21613585952197675  0.3222690108430939  0.680587996188315  1.0000
  O   O7        1.0  0.7161739604188214  0.3208370576707225  0.8201976792699739  1.0000
  O   O8        1.0  0.27803521363795625  0.6706263027159663  0.190738668171484  1.0000
  O   O9        1.0  0.614641517063916  0.6781773231298018  0.17381873301412304  1.0000
  O   O10       1.0  0.3747967293764702  0.3282365775257288  0.8201346011162443  1.0000
  O   O11       1.0  0.8744330555554999  0.32861119241365333  0.6803140562635548  1.0000
  O   O12       1.0  0.11483183999850162  0.6777279062502187  0.32499696033935516  1.0000
  O   O13       1.0  0.1251994513959787  0.8282402289266102  0.32012872139956977  1.0000
  O   O14       1.0  0.8853574548407366  0.17816541254620685  0.6738196295026314  1.0000
  O   O15       1.0  0.3851448418577448  0.1777236748893714  0.8249939441432872  1.0000
  O   O16       1.0  0.6255571382127061  0.8286170369015764  0.1803165479393556  1.0000
  O   O17       1.0  0.4557029229422584  0.7507940590155255  0.2961529402048697  1.0000
  O   O18       1.0  0.5443914145944931  0.2516171807848693  0.7034462339876839  1.0000
  O   O19       1.0  0.044293999089667614  0.2507908549607264  0.7961544011801251  1.0000
  O   O20       1.0  0.9555996251803479  0.7516198366778751  0.2034453311755442  1.0000
