data_image0
_chemical_formula_structural       Zn2H30C26N6O14
_chemical_formula_sum              "Zn2 H30 C26 N6 O14"
_cell_length_a       8.639019712950203
_cell_length_b       9.734929379829254
_cell_length_c       9.89813453536839
_cell_angle_alpha    82.35350375648126
_cell_angle_beta     69.15379912380187
_cell_angle_gamma    79.46107273692868

_space_group_name_H-M_alt    "P 1"
_space_group_IT_number       1

loop_
  _space_group_symop_operation_xyz
  'x, y, z'

loop_
  _atom_site_type_symbol
  _atom_site_label
  _atom_site_symmetry_multiplicity
  _atom_site_fract_x
  _atom_site_fract_y
  _atom_site_fract_z
  _atom_site_occupancy
  Zn  Zn1       1.0  0.5251337167909184  0.6184841100413294  0.6261953815243257  1.0000
  Zn  Zn2       1.0  0.47486385230618544  0.3815165943159755  0.3738061463401578  1.0000
  H   H1        1.0  0.29028802331720266  0.09507263386424819  0.7326068760781862  1.0000
  H   H2        1.0  0.7097111856441386  0.9049259445715379  0.2673904004273238  1.0000
  H   H3        1.0  0.2550574553062929  0.008097659259298999  0.1810720750295544  1.0000
  H   H4        1.0  0.7449385146133948  0.9919051198825171  0.818927636756605  1.0000
  H   H5        1.0  0.40457771722168456  0.3961914539021123  0.9505894665898891  1.0000
  H   H6        1.0  0.5954253795037941  0.6038061045145895  0.04940877748459363  1.0000
  H   H7        1.0  0.019013629044309262  0.710033843517607  0.9699454720187928  1.0000
  H   H8        1.0  0.9809864227991906  0.2899668593971327  0.030054283238349914  1.0000
  H   H9        1.0  0.23108223160006247  0.6416271409610277  0.9355461575982671  1.0000
  H   H10       1.0  0.7689165754796649  0.3583735669364074  0.06445498958233016  1.0000
  H   H11       1.0  0.9538463198369412  0.6170811091583346  0.2338757700797983  1.0000
  H   H12       1.0  0.046153919385091086  0.3829185460712452  0.7661240723189092  1.0000
  H   H13       1.0  0.1663055903167531  0.5389401892333936  0.19334586492900024  1.0000
  H   H14       1.0  0.8336946353430007  0.4610594830418577  0.8066559999488089  1.0000
  H   H15       1.0  0.03662573675313748  0.4822853479114287  0.11270356689145435  1.0000
  H   H16       1.0  0.9633732644862648  0.5177143037780141  0.8872966561911464  1.0000
  H   H17       1.0  0.8645225022733881  0.45155016168914125  0.39979060584286674  1.0000
  H   H18       1.0  0.13547896815013158  0.5484495056034078  0.6002098671114948  1.0000
  H   H19       1.0  0.38697883586193155  0.8735680538178845  0.4529194171217979  1.0000
  H   H20       1.0  0.6130199915612096  0.1264326285110542  0.5470786963401363  1.0000
  H   H21       1.0  0.07944250754952979  0.016703775661071098  0.6683984470219426  1.0000
  H   H22       1.0  0.920557544293963  0.9832969272536616  0.3316013082352001  1.0000
  H   H23       1.0  0.18556789307438484  0.06181647656694621  0.4827707221684816  1.0000
  H   H24       1.0  0.814430920786485  0.9381842228076565  0.5172294137725612  1.0000
  H   H25       1.0  0.2537816219547364  0.868131436623308  0.8507482645012129  1.0000
  H   H26       1.0  0.7462171851249975  0.13186927127413384  0.14925288267937728  1.0000
  H   H27       1.0  0.9466593190462974  0.2612011988211548  0.6351143048860092  1.0000
  H   H28       1.0  0.053339682193097766  0.7387984528682878  0.3648859181965916  1.0000
  H   H29       1.0  0.07057310284321969  0.27947909236579  0.44826229658341515  1.0000
  H   H30       1.0  0.9294258983961826  0.7205205593236528  0.5517379264991928  1.0000
  C   C1        1.0  0.37196371955597124  0.3545251617428349  0.6962650730401162  1.0000
  C   C2        1.0  0.6280369012042541  0.6454723895935928  0.30373393240216  1.0000
  C   C3        1.0  0.3473406311306135  0.2554562894131323  0.829056561557287  1.0000
  C   C4        1.0  0.6526624723760006  0.7445412604807303  0.17094067127764834  1.0000
  C   C5        1.0  0.30230511266265836  0.12426855137148608  0.8303955227070926  1.0000
  C   C6        1.0  0.697697990843956  0.8757289985223764  0.16960171012783565  1.0000
  C   C7        1.0  0.26686984975973616  0.034302370381737994  0.957122287613252  1.0000
  C   C8        1.0  0.7331330595872103  0.9656962357201236  0.04287586931966547  1.0000
  C   C9        1.0  0.2809126582703242  0.0761973363567421  0.0819475739246442  1.0000
  C   C10       1.0  0.7190886383369274  0.9238033615752954  0.9180507894090508  1.0000
  C   C11       1.0  0.3328426293985701  0.2050560619377109  0.07810870546595783  1.0000
  C   C12       1.0  0.6671561709000285  0.7949446544825562  0.9218934529541868  1.0000
  C   C13       1.0  0.36563674374178134  0.29559987495616713  0.9524056029849884  1.0000
  C   C14       1.0  0.6343636896399117  0.7043987240654204  0.04759331531572997  1.0000
  C   C15       1.0  0.14016811266797188  0.8182436493309169  0.06498816600246468  1.0000
  C   C16       1.0  0.8598321197729176  0.18175601442150222  0.93501268763579  1.0000
  C   C17       1.0  0.11625130213277393  0.682479365189913  0.021094642088655705  1.0000
  C   C18       1.0  0.8837476923254926  0.3175202950223693  0.9789065922334925  1.0000
  C   C19       1.0  0.06574706784284959  0.5736960615107805  0.1476865992847323  1.0000
  C   C20       1.0  0.934249082674235  0.426305678468708  0.8523142108825393  1.0000
  C   C21       1.0  0.35160970592450974  0.2453567914031183  0.211783726875275  1.0000
  C   C22       1.0  0.6483880505511265  0.7546428652690268  0.7882178881307805  1.0000
  C   C23       1.0  0.842595111057392  0.4055465876161862  0.5116309447344418  1.0000
  C   C24       1.0  0.15740209684492604  0.5944561950657673  0.4883683863678171  1.0000
  C   C25       1.0  0.2933937494839185  0.8847127754470636  0.5622369966686092  1.0000
  C   C26       1.0  0.7066059411647884  0.11529000579231759  0.43776056182630885  1.0000
  N   N1        1.0  0.2221132736892883  0.9037765329582397  0.9520957236991943  1.0000
  N   N2        1.0  0.7778871529112692  0.0962220745861799  0.04790420584107116  1.0000
  N   N3        1.0  0.9618502570630695  0.3076076854518631  0.5320755794972737  1.0000
  N   N4        1.0  0.03814855679780039  0.6923930139227394  0.4679245564437692  1.0000
  N   N5        1.0  0.17227003651444048  0.9923601488992732  0.5723862264541493  1.0000
  N   N6        1.0  0.8277316212876114  0.0076384707081161  0.42761433364177737  1.0000
  O   O1        1.0  0.3581869626504782  0.48422494234966257  0.7110777120981236  1.0000
  O   O2        1.0  0.6418136716720184  0.5157725919410937  0.28891927086505104  1.0000
  O   O3        1.0  0.39956149982642586  0.3004230190068142  0.5774087248344343  1.0000
  O   O4        1.0  0.6004376887915015  0.6995755849974684  0.42259158538973185  1.0000
  O   O5        1.0  0.08539473388962894  0.850354062735221  0.19375035864356954  1.0000
  O   O6        1.0  0.9146042605686375  0.14964559747705414  0.8062508756785786  1.0000
  O   O7        1.0  0.45247884968981805  0.3336399266354704  0.19250426169111276  1.0000
  O   O8        1.0  0.5475164308205648  0.6663597229564077  0.8074981146827367  1.0000
  O   O9        1.0  0.26949467747557077  0.19276867125132213  0.33502781684668986  1.0000
  O   O10       1.0  0.7305057220004514  0.8072299703844339  0.664976157651786  1.0000
  O   O11       1.0  0.7102116863667901  0.4439054369932053  0.613242252238187  1.0000
  O   O12       1.0  0.2897908482230918  0.5560952644789623  0.3867557304116147  1.0000
  O   O13       1.0  0.3074283364743805  0.7987860413531038  0.6658570532058616  1.0000
  O   O14       1.0  0.6925731407302747  0.20121361741660593  0.3341424085089458  1.0000
