data_image0
_chemical_formula_structural       Zn4H36C78O22
_chemical_formula_sum              "Zn4 H36 C78 O22"
_cell_length_a       16.041709774008126
_cell_length_b       16.135114207029904
_cell_length_c       30.158432783069603
_cell_angle_alpha    90.69724782403745
_cell_angle_beta     89.35716439742608
_cell_angle_gamma    89.97437008988504

_space_group_name_H-M_alt    "P 1"
_space_group_IT_number       1

loop_
  _space_group_symop_operation_xyz
  'x, y, z'

loop_
  _atom_site_type_symbol
  _atom_site_label
  _atom_site_symmetry_multiplicity
  _atom_site_fract_x
  _atom_site_fract_y
  _atom_site_fract_z
  _atom_site_occupancy
  Zn  Zn1       1.0  0.5038695886325685  0.9201323467215159  0.49835774307099  1.0000
  Zn  Zn2       1.0  0.4960846485191156  0.07985945431146038  0.501655197890976  1.0000
  Zn  Zn3       1.0  0.08041188688213911  0.5033965218194253  0.9990861311885483  1.0000
  Zn  Zn4       1.0  0.919581764695913  0.4965988682026815  0.0008762259775707984  1.0000
  H   H1        1.0  0.238302352269173  0.8773828360768902  0.6888170671723728  1.0000
  H   H2        1.0  0.7616145637889319  0.12244965707994736  0.3111845280247749  1.0000
  H   H3        1.0  0.8619417230589903  0.10905527511592784  0.7460082386538786  1.0000
  H   H4        1.0  0.13811461983671341  0.8909527262411883  0.254050357953659  1.0000
  H   H5        1.0  0.11193151083747921  0.948868176720083  0.8110027180977468  1.0000
  H   H6        1.0  0.8880501839143022  0.05097488261822749  0.1890175034249566  1.0000
  H   H7        1.0  0.8744220196668382  0.04009032811062239  0.8128749062189584  1.0000
  H   H8        1.0  0.12569038243078984  0.9600862405042957  0.1871810665939577  1.0000
  H   H9        1.0  0.12144972895153221  0.10573226522529917  0.768391676879375  1.0000
  H   H10       1.0  0.8786643689715703  0.894140919023982  0.231538507146972  1.0000
  H   H11       1.0  0.8682813500127297  0.8766829088636212  0.7662013781743654  1.0000
  H   H12       1.0  0.1316580736282589  0.12340295280618815  0.23374752899933782  1.0000
  H   H13       1.0  0.7461194029174507  0.11204496548081976  0.692918007677662  1.0000
  H   H14       1.0  0.2539662564664198  0.8880900395028701  0.3071199559369547  1.0000
  H   H15       1.0  0.1114935228389626  0.8331620618663675  0.8636571723417036  1.0000
  H   H16       1.0  0.8882811029972403  0.16672016634682046  0.1363938606765842  1.0000
  H   H17       1.0  0.8795098486824955  0.15063821468751112  0.8701496906586286  1.0000
  H   H18       1.0  0.12081079173215412  0.8495011098983197  0.1299029971967087  1.0000
  H   H19       1.0  0.12894781880380896  0.21241667522520657  0.8276146612214959  1.0000
  H   H20       1.0  0.8713881988823574  0.7874366401453083  0.17232221573625853  1.0000
  H   H21       1.0  0.8656998064941137  0.7638406971105667  0.8206393543925472  1.0000
  H   H22       1.0  0.1340424910463724  0.23630170790947597  0.1793496983575338  1.0000
  H   H23       1.0  0.1417361461584363  0.09568372791797229  0.6268988263687592  1.0000
  H   H24       1.0  0.8582912077540571  0.9041616705627998  0.37306712432310013  1.0000
  H   H25       1.0  0.8332515870740167  0.882543125203483  0.6347984426777487  1.0000
  H   H26       1.0  0.16670706647742864  0.11759362363464017  0.3651788460039356  1.0000
  H   H27       1.0  0.1230100483693661  0.8827846057504727  0.7426752758764863  1.0000
  H   H28       1.0  0.8769522669386449  0.11715640595984667  0.2573529116623945  1.0000
  H   H29       1.0  0.9648196464234503  0.2211946292263675  0.6950237607268122  1.0000
  H   H30       1.0  0.03524561206980079  0.7787506265111046  0.30497473913618484  1.0000
  H   H31       1.0  0.9678436836299938  0.8368648269355885  0.6223289694751984  1.0000
  H   H32       1.0  0.9068757350478124  0.7689931204104139  0.6568773671046841  1.0000
  H   H33       1.0  0.018409570887406804  0.7695341233141872  0.6606238640931039  1.0000
  H   H34       1.0  0.09305113400638022  0.23103643167311813  0.34310907737880575  1.0000
  H   H35       1.0  0.032110598003455906  0.1631566783506457  0.3776645809740842  1.0000
  H   H36       1.0  0.9815122926594313  0.23047004065801954  0.3393720742623998  1.0000
  C   C1        1.0  0.6179528164793313  0.007772611249499999  0.4407101650359095  1.0000
  C   C2        1.0  0.3819691109928415  0.9906874624029808  0.5592184159902942  1.0000
  C   C3        1.0  0.9322274166211744  0.1408487642810314  0.8475995996901062  1.0000
  C   C4        1.0  0.06805962377945457  0.8592564337052336  0.1524341630710708  1.0000
  C   C5        1.0  0.0681074901418413  0.11506538047008516  0.7905547231502794  1.0000
  C   C6        1.0  0.9320626182562038  0.8848475293607833  0.2094052447749633  1.0000
  C   C7        1.0  0.0725960852565564  0.1754807873548359  0.8237467340762663  1.0000
  C   C8        1.0  0.9277061958276249  0.8244110151924814  0.1762117631874034  1.0000
  C   C9        1.0  0.9224158972823346  0.8670344077030162  0.7869975704318578  1.0000
  C   C10       1.0  0.07747922338649002  0.13301308230737866  0.2129705743649737  1.0000
  C   C11       1.0  0.9205055658637705  0.8033483781780502  0.8177033159236445  1.0000
  C   C12       1.0  0.07926168682543282  0.19675558770511964  0.1822833940829227  1.0000
  C   C13       1.0  0.07429111415339662  0.05430436153359608  0.6844908297070662  1.0000
  C   C14       1.0  0.9257529848726663  0.9456284754060673  0.3154961019634186  1.0000
  C   C15       1.0  0.13940665599548652  0.05029533756959378  0.6533308442403722  1.0000
  C   C16       1.0  0.8606237759469907  0.949572400296638  0.3466464945141894  1.0000
  C   C17       1.0  0.9054725375770261  0.9304990807332698  0.6895205124657836  1.0000
  C   C18       1.0  0.09449293600866332  0.0695466126963709  0.3104807473887305  1.0000
  C   C19       1.0  0.8400272780299859  0.9315520569705665  0.6595426535885522  1.0000
  C   C20       1.0  0.15995130289441314  0.06856735604444705  0.34044437835261476  1.0000
  C   C21       1.0  0.9926336208872756  0.9943110341407074  0.7514794886684584  1.0000
  C   C22       1.0  0.0073817281630042  0.005681356822648798  0.2485268391736426  1.0000
  C   C23       1.0  0.6073175866124602  0.9969158082759717  0.5635601313341708  1.0000
  C   C24       1.0  0.3926479355676592  0.004628646082679198  0.4364734049036727  1.0000
  C   C25       1.0  0.0681099244098391  0.995102283585474  0.7187029816674271  1.0000
  C   C26       1.0  0.9318979856248364  0.004851036509613499  0.2812928779397907  1.0000
  C   C27       1.0  0.20048264390768372  0.9880743112304484  0.6546173161761645  1.0000
  C   C28       1.0  0.7994804805525959  0.011728363544051497  0.3453603235653944  1.0000
  C   C29       1.0  0.9149710459669651  0.994856020874515  0.7217244154937745  1.0000
  C   C30       1.0  0.0850380419761834  0.005166756630948998  0.2782880903465069  1.0000
  C   C31       1.0  0.7822474612378019  0.9972903848412709  0.6602581393132995  1.0000
  C   C32       1.0  0.21781025116746383  0.0028928669747684986  0.3397361496781457  1.0000
  C   C33       1.0  0.9919472244600772  0.9188697862954739  0.7828090354846041  1.0000
  C   C34       1.0  0.008012035037431501  0.08111144980733796  0.2171925440821809  1.0000
  C   C35       1.0  0.9892550369278653  0.7889690145145564  0.8451436307178923  1.0000
  C   C36       1.0  0.010421671250853103  0.21111775160405694  0.1548991538815372  1.0000
  C   C37       1.0  0.9961974258882266  0.06706832507580168  0.7850946368277647  1.0000
  C   C38       1.0  0.003903966511622101  0.9329314700660587  0.214905983240179  1.0000
  C   C39       1.0  0.004191851388881702  0.19024437339786718  0.8524023995195407  1.0000
  C   C40       1.0  0.9961937931783637  0.8097237723842876  0.14760916418294562  1.0000
  C   C41       1.0  0.718878968449971  0.998684986215522  0.6279318676348851  1.0000
  C   C42       1.0  0.28123605806589325  0.0018390832241621995  0.3720369209123646  1.0000
  C   C43       1.0  0.6665566151289115  0.9980446512373929  0.598957803675276  1.0000
  C   C44       1.0  0.3335051196410746  0.003157566115426399  0.4010407447444564  1.0000
  C   C45       1.0  0.12856257482550862  0.9322092403615512  0.7186679906606771  1.0000
  C   C46       1.0  0.8714103814625176  0.06770880565350977  0.2813474077867752  1.0000
  C   C47       1.0  0.2648557039834926  0.9860747416068063  0.6221094175470939  1.0000
  C   C48       1.0  0.7350446453852868  0.013430982615375297  0.3778349848139442  1.0000
  C   C49       1.0  0.31875976437324033  0.9869494059493459  0.5933510654968259  1.0000
  C   C50       1.0  0.6811607644965891  0.011875760892223796  0.4065895978928822  1.0000
  C   C51       1.0  0.9890744766772175  0.7231284508106127  0.8757154556920455  1.0000
  C   C52       1.0  0.010060293582803598  0.2770620892548123  0.1243867777315231  1.0000
  C   C53       1.0  0.9906754852537889  0.6666136247174419  0.9021206360925335  1.0000
  C   C54       1.0  0.0072660873536350016  0.33352762100457767  0.0979878209226897  1.0000
  C   C55       1.0  0.0068694609014202  0.2534937690659546  0.8852641846055676  1.0000
  C   C56       1.0  0.9939861667892417  0.7464074028427631  0.11477804473708633  1.0000
  C   C57       1.0  0.007457498764018998  0.3086125376472211  0.9132293987673634  1.0000
  C   C58       1.0  0.994447953893385  0.6912741307347826  0.0868102935126558  1.0000
  C   C59       1.0  0.005942942125194903  0.37533281292382253  0.9451595938706276  1.0000
  C   C60       1.0  0.9965972499142169  0.6246793972240353  0.0548248211891433  1.0000
  C   C61       1.0  0.993612068547968  0.6031766131553978  0.9350521898566768  1.0000
  C   C62       1.0  0.0037486264749589018  0.39689525184159175  0.0650157652842509  1.0000
  C   C63       1.0  0.19348643115839792  0.9280523392174014  0.6878562981049114  1.0000
  C   C64       1.0  0.8064566537088355  0.0718012275141433  0.3121479370425817  1.0000
  C   C65       1.0  0.8555492187219401  0.05831987966150359  0.7222089302005372  1.0000
  C   C66       1.0  0.14448408826446982  0.941718463238871  0.2778353728787124  1.0000
  C   C67       1.0  0.7902313909398019  0.060747482657347994  0.6922029428622878  1.0000
  C   C68       1.0  0.20983745386317315  0.9393738794713469  0.3078303861652358  1.0000
  C   C69       1.0  0.05893694844009902  0.9066152632361052  0.8117246001621794  1.0000
  C   C70       1.0  0.9409917536901277  0.09329225277058127  0.1882893081872865  1.0000
  C   C71       1.0  0.0586604909598591  0.8423287524092372  0.8418543623944715  1.0000
  C   C72       1.0  0.9411353542160797  0.15759930347458345  0.1581829013218226  1.0000
  C   C73       1.0  0.9293166653549607  0.07967376641651919  0.8149401130760765  1.0000
  C   C74       1.0  0.07085069103663952  0.9204333097841368  0.1850899698678177  1.0000
  C   C75       1.0  0.012752552822988202  0.12148553496523819  0.674173911829719  1.0000
  C   C76       1.0  0.9873052537660884  0.8784640351446451  0.3258137095333993  1.0000
  C   C77       1.0  0.9632069986105238  0.8078710637075797  0.6551198093884879  1.0000
  C   C78       1.0  0.03672359090815291  0.1921547868065331  0.3448742206617795  1.0000
  O   O1        1.0  0.5967254936668952  0.9351248931310179  0.4531106923349171  1.0000
  O   O2        1.0  0.40331318582289555  0.06326498521694647  0.5467631585654829  1.0000
  O   O3        1.0  0.5798112888621533  0.06717661001841438  0.5508446616507214  1.0000
  O   O4        1.0  0.42022443777877083  0.9344572606393977  0.44926463299248814  1.0000
  O   O5        1.0  0.5876839239430185  0.9256430370217711  0.5477459529933385  1.0000
  O   O6        1.0  0.4121601063621371  0.07598379473859042  0.4522522183740493  1.0000
  O   O7        1.0  0.5888765337205301  0.07668785450471916  0.4555406470367914  1.0000
  O   O8        1.0  0.41096051416128193  0.9216880514302584  0.5444323151623537  1.0000
  O   O9        1.0  0.0763837342975791  0.40518020268381594  0.9569591058564768  1.0000
  O   O10       1.0  0.9263225793390718  0.5946538816938868  0.04293985196694901  1.0000
  O   O11       1.0  0.9236699624750385  0.5748434208437486  0.9490146175543188  1.0000
  O   O12       1.0  0.07355306047028881  0.4254173776958793  0.05099546668159151  1.0000
  O   O13       1.0  0.06619724375361363  0.5813116658123006  0.9477320333161074  1.0000
  O   O14       1.0  0.9310526448028754  0.4184056589661224  0.0523198398830047  1.0000
  O   O15       1.0  0.9338273131589717  0.39910503451997664  0.9588091488966839  1.0000
  O   O16       1.0  0.06886911280973611  0.6011973330421437  0.0412278749262498  1.0000
  O   O17       1.0  0.9784337935848344  0.12659155635651584  0.6384155046280783  1.0000
  O   O18       1.0  0.004015075565384102  0.18031739205245143  0.7066277322191965  1.0000
  O   O19       1.0  0.021626499550244205  0.8733598781251143  0.3615744358026944  1.0000
  O   O20       1.0  0.9960601710852972  0.8196315674654069  0.2933654321762731  1.0000
  O   O21       1.0  0.9636085205550202  0.8689888791918388  0.6898066548589412  1.0000
  O   O22       1.0  0.036321441517174  0.1310270608191288  0.31018997334860643  1.0000
