data_image0
_chemical_formula_structural       Ag8H4C8S8N8Cl4
_chemical_formula_sum              "Ag8 H4 C8 S8 N8 Cl4"
_cell_length_a       3.8877932559547843
_cell_length_b       11.133330732002733
_cell_length_c       15.325637012538959
_cell_angle_alpha    90.00004329090159
_cell_angle_beta     92.4464146578057
_cell_angle_gamma    90.00004276472593

_space_group_name_H-M_alt    "P 1"
_space_group_IT_number       1

loop_
  _space_group_symop_operation_xyz
  'x, y, z'

loop_
  _atom_site_type_symbol
  _atom_site_label
  _atom_site_symmetry_multiplicity
  _atom_site_fract_x
  _atom_site_fract_y
  _atom_site_fract_z
  _atom_site_occupancy
  Ag  Ag1       1.0  0.3861694235748204  0.2065483575741567  0.22409839427266584  1.0000
  Ag  Ag2       1.0  0.6138309003663526  0.7065479298451933  0.27590178865316534  1.0000
  Ag  Ag3       1.0  0.6138305318960564  0.7934518926654164  0.775901615893247  1.0000
  Ag  Ag4       1.0  0.3861664808085906  0.29345321859761947  0.7240982018387713  1.0000
  Ag  Ag5       1.0  0.07562865683355115  0.008887783490067103  0.40331412158698043  1.0000
  Ag  Ag6       1.0  0.9243688804504022  0.5088874534769374  0.09668519091690092  1.0000
  Ag  Ag7       1.0  0.9243686919839508  0.9911124667488739  0.5966852161042482  1.0000
  Ag  Ag8       1.0  0.0756310750204747  0.49111279676263564  0.9033148192490047  1.0000
  H   H1        1.0  0.7000226554113456  0.0781278001373593  0.8568200951754721  1.0000
  H   H2        1.0  0.29997680021329404  0.5781272105037587  0.6431808321940693  1.0000
  H   H3        1.0  0.2999747581206338  0.9218733483055317  0.1431805481167245  1.0000
  H   H4        1.0  0.7000257619109577  0.42187303973644674  0.3568198504465201  1.0000
  C   C1        1.0  0.44214820854645626  0.2819929768777598  0.013758827261050002  1.0000
  C   C2        1.0  0.557852184100405  0.7819934655579884  0.4862414312192983  1.0000
  C   C3        1.0  0.5578492049842938  0.7180054769537279  0.9862418160297965  1.0000
  C   C4        1.0  0.44215034566640565  0.21800588647833757  0.5137585986205764  1.0000
  C   C5        1.0  0.6035205384137686  0.1481454646492395  0.8992352742070083  1.0000
  C   C6        1.0  0.3964789486173645  0.6481458062565865  0.6007650704819769  1.0000
  C   C7        1.0  0.3964716618114539  0.851855683792394  0.10076402413582743  1.0000
  C   C8        1.0  0.6035313363963298  0.35185534218908293  0.3992356711823248  1.0000
  S   S1        1.0  0.38436563552270553  0.3587067644031165  0.10910419891112613  1.0000
  S   S2        1.0  0.6156348269852361  0.8587072587915968  0.39089613639429643  1.0000
  S   S3        1.0  0.6156342875907229  0.6412925876325772  0.8908951584540717  1.0000
  S   S4        1.0  0.38436516084267697  0.1412929914480472  0.6091045265718691  1.0000
  S   S5        1.0  0.6595643268185258  0.14594299164447483  0.0110358893314455  1.0000
  S   S6        1.0  0.34043594193143195  0.6459433872143167  0.488964232901516  1.0000
  S   S7        1.0  0.3404432868273092  0.8540572585966191  0.9889628742572044  1.0000
  S   S8        1.0  0.6595640782535173  0.3540568630253986  0.5110370828649168  1.0000
  N   N1        1.0  0.3409329670038518  0.3187331760079247  0.9341068751455595  1.0000
  N   N2        1.0  0.6590666753767211  0.818733623716334  0.5658936403786541  1.0000
  N   N3        1.0  0.6590644465273033  0.6812661760273643  0.06589376814573461  1.0000
  N   N4        1.0  0.34093328009456075  0.1812675247270406  0.4341063697877061  1.0000
  N   N5        1.0  0.4359999094521215  0.2425610165023429  0.8695382972589059  1.0000
  N   N6        1.0  0.5639996312035792  0.7425614362489057  0.6304614891823732  1.0000
  N   N7        1.0  0.5639948974260708  0.7574392337361149  0.13046167355815902  1.0000
  N   N8        1.0  0.4360054728603871  0.257439712195584  0.3695385603328206  1.0000
  Cl  Cl1       1.0  0.8983178945919053  0.0479175928234312  0.22733774197697446  1.0000
  Cl  Cl2       1.0  0.10167967823524295  0.5479169438194731  0.2726616096131735  1.0000
  Cl  Cl3       1.0  0.1016820608789715  0.9520826574161421  0.7726622681889311  1.0000
  Cl  Cl4       1.0  0.8983202772356339  0.4520833064201  0.7273384005527321  1.0000
