data_image0
_chemical_formula_structural       Sr4H28C44N8Cl4O20
_chemical_formula_sum              "Sr4 H28 C44 N8 Cl4 O20"
_cell_length_a       6.648061093
_cell_length_b       12.722615714314486
_cell_length_c       14.299
_cell_angle_alpha    94.68518729910288
_cell_angle_beta     90.0
_cell_angle_gamma    90.0

_space_group_name_H-M_alt    "P 1"
_space_group_IT_number       1

loop_
  _space_group_symop_operation_xyz
  'x, y, z'

loop_
  _atom_site_type_symbol
  _atom_site_label
  _atom_site_symmetry_multiplicity
  _atom_site_fract_x
  _atom_site_fract_y
  _atom_site_fract_z
  _atom_site_occupancy
  Sr  Sr1       1.0  0.059665516674876115  0.667000072671172  0.9685748984907647  1.0000
  Sr  Sr2       1.0  0.5596624260745173  0.8330002941239414  0.031425897451001106  1.0000
  Sr  Sr3       1.0  0.9403373273122213  0.333001223375021  0.03142547544052119  1.0000
  Sr  Sr4       1.0  0.44033891371461215  0.1670002132851636  0.9685744191653  1.0000
  H   H1        1.0  0.430644357798471  0.9991905771158258  0.378446244674123  1.0000
  H   H2        1.0  0.9306487881879664  0.5008082124050972  0.6215544366376733  1.0000
  H   H3        1.0  0.5693479568028366  0.0008107189303672  0.6215548286067616  1.0000
  H   H4        1.0  0.0693525516011704  0.4991915063669126  0.37844442396443867  1.0000
  H   H5        1.0  0.30823272700632043  0.3010417052298706  0.2737149964210559  1.0000
  H   H6        1.0  0.8082251238120508  0.1989573655190426  0.7262840268902195  1.0000
  H   H7        1.0  0.6917746295746952  0.6989572249050511  0.7262810094676553  1.0000
  H   H8        1.0  0.19177621597707886  0.8010431418900622  0.2737162897260887  1.0000
  H   H9        1.0  0.6824591315469705  0.08337944516753738  0.4891193383552305  1.0000
  H   H10       1.0  0.18246222214732916  0.4166180483071926  0.5108802696756811  1.0000
  H   H11       1.0  0.3175316788563691  0.9166218508786557  0.5108824342752669  1.0000
  H   H12       1.0  0.8175346050478896  0.5833800931906339  0.4891170775972569  1.0000
  H   H13       1.0  0.7476510715633395  0.2765214007716565  0.4927588908702347  1.0000
  H   H14       1.0  0.24764814537181937  0.2234760927030734  0.507240717160677  1.0000
  H   H15       1.0  0.252338234642032  0.7234798952745364  0.5072435811098615  1.0000
  H   H16       1.0  0.7523381524376165  0.776521260157665  0.4927530760492544  1.0000
  H   H17       1.0  0.17080167948450511  0.621509907942027  0.7428896683176376  1.0000
  H   H18       1.0  0.6708031014780574  0.8784912474901815  0.25711118493910595  1.0000
  H   H19       1.0  0.8291996603046246  0.378490599467078  0.2571099489490578  1.0000
  H   H20       1.0  0.32919823831107214  0.12150925991892338  0.7428905303763997  1.0000
  H   H21       1.0  0.34107237708563093  0.9484417802585625  0.2163993990764368  1.0000
  H   H22       1.0  0.8410677822873043  0.5515577978994557  0.7836006402007384  1.0000
  H   H23       1.0  0.6589289627034987  0.05155872715054238  0.7836016168894632  1.0000
  H   H24       1.0  0.1589320533038574  0.448441920872554  0.21640031845019086  1.0000
  H   H25       1.0  0.0303171100837503  0.7223150782899523  0.7654259385599288  1.0000
  H   H26       1.0  0.5303200362752777  0.777685288505161  0.23457485738182976  1.0000
  H   H27       1.0  0.9696827255074112  0.2776862177562407  0.2345744353713499  1.0000
  H   H28       1.0  0.469682807711827  0.2223136416297606  0.7654260439541075  1.0000
  C   C1        1.0  0.058719376151799514  0.8831875813718425  0.08719303695615821  1.0000
  C   C2        1.0  0.5587192939473766  0.6168112081490875  0.9128076443556382  1.0000
  C   C3        1.0  0.9412819636373373  0.1168121374001743  0.9128072223451582  1.0000
  C   C4        1.0  0.4412835500397209  0.3831892992600174  0.0871912735614515  1.0000
  C   C5        1.0  0.9369333273062923  0.0697991144467593  0.1653279824420153  1.0000
  C   C6        1.0  0.43692889691680403  0.4302007449392491  0.8346724968834492  1.0000
  C   C7        1.0  0.06306650828486941  0.9302006043252504  0.8346736755585127  1.0000
  C   C8        1.0  0.5630709386743575  0.5697981851956726  0.16532770510288938  1.0000
  C   C9        1.0  0.0565578436690188  0.9790219721301625  0.15334035661975073  1.0000
  C   C10       1.0  0.5565517446727243  0.5209776060278557  0.8466596826574246  1.0000
  C   C11       1.0  0.9434434961201108  0.0209785352789424  0.8466599599965506  1.0000
  C   C12       1.0  0.44344658672046944  0.4790229013812421  0.1533399346092708  1.0000
  C   C13       1.0  0.2007758324311197  0.09763406060180559  0.2544472151879873  1.0000
  C   C14       1.0  0.7007727418307611  0.40236579878420287  0.7455525647878716  1.0000
  C   C15       1.0  0.799225507358017  0.9023672354443945  0.7455531587432986  1.0000
  C   C16       1.0  0.2992316063543116  0.5976347086249021  0.2544484511780354  1.0000
  C   C17       1.0  0.3496357761283876  0.1451951863340142  0.3201997319020364  1.0000
  C   C18       1.0  0.849632685528029  0.35480467305198715  0.6798007474234282  1.0000
  C   C19       1.0  0.6503640594627741  0.8548061097121789  0.6797999426796438  1.0000
  C   C20       1.0  0.1503686542611007  0.6451950457200226  0.3201995118778882  1.0000
  C   C21       1.0  0.45815613866832194  0.08375089323777729  0.3801373121020575  1.0000
  C   C22       1.0  0.9581560564639063  0.416248177511136  0.6198638092580282  1.0000
  C   C23       1.0  0.5418421927248644  0.9162511914455109  0.6198638184938118  1.0000
  C   C24       1.0  0.04184377912725521  0.5837523298979619  0.3801358080086743  1.0000
  C   C25       1.0  0.38671576028490773  0.2539908276960503  0.3222586015942923  1.0000
  C   C26       1.0  0.8867096612886058  0.246009031689951  0.6777411783815666  1.0000
  C   C27       1.0  0.6132885879001649  0.7460096797130547  0.6777396169731986  1.0000
  C   C28       1.0  0.11329017430255563  0.7539914757191468  0.3222584388851288  1.0000
  C   C29       1.0  0.5996996634398999  0.1309500345448527  0.4421450793900803  1.0000
  C   C30       1.0  0.0997012498422905  0.36904824756697246  0.5578559846550206  1.0000
  C   C31       1.0  0.4002926511614079  0.8690504728642523  0.5578559365758196  1.0000
  C   C32       1.0  0.9002970815509033  0.630950682567949  0.4421414199329021  1.0000
  C   C33       1.0  0.5300628184224152  0.2987294212767182  0.38417006939046416  1.0000
  C   C34       1.0  0.030059892230895  0.20126964947220213  0.6158303526200158  1.0000
  C   C35       1.0  0.4699370171687464  0.7012718747694819  0.6158268077928  1.0000
  C   C36       1.0  0.9699399433602665  0.798727703388536  0.3841690353867477  1.0000
  C   C37       1.0  0.6372624951447607  0.23899095021003794  0.4448904092253017  1.0000
  C   C38       1.0  0.1372610731512154  0.2610073319017872  0.5551099554702006  1.0000
  C   C39       1.0  0.36273734044640094  0.7610103458361621  0.5551099647059843  1.0000
  C   C40       1.0  0.8627357540440102  0.7389923868702226  0.4448882057823056  1.0000
  C   C41       1.0  0.7459919412025187  0.09813642242927759  0.11819307513601982  1.0000
  C   C42       1.0  0.24599202340693443  0.4018571278599907  0.8818076450191867  1.0000
  C   C43       1.0  0.2540078943886428  0.9018648736169153  0.881807298795259  1.0000
  C   C44       1.0  0.754010820580163  0.5981410136378358  0.11819319900177308  1.0000
  N   N1        1.0  0.030293042916234508  0.1428182341393338  0.2272533640120429  1.0000
  N   N2        1.0  0.5302869439199328  0.3571816252466745  0.772746415963816  1.0000
  N   N3        1.0  0.9697067926749272  0.857181484632676  0.7727475946388793  1.0000
  N   N4        1.0  0.46971439586919683  0.6428180935253422  0.22725384333750753  1.0000
  N   N5        1.0  0.220019037060311  0.9992544567202657  0.21113149422316013  1.0000
  N   N6        1.0  0.7200174506579275  0.5007466987119429  0.7888686596839847  1.0000
  N   N7        1.0  0.7799838069267866  0.0007468393259343999  0.7888695790577316  1.0000
  N   N8        1.0  0.27998539332917727  0.4992538086971621  0.21113165693231647  1.0000
  Cl  Cl1       1.0  0.5812672215164909  0.4329112906237569  0.3850513193753713  1.0000
  Cl  Cl2       1.0  0.0812597827310597  0.0670869914880612  0.6149490453201237  1.0000
  Cl  Cl3       1.0  0.41873562247061363  0.5670900054224361  0.6149490545559076  1.0000
  Cl  Cl4       1.0  0.918734036068223  0.9329119386468605  0.3850483592677918  1.0000
  O   O1        1.0  0.9263332442122589  0.869563086973919  0.023696394335601695  1.0000
  O   O2        1.0  0.4263333264166818  0.6304341252728207  0.9763069697446483  1.0000
  O   O3        1.0  0.07366959977483842  0.130438209072274  0.9763039795956843  1.0000
  O   O4        1.0  0.5736680133724549  0.3695663821362842  0.023694046221258706  1.0000
  O   O5        1.0  0.20414373168576824  0.8184830625380997  0.09616145798246119  1.0000
  O   O6        1.0  0.7041436494813527  0.6815141497086401  0.9038398080489785  1.0000
  O   O7        1.0  0.7958561039053933  0.1815174448710053  0.90383885863384  1.0000
  O   O8        1.0  0.295859194505752  0.3184847804262816  0.09615969458775452  1.0000
  O   O9        1.0  0.7151814541846306  0.19568057840262298  0.110165751660432  1.0000
  O   O10       1.0  0.2151815363890464  0.3043177037092022  0.8898332143358516  1.0000
  O   O11       1.0  0.2848198856044988  0.8043191403693939  0.8898345076408846  1.0000
  O   O12       1.0  0.7848198034000831  0.6956804377886243  0.1101662309858966  1.0000
  O   O13       1.0  0.6232102777097595  0.0270691795389055  0.08653682977563189  1.0000
  O   O14       1.0  0.12320584732027133  0.4729275252987293  0.9134676163875284  1.0000
  O   O15       1.0  0.37679106207937  0.9729313278701994  0.9134627874910635  1.0000
  O   O16       1.0  0.8768000050627691  0.5270706161990972  0.0865360250318474  1.0000
  O   O17       1.0  0.04435578973702551  0.6440649287674773  0.772661613370559  1.0000
  O   O18       1.0  0.5443557075326028  0.8559346493905409  0.227339125256222  1.0000
  O   O19       1.0  0.955645550052104  0.35593557864162756  0.2273394025953479  1.0000
  O   O20       1.0  0.45564563225652693  0.1440650693814689  0.7726604346954886  1.0000
