data_image0
_chemical_formula_structural       Cu4P4H48C28N4O20
_chemical_formula_sum              "Cu4 P4 H48 C28 N4 O20"
_cell_length_a       7.016273836
_cell_length_b       8.229833409
_cell_length_c       16.8642
_cell_angle_alpha    90.0
_cell_angle_beta     90.0
_cell_angle_gamma    90.0

_space_group_name_H-M_alt    "P 1"
_space_group_IT_number       1

loop_
  _space_group_symop_operation_xyz
  'x, y, z'

loop_
  _atom_site_type_symbol
  _atom_site_label
  _atom_site_symmetry_multiplicity
  _atom_site_fract_x
  _atom_site_fract_y
  _atom_site_fract_z
  _atom_site_occupancy
  Cu  Cu1       1.0  0.7766059488787604  0.07325057143206948  0.0089870850677798  1.0000
  Cu  Cu2       1.0  0.7233939436567881  0.9267514445261114  0.5089858991235872  1.0000
  Cu  Cu3       1.0  0.22339635490817505  0.5732521869568714  0.49101647276479105  1.0000
  Cu  Cu4       1.0  0.2766055096142637  0.4267546893670087  0.991014100876413  1.0000
  P   P1        1.0  0.0695896442203789  0.8231114365683254  0.0437310990144795  1.0000
  P   P2        1.0  0.4304079445282342  0.17689179448127845  0.5437310990144795  1.0000
  P   P3        1.0  0.9304126595665567  0.3231098210435235  0.4562718658459914  1.0000
  P   P4        1.0  0.5695929340007595  0.6768958401889333  0.9562689009855206  1.0000
  H   H1        1.0  0.7879552778618191  0.7599023806679808  0.1165777208524545  1.0000
  H   H2        1.0  0.7120460399316713  0.24009599001592355  0.6165741630198909  1.0000
  H   H3        1.0  0.2120484511830583  0.2599092707831474  0.383423465091731  1.0000
  H   H4        1.0  0.2879534133393805  0.7400915300836104  0.8834240580638308  1.0000
  H   H5        1.0  0.9707474592928664  0.818724956526033  0.1842642995220629  1.0000
  H   H6        1.0  0.5292538585006241  0.1812746292493017  0.6842648924941557  1.0000
  H   H7        1.0  0.029253419236127308  0.3187282013669233  0.3157345145337445  1.0000
  H   H8        1.0  0.4707498705442462  0.6812750296826804  0.8157315496732735  1.0000
  H   H9        1.0  0.08858548205614623  0.12808764741789244  0.12227796159912431  1.0000
  H   H10       1.0  0.4114106814345249  0.8719107232660122  0.6222785545712242  1.0000
  H   H11       1.0  0.9114111206990216  0.6280953383998167  0.3777250032613466  1.0000
  H   H12       1.0  0.5885916223524108  0.3719066775583641  0.8777255962334394  1.0000
  H   H13       1.0  0.9960742929019306  0.09827780950164568  0.2197068345963658  1.0000
  H   H14       1.0  0.5039255996336252  0.9017254215479582  0.7197068345963656  1.0000
  H   H15       1.0  0.0039194593373608  0.5982818552093008  0.2802961302641123  1.0000
  H   H16       1.0  0.4960824051850778  0.401716515474611  0.7802949443199195  1.0000
  H   H17       1.0  0.8567011693812105  0.3440397708298234  0.0946519846776042  1.0000
  H   H18       1.0  0.6433001484122798  0.6559585998540811  0.5946543565659823  1.0000
  H   H19       1.0  0.14329970914778306  0.8440511070860239  0.4053474223503031  1.0000
  H   H20       1.0  0.3566964543428953  0.1559521239635799  0.9053474223503031  1.0000
  H   H21       1.0  0.9844242344933465  0.38891066695223486  0.1807811814376024  1.0000
  H   H22       1.0  0.515567106494558  0.6110877037316698  0.6807817744096951  1.0000
  H   H23       1.0  0.015568092488003104  0.888915927751313  0.3192200045065903  1.0000
  H   H24       1.0  0.4844366225503195  0.1110812278411686  0.8192235623391539  1.0000
  H   H25       1.0  0.6249627797451893  0.436217821380687  0.1951832876744817  1.0000
  H   H26       1.0  0.8750314117585988  0.5637805493032173  0.6951874384791452  1.0000
  H   H27       1.0  0.375030972494102  0.9362255123626182  0.304811968548762  1.0000
  H   H28       1.0  0.1249708920283368  0.0637740734127163  0.8048125615208548  1.0000
  H   H29       1.0  0.7155535997241247  0.2982624165047696  0.2666743753039  1.0000
  H   H30       1.0  0.7844405917796635  0.7017359541791421  0.7666779331364637  1.0000
  H   H31       1.0  0.2844387272572249  0.7982664622124174  0.2333238457798146  1.0000
  H   H32       1.0  0.2155702635549162  0.2017282631972179  0.7333214738914364  1.0000
  H   H33       1.0  0.4287817252177178  0.1786561072295925  0.2168587896253626  1.0000
  H   H34       1.0  0.0712158635309024  0.8213410483628891  0.7168599755695482  1.0000
  H   H35       1.0  0.5712163027953991  0.6786637982115167  0.2831388384862592  1.0000
  H   H36       1.0  0.9287850149980984  0.3213345724723879  0.783136466597881  1.0000
  H   H37       1.0  0.6799292774923558  0.9832276788435265  0.2370334792044702  1.0000
  H   H38       1.0  0.8200677645273162  0.016777982388923397  0.7370334792044702  1.0000
  H   H39       1.0  0.3200644747469354  0.4832284935015777  0.2629671137676226  1.0000
  H   H40       1.0  0.179940240291387  0.516771092273757  0.7629659278234371  1.0000
  H   H41       1.0  0.546784531173195  0.9233710601832641  0.1517350363491872  1.0000
  H   H42       1.0  0.953213936104419  0.0766212350435183  0.6517350363491872  1.0000
  H   H43       1.0  0.4532134968399221  0.4233840257555598  0.3482661495949984  1.0000
  H   H44       1.0  0.0467883676825167  0.5766179902026278  0.8482602198740494  1.0000
  H   H45       1.0  0.3851217987153817  0.8636274450254788  0.0399651332408268  1.0000
  H   H46       1.0  0.11487436477528953  0.13637578602412495  0.5399669121571122  1.0000
  H   H47       1.0  0.6148833555874376  0.3636306898663761  0.4600360527033587  1.0000
  H   H48       1.0  0.8851208127219365  0.6363749713660807  0.9600330878428879  1.0000
  C   C1        1.0  0.9035607999607722  0.8475104723714606  0.1268930634124388  1.0000
  C   C2        1.0  0.5964390925747765  0.1524915435867271  0.6268930634124388  1.0000
  C   C3        1.0  0.09643722805233783  0.347513717212351  0.3731087155038466  1.0000
  C   C4        1.0  0.4035632112121591  0.6524882987458298  0.8731057506433757  1.0000
  C   C5        1.0  0.9590959756263402  0.1343295720653401  0.1582126635120531  1.0000
  C   C6        1.0  0.5409010663933245  0.8656700137099946  0.6582126635120531  1.0000
  C   C7        1.0  0.040899201870885804  0.6343360479558411  0.3417891154042323  1.0000
  C   C8        1.0  0.4591055131674296  0.3656623227280704  0.8417885224321324  1.0000
  C   C9        1.0  0.8769270048199405  0.3054934255717185  0.1564983811861822  1.0000
  C   C10       1.0  0.6230671866838478  0.6945061602036162  0.6565007530745604  1.0000
  C   C11       1.0  0.12307102319316952  0.8054986863707967  0.3435022117859106  1.0000
  C   C12       1.0  0.37693369184514586  0.1945008994045381  0.8435016188138178  1.0000
  C   C13       1.0  0.6904034980997268  0.3158253479538899  0.2027353802730048  1.0000
  C   C14       1.0  0.8095906934040613  0.6841718076385914  0.7027383451334757  1.0000
  C   C15       1.0  0.3095916793975064  0.815833038935821  0.2972634337828026  1.0000
  C   C16       1.0  0.190413035640816  0.1841653317480905  0.7972610618944245  1.0000
  C   C17       1.0  0.5490236113982832  0.1832333566255286  0.1751159260445192  1.0000
  C   C18       1.0  0.950969154847563  0.8167637989669527  0.6751153330724264  1.0000
  C   C19       1.0  0.4509729913568919  0.6832410476074526  0.3248846669275736  1.0000
  C   C20       1.0  0.0490288731655468  0.3167561079850287  0.8248822950391954  1.0000
  C   C21       1.0  0.6437448288898295  0.016050142625672892  0.1751260065701317  1.0000
  C   C22       1.0  0.8562507878719003  0.9839470129668085  0.6751283784585098  1.0000
  C   C23       1.0  0.3562489233494618  0.5160602637904503  0.3248728074856828  1.0000
  C   C24       1.0  0.143752941172977  0.4839368918020313  0.8248698426252046  1.0000
  C   C25       1.0  0.4655148981274736  0.2328686262232438  0.0954744369729994  1.0000
  C   C26       1.0  0.0344926674267256  0.7671273142778148  0.5954774018334703  1.0000
  C   C27       1.0  0.5344973824650482  0.7328738870223218  0.4045225981665297  1.0000
  C   C28       1.0  0.965495383780798  0.2671208383873135  0.9045172614176806  1.0000
  N   N1        1.0  0.8205366743898568  0.012924927481968497  0.1272524045018457  1.0000
  N   N2        1.0  0.6794617928877572  0.9870710130190901  0.6272524045018457  1.0000
  N   N3        1.0  0.1794599283653184  0.5129301882810466  0.37274818847024693  1.0000
  N   N4        1.0  0.3205390856412437  0.48706939749428807  0.8727464095539688  1.0000
  O   O1        1.0  0.3153425951888664  0.3198667420316426  0.0975937192395691  1.0000
  O   O2        1.0  0.18464786727004426  0.6801377041093914  0.5975954981558544  1.0000
  O   O3        1.0  0.6846540075663015  0.8198695726478675  0.4024056877883311  1.0000
  O   O4        1.0  0.8153515860010145  0.18012879803603704  0.9024033158999529  1.0000
  O   O5        1.0  0.545741242360485  0.19675610908833355  0.0298662254954252  1.0000
  O   O6        1.0  0.9542543744012448  0.8032398314127247  0.5298632606349543  1.0000
  O   O7        1.0  0.45425963616850856  0.6967577246131353  0.4701343674766676  1.0000
  O   O8        1.0  0.045739377838046415  0.3032491517107445  0.9701319955882893  1.0000
  O   O9        1.0  0.0052791554129428  0.9475756813584866  0.9819362910781421  1.0000
  O   O10       1.0  0.4947155828197937  0.05242997987397049  0.4819327332455714  1.0000
  O   O11       1.0  0.9947316999216369  0.4475655601937092  0.5180714175590921  1.0000
  O   O12       1.0  0.5052838704512581  0.5524328104901954  0.0180696386428068  1.0000
  O   O13       1.0  0.0595729314120206  0.6481735090975747  0.013826330332896897  1.0000
  O   O14       1.0  0.4404246573365924  0.3518260766777601  0.513828702221275  1.0000
  O   O15       1.0  0.9404250966010894  0.14817310866419578  0.48617307669501025  1.0000
  O   O16       1.0  0.559577646450343  0.8518252620197089  0.9861707048066323  1.0000
  O   O17       1.0  0.2711125655101938  0.8663249479877775  0.0796379312389561  1.0000
  O   O18       1.0  0.2288864484963611  0.1336722076047039  0.5796391171831488  1.0000
  O   O19       1.0  0.7288911635346835  0.3663379135600664  0.4203656265936146  1.0000
  O   O20       1.0  0.7711144300326327  0.6336689627638135  0.9203608828168512  1.0000
