data_image0
_chemical_formula_structural       Zn2H24C34N4O8
_chemical_formula_sum              "Zn2 H24 C34 N4 O8"
_cell_length_a       13.889570282673095
_cell_length_b       14.154224168815771
_cell_length_c       15.245694903203184
_cell_angle_alpha    87.14115010465261
_cell_angle_beta     88.92588589730329
_cell_angle_gamma    85.74985013313714

_space_group_name_H-M_alt    "P 1"
_space_group_IT_number       1

loop_
  _space_group_symop_operation_xyz
  'x, y, z'

loop_
  _atom_site_type_symbol
  _atom_site_label
  _atom_site_symmetry_multiplicity
  _atom_site_fract_x
  _atom_site_fract_y
  _atom_site_fract_z
  _atom_site_occupancy
  Zn  Zn1       1.0  0.512876301981599  0.6034254433603722  0.49558327495437027  1.0000
  Zn  Zn2       1.0  0.49175194432795166  0.395147594065378  0.5110578320008017  1.0000
  H   H1        1.0  0.979060824022177  0.6100377315860969  0.5129274316576939  1.0000
  H   H2        1.0  0.02645298632361198  0.39763876250829366  0.4810296661015059  1.0000
  H   H3        1.0  0.43496325011307846  0.6488242340691314  0.9396714864072422  1.0000
  H   H4        1.0  0.44720171334390085  0.3546682946629645  0.06789544299163451  1.0000
  H   H5        1.0  0.44326884733315075  0.6531395646801316  0.7761674081257013  1.0000
  H   H6        1.0  0.4540836852923815  0.3478892037649644  0.2314371606260934  1.0000
  H   H7        1.0  0.5487717356530906  0.36046084964941366  0.7836307622234102  1.0000
  H   H8        1.0  0.5319252246841015  0.6355004407335232  0.22489229954022247  1.0000
  H   H9        1.0  0.5451563789504801  0.3558721272131394  0.9471248655914691  1.0000
  H   H10       1.0  0.5293714755771998  0.6425655078742452  0.061231699826066695  1.0000
  H   H11       1.0  0.3539337638246991  0.05580981363291931  0.5667539239251483  1.0000
  H   H12       1.0  0.5838311274765856  0.9485594603348491  0.3710025870915672  1.0000
  H   H13       1.0  0.6127340403322987  0.24956970839119208  0.45851095880049547  1.0000
  H   H14       1.0  0.45292359035064317  0.7418077536730224  0.6034964540169199  1.0000
  H   H15       1.0  0.6295672668249633  0.07778427709868649  0.4342447155745078  1.0000
  H   H16       1.0  0.4236681646757033  0.915483017938847  0.6147853667122191  1.0000
  H   H17       1.0  0.2824138176654215  0.18601343922480143  0.6171291841571929  1.0000
  H   H18       1.0  0.31456862605914887  0.2843903929001285  0.7293555347449755  1.0000
  H   H19       1.0  0.2814308610885873  0.3694284744836552  0.6415936492477669  1.0000
  H   H20       1.0  0.4046494075325738  0.3377212999942359  0.6635691559410617  1.0000
  H   H21       1.0  0.6458841171686771  0.8185644938557887  0.3116945836212111  1.0000
  H   H22       1.0  0.7690366032277821  0.7059422105067695  0.35405387865632315  1.0000
  H   H23       1.0  0.6795553056623472  0.6326375998938546  0.3167183609142015  1.0000
  H   H24       1.0  0.6900767249659477  0.6500292911644366  0.43022353770784605  1.0000
  C   C1        1.0  0.4998700987105663  0.5082685744809226  0.6717374297952574  1.0000
  C   C2        1.0  0.5001358286068294  0.48647404919422854  0.3359548517354938  1.0000
  C   C3        1.0  0.520709240504395  0.4207760237133016  0.909984808741534  1.0000
  C   C4        1.0  0.5113406712488312  0.5780952416964668  0.09820071290042158  1.0000
  C   C5        1.0  0.48958113480126997  0.5019119064907471  0.9554832509739627  1.0000
  C   C6        1.0  0.48881711706412273  0.4988443215617267  0.052466931007970195  1.0000
  C   C7        1.0  0.41284242364725526  0.0963545491065645  0.540875581045249  1.0000
  C   C8        1.0  0.5525981864493229  0.9052084292676953  0.42378368660040877  1.0000
  C   C9        1.0  0.4096474315198149  0.19459092326748362  0.556160616568242  1.0000
  C   C10       1.0  0.5706355757973254  0.805322479578628  0.42348851764569423  1.0000
  C   C11       1.0  0.556506835322338  0.20395048992512693  0.4811157277345117  1.0000
  C   C12       1.0  0.48050247026202425  0.790550396050101  0.5531317135211823  1.0000
  C   C13       1.0  0.5648907138857594  0.10831638488996732  0.4665577709168929  1.0000
  C   C14       1.0  0.46301648697533426  0.8872406848040412  0.5583465885166703  1.0000
  C   C15       1.0  0.4909039012117517  0.05163484927382462  0.4978814600690029  1.0000
  C   C16       1.0  0.5003674146522243  0.9474994498716427  0.4915423227137339  1.0000
  C   C17       1.0  0.31731389137382837  0.5424957789142226  0.4992868691529111  1.0000
  C   C18       1.0  0.6886077108028557  0.4638196200266195  0.5058855940359166  1.0000
  C   C19       1.0  0.792990216562984  0.45538191857924903  0.5007492557574551  1.0000
  C   C20       1.0  0.21275534471683236  0.5515339344930014  0.4984339421500223  1.0000
  C   C21       1.0  0.9811905921141599  0.46264329468504434  0.4922018563656607  1.0000
  C   C22       1.0  0.024430775854376877  0.5449748786653786  0.50213148960637  1.0000
  C   C23       1.0  0.12496675345208526  0.5497623979364761  0.49957862940406983  1.0000
  C   C24       1.0  0.880645360084166  0.45788863011448916  0.4960096170269495  1.0000
  C   C25       1.0  0.46145016025161556  0.5856572539394379  0.9058621280328083  1.0000
  C   C26       1.0  0.4676563579600382  0.4160117090863551  0.1018365385974178  1.0000
  C   C27       1.0  0.46508880368336486  0.5882752423553085  0.8144748326546392  1.0000
  C   C28       1.0  0.4706661722821578  0.4119056991516886  0.19311314655074344  1.0000
  C   C29       1.0  0.49624772740486367  0.506999361744171  0.7699502125375233  1.0000
  C   C30       1.0  0.49474130317660314  0.4908027265472655  0.2378415665202454  1.0000
  C   C31       1.0  0.523632658614403  0.4230544557357945  0.8187558957698543  1.0000
  C   C32       1.0  0.5141030951661634  0.5742644536456467  0.18945232571790876  1.0000
  C   C33       1.0  0.3329970890094955  0.3104979860136012  0.6623866233902688  1.0000
  C   C34       1.0  0.6949148883464176  0.6846292783487514  0.364678839697433  1.0000
  N   N1        1.0  0.48121387851502806  0.24824004717871165  0.5247905431440003  1.0000
  N   N2        1.0  0.5327031220462571  0.7484300489066767  0.4876760749557931  1.0000
  N   N3        1.0  0.33337221172312315  0.2324401099078273  0.6035184985804279  1.0000
  N   N4        1.0  0.6273097301234214  0.7685380616255486  0.3574922164462109  1.0000
  O   O1        1.0  0.4851065230867845  0.587826253888565  0.6296527640073535  1.0000
  O   O2        1.0  0.48052610733138557  0.40953422995571037  0.37697071742579874  1.0000
  O   O3        1.0  0.5171466035703813  0.428234627617698  0.637338682816754  1.0000
  O   O4        1.0  0.5250309764648691  0.5609629015319798  0.3708129416920798  1.0000
  O   O5        1.0  0.3623558124076566  0.616164186598269  0.48181384976113145  1.0000
  O   O6        1.0  0.6435215027216895  0.3913782788372232  0.49158101145670935  1.0000
  O   O7        1.0  0.35326624992184447  0.4586448475356378  0.518564190720987  1.0000
  O   O8        1.0  0.651781900531837  0.5459843297101514  0.5239257582070778  1.0000
