data_image0
_chemical_formula_structural       Al2H14C24O12
_chemical_formula_sum              "Al2 H14 C24 O12"
_cell_length_a       6.599757070325539
_cell_length_b       11.042871658378571
_cell_length_c       13.42465803741999
_cell_angle_alpha    72.08975181427289
_cell_angle_beta     71.54988732693906
_cell_angle_gamma    74.09512789963351

_space_group_name_H-M_alt    "P 1"
_space_group_IT_number       1

loop_
  _space_group_symop_operation_xyz
  'x, y, z'

loop_
  _atom_site_type_symbol
  _atom_site_label
  _atom_site_symmetry_multiplicity
  _atom_site_fract_x
  _atom_site_fract_y
  _atom_site_fract_z
  _atom_site_occupancy
  Al  Al1       1.0  0.49457718259695577  0.48998352041992616  0.513840130237938  1.0000
  Al  Al2       1.0  0.9961106546429976  0.4904329810193034  0.5114738963966518  1.0000
  H   H1        1.0  0.22458470429298663  0.6526243519567174  0.4342442584890805  1.0000
  H   H2        1.0  0.7077567435508453  0.39897451277065704  0.6455791884648934  1.0000
  H   H3        1.0  0.15228666708769373  0.2578466862460829  0.35818863413700097  1.0000
  H   H4        1.0  0.033519653826154176  0.16696199485225088  0.24547715277504528  1.0000
  H   H5        1.0  0.44032807830399157  0.7986041509979461  0.34274531229131366  1.0000
  H   H6        1.0  0.18050562667285425  0.9341315473111889  0.23723064862581122  1.0000
  H   H7        1.0  0.6645943015939865  0.43521791860271014  0.20390434393007686  1.0000
  H   H8        1.0  0.2126013892214615  0.588112540937786  0.1844620151775302  1.0000
  H   H9        1.0  0.3489431578643192  0.596315677671072  0.9869436275535154  1.0000
  H   H10       1.0  0.31504829383931104  0.5484476565791995  0.8241415288788051  1.0000
  H   H11       1.0  0.7691898863836854  0.39297596204283275  0.8439761522720988  1.0000
  H   H12       1.0  0.6302961720043428  0.38774038887478907  0.04032524045503292  1.0000
  H   H13       1.0  0.8846454518776738  0.7728060655113467  0.5690322117352481  1.0000
  H   H14       1.0  0.6552715966424645  0.19957033786460707  0.567433514989908  1.0000
  C   C1        1.0  0.8497636220972283  0.508011938179159  0.32178215190320014  1.0000
  C   C2        1.0  0.6526578064021891  0.725358381277104  0.4967199404223239  1.0000
  C   C3        1.0  0.13549973876163074  0.47141414773841467  0.7063612301626067  1.0000
  C   C4        1.0  0.3481562111422178  0.26561592199336553  0.501615814520733  1.0000
  C   C5        1.0  0.44166622022275687  0.13501693337715173  0.48206722818073916  1.0000
  C   C6        1.0  0.35940408468495383  0.08028441454680998  0.420726490710024  1.0000
  C   C7        1.0  0.6166257364944129  0.06137404660005789  0.5265756448893201  1.0000
  C   C8        1.0  0.21230360255849232  0.1563555716125506  0.35726982338863433  1.0000
  C   C9        1.0  0.14581583901130554  0.1049997200581672  0.2937030651801821  1.0000
  C   C10       1.0  0.5952705341588355  0.8675316074132128  0.4790924557831389  1.0000
  C   C11       1.0  0.6913292418622844  0.9260678913079159  0.5264449118954106  1.0000
  C   C12       1.0  0.43901414414033  0.9464314145364199  0.41802580449941473  1.0000
  C   C13       1.0  0.37175433339626107  0.8978494145623017  0.34985431668079076  1.0000
  C   C14       1.0  0.2272648839212224  0.9747375875744949  0.28933367428656726  1.0000
  C   C15       1.0  0.8150446554680074  0.46886294165002357  0.15574392315584626  1.0000
  C   C16       1.0  0.12581793043501216  0.5561892691772031  0.14336311922635767  1.0000
  C   C17       1.0  0.20075650638766254  0.5598316703154539  0.03472985792174653  1.0000
  C   C18       1.0  0.08807588211931257  0.5152262882832234  0.9828038353966948  1.0000
  C   C19       1.0  0.1651652106625363  0.5140409290585382  0.8720847107614278  1.0000
  C   C20       1.0  0.8554874294040148  0.4262532315414731  0.8843656503828259  1.0000
  C   C21       1.0  0.7787796966429922  0.42397572933682426  0.9927277147544873  1.0000
  C   C22       1.0  0.8911561911046061  0.46857868806883823  0.04481160098986692  1.0000
  C   C23       1.0  0.9304653179388039  0.5109127821890026  0.2044951738165893  1.0000
  C   C24       1.0  0.05163600199113463  0.47067412759171384  0.8232801685124544  1.0000
  O   O1        1.0  0.6620997944120078  0.48115723937100796  0.3706578042887046  1.0000
  O   O2        1.0  0.8334178424307479  0.6656744698932756  0.5241596328038939  1.0000
  O   O3        1.0  0.008629989430517031  0.45205166168477023  0.6603973810097372  1.0000
  O   O4        1.0  0.46381185983177886  0.3159071401193998  0.5349092812796459  1.0000
  O   O5        1.0  0.3288373048641801  0.49126185423440216  0.6600090112503453  1.0000
  O   O6        1.0  0.15963757622058242  0.3245947343388806  0.4902107839494294  1.0000
  O   O7        1.0  0.9734909660136352  0.5331884906826048  0.3659863067059988  1.0000
  O   O8        1.0  0.5234800073667499  0.6652963532546607  0.48722544070480495  1.0000
  O   O9        1.0  0.2457367426326086  0.5592709904958325  0.4628137677918931  1.0000
  O   O10       1.0  0.7419940244730653  0.42356180032567886  0.567080618754723  1.0000
  O   O11       1.0  0.8470880917097718  0.863355776928003  0.5787562053752711  1.0000
  O   O12       1.0  0.7193800434962795  0.10437381706087479  0.5761668778371957  1.0000
