data_image0
_chemical_formula_structural       Co2H50C52N10O16
_chemical_formula_sum              "Co2 H50 C52 N10 O16"
_cell_length_a       9.2778629462903
_cell_length_b       10.203135379494576
_cell_length_c       14.335838787678368
_cell_angle_alpha    86.20389484918354
_cell_angle_beta     90.1672218886594
_cell_angle_gamma    74.42445567813867

_space_group_name_H-M_alt    "P 1"
_space_group_IT_number       1

loop_
  _space_group_symop_operation_xyz
  'x, y, z'

loop_
  _atom_site_type_symbol
  _atom_site_label
  _atom_site_symmetry_multiplicity
  _atom_site_fract_x
  _atom_site_fract_y
  _atom_site_fract_z
  _atom_site_occupancy
  Co  Co1       1.0  0.14548904302040458  0.12046507285884903  0.9651352671990665  1.0000
  Co  Co2       1.0  0.8545119522846462  0.8795280605401816  0.0348722681854028  1.0000
  H   H1        1.0  0.425304970738118  0.9619435710001909  0.0648850815224904  1.0000
  H   H2        1.0  0.5746995314074399  0.03804855680187561  0.9351210851236047  1.0000
  H   H3        1.0  0.5400006120440822  0.9211708504295688  0.22359500420973427  1.0000
  H   H4        1.0  0.4600076969012505  0.07883044871739033  0.776409417133344  1.0000
  H   H5        1.0  0.08048152352142074  0.39361069528250436  0.2568377656750158  1.0000
  H   H6        1.0  0.9195158280804918  0.6063908809475151  0.7431583062001366  1.0000
  H   H7        1.0  0.3931977463291432  0.04287239601111279  0.3567235619611537  1.0000
  H   H8        1.0  0.6068058227414639  0.9571413207489813  0.6432734384769175  1.0000
  H   H9        1.0  0.1964484004195768  0.014140850644309902  0.49484509775030006  1.0000
  H   H10       1.0  0.8035500708019826  0.9858606666085591  0.5051530659667165  1.0000
  H   H11       1.0  0.036307188800009285  0.22377665299288907  0.1558889894108475  1.0000
  H   H12       1.0  0.9636913916696128  0.7762207747391728  0.8441100226104226  1.0000
  H   H13       1.0  0.9686355872468009  0.3801439288937872  0.4501671736968902  1.0000
  H   H14       1.0  0.03136471585216332  0.6198698431966961  0.5498284391408673  1.0000
  H   H15       1.0  0.026521758913567308  0.5198399986337706  0.3988095385035066  1.0000
  H   H16       1.0  0.9734687197312296  0.4801739741910397  0.6011805149832341  1.0000
  H   H17       1.0  0.7462748865024337  0.4365447547561204  0.34155417616469924  1.0000
  H   H18       1.0  0.253719361454351  0.5634527177971622  0.6584441495145654  1.0000
  H   H19       1.0  0.8034266614622608  0.5754552731917287  0.2877152711036359  1.0000
  H   H20       1.0  0.19656443887406283  0.4245454113177445  0.7122773640573357  1.0000
  H   H21       1.0  0.7432905360721307  0.5467595720483447  0.4978424296274894  1.0000
  H   H22       1.0  0.25670156136615674  0.45324516037636214  0.5021507507960621  1.0000
  H   H23       1.0  0.7847985998917437  0.6875304565784291  0.4376552378766121  1.0000
  H   H24       1.0  0.21519988769059487  0.3124670927547086  0.5623388862193579  1.0000
  H   H25       1.0  0.5040746717980298  0.5880311257416011  0.412213514993951  1.0000
  H   H26       1.0  0.4959172113106193  0.41197452220652064  0.5877838183183712  1.0000
  H   H27       1.0  0.5423081904069632  0.720002581834365  0.34013003967295674  1.0000
  H   H28       1.0  0.45768477251249345  0.28000305925135643  0.6598672906561092  1.0000
  H   H29       1.0  0.5276666134980772  0.729726074267461  0.5540761336933429  1.0000
  H   H30       1.0  0.4723301369395897  0.2702775588399647  0.4459191663837956  1.0000
  H   H31       1.0  0.5317093676334395  0.8646969381807422  0.4710065281132998  1.0000
  H   H32       1.0  0.46828766039076436  0.13530964309350682  0.5289928483463697  1.0000
  H   H33       1.0  0.2845562784132909  0.8412852232787457  0.4025490658102413  1.0000
  H   H34       1.0  0.7154402709643505  0.15871930798051181  0.5974510854306985  1.0000
  H   H35       1.0  0.28298140589843257  0.7200918949400404  0.49714454439948247  1.0000
  H   H36       1.0  0.7170165437765588  0.27991157496073527  0.5028570371697754  1.0000
  H   H37       1.0  0.2603622201087674  0.9456443004390067  0.8025653566623704  1.0000
  H   H38       1.0  0.7396294457494578  0.0543471157896178  0.1974318049687582  1.0000
  H   H39       1.0  0.9996076298228685  0.133803718454196  0.5567107325900764  1.0000
  H   H40       1.0  0.0003848380892464844  0.8662038405362721  0.4432914121413063  1.0000
  H   H41       1.0  0.8543289351393712  0.3136706251060631  0.6575807402935466  1.0000
  H   H42       1.0  0.14567547703968134  0.6863367715399988  0.34242486299720554  1.0000
  H   H43       1.0  0.9231037764460053  0.30110292616615913  0.8266127281899927  1.0000
  H   H44       1.0  0.0768976975056077  0.698892257247863  0.1733940324131993  1.0000
  H   H45       1.0  0.11598127769406116  0.5837566838057529  0.9798731664259108  1.0000
  H   H46       1.0  0.8840260076100819  0.4162406021691326  0.020129313104511902  1.0000
  H   H47       1.0  0.46652097745594273  0.7625023824491493  0.8838360987908942  1.0000
  H   H48       1.0  0.5334860802489487  0.23749583642074154  0.1161698353532472  1.0000
  H   H49       1.0  0.5041336953865424  0.33734806888091384  0.8495580111707639  1.0000
  H   H50       1.0  0.495864301354949  0.6626441348387644  0.1504467768247935  1.0000
  C   C1        1.0  0.3643597001654513  0.011878166769356801  0.1231722941845703  1.0000
  C   C2        1.0  0.635649121223331  0.9881139335830796  0.8768338605284924  1.0000
  C   C3        1.0  0.4277787093402666  0.9891373771736981  0.21293320486471862  1.0000
  C   C4        1.0  0.5722279982476975  0.010865881483574903  0.7870746373138573  1.0000
  C   C5        1.0  0.34668958327003446  0.055231887891323994  0.2857519344122963  1.0000
  C   C6        1.0  0.6533123917008652  0.9447725743127295  0.7142495984624446  1.0000
  C   C7        1.0  0.2043024639973297  0.1429271952261928  0.2658339327580137  1.0000
  C   C8        1.0  0.795698939439717  0.8570753385639448  0.7341634869726974  1.0000
  C   C9        1.0  0.1477444023256567  0.15817596078628074  0.1741737073607865  1.0000
  C   C10       1.0  0.8522564470136517  0.8418173637001587  0.8258261469982101  1.0000
  C   C11       1.0  0.11729111293816172  0.2200581967518005  0.3414009620953706  1.0000
  C   C12       1.0  0.8827128104158815  0.7799432167026978  0.6585999798055298  1.0000
  C   C13       1.0  0.9665216263842922  0.44335061707636914  0.3849101798267469  1.0000
  C   C14       1.0  0.0334730398829421  0.5566601890445783  0.6150834663698889  1.0000
  C   C15       1.0  0.8053505078488359  0.5142137069353865  0.3542802938000094  1.0000
  C   C16       1.0  0.19464197951521806  0.485785933587188  0.6457130734142424  1.0000
  C   C17       1.0  0.7285154363401034  0.606321768340152  0.4296155944750594  1.0000
  C   C18       1.0  0.2714740626388449  0.39368087567963517  0.5703804615214096  1.0000
  C   C19       1.0  0.5616076807688799  0.6697197125929932  0.411306359475077  1.0000
  C   C20       1.0  0.4383858700452096  0.3302838889869122  0.5886910443769581  1.0000
  C   C21       1.0  0.4920275676961125  0.7723176329807374  0.4825420048970557  1.0000
  C   C22       1.0  0.5079738224713211  0.22768491818097664  0.5174547165586176  1.0000
  C   C23       1.0  0.3213009351892495  0.8106332845100681  0.4755396115024766  1.0000
  C   C24       1.0  0.6786947752464558  0.1893703033450151  0.5244577863830386  1.0000
  C   C25       1.0  0.23319506566536316  0.9039659524202505  0.6243661918037873  1.0000
  C   C26       1.0  0.7667972073690592  0.09603460362573911  0.3756313282992281  1.0000
  C   C27       1.0  0.17169750009527715  0.026531551548075107  0.7681557557797447  1.0000
  C   C28       1.0  0.828299623907384  0.9734709575769499  0.2318437707091334  1.0000
  C   C29       1.0  0.14245063091252058  0.024453929757221708  0.6727988316225363  1.0000
  C   C30       1.0  0.857543560874646  0.9755475628305347  0.3272014388526401  1.0000
  C   C31       1.0  0.02722847868066939  0.13004091065330672  0.6308634088752072  1.0000
  C   C32       1.0  0.9727740974544761  0.8699614946733475  0.3691388957975477  1.0000
  C   C33       1.0  0.9467991583782761  0.23080050783668338  0.6863125610971251  1.0000
  C   C34       1.0  0.053200020164432316  0.7691988135661348  0.31369196061824306  1.0000
  C   C35       1.0  0.9831794159220166  0.22455038546615222  0.7809648128897704  1.0000
  C   C36       1.0  0.016821027130745774  0.7754519988421579  0.2190388942995867  1.0000
  C   C37       1.0  0.30510250056116917  0.44768493835867684  0.9175792558916456  1.0000
  C   C38       1.0  0.6949100919850508  0.5523091219352025  0.0824289081905434  1.0000
  C   C39       1.0  0.22376729214349916  0.574474045022427  0.9467651134257834  1.0000
  C   C40       1.0  0.776237235465949  0.42552136100652416  0.05323186237703938  1.0000
  C   C41       1.0  0.2813614763790966  0.6881515692818356  0.9350127796736771  1.0000
  C   C42       1.0  0.7186437850907339  0.3118416061538909  0.06499195067758731  1.0000
  C   C43       1.0  0.41989893481056123  0.675557850674416  0.8927701369705474  1.0000
  C   C44       1.0  0.580105041621934  0.3244434932937565  0.1072335980305255  1.0000
  C   C45       1.0  0.4948338407472833  0.5499324205876804  0.8608381858535026  1.0000
  C   C46       1.0  0.5051677341193966  0.4500732003419401  0.139157724059416  1.0000
  C   C47       1.0  0.4409382715217234  0.43519460130920623  0.8728885723260477  1.0000
  C   C48       1.0  0.5590743035883889  0.564806739874456  0.1271130439838331  1.0000
  C   C49       1.0  0.24768432805423396  0.3248732677336009  0.9337168342418138  1.0000
  C   C50       1.0  0.7523187308939754  0.6751239240898459  0.0662905451469271  1.0000
  C   C51       1.0  0.1948330168713568  0.8244985722405785  0.9654004566241029  1.0000
  C   C52       1.0  0.805174497107373  0.17549446786926381  0.034609155685942  1.0000
  N   N1        1.0  0.22575811336658091  0.09409706044552732  0.10404300527646629  1.0000
  N   N2        1.0  0.7742551854254527  0.9058981169683381  0.8959609294107195  1.0000
  N   N3        1.0  0.09474742065123108  0.12377253035650437  0.8217347446000147  1.0000
  N   N4        1.0  0.9052487031583071  0.8762298814014361  0.1782689745223678  1.0000
  N   N5        1.0  0.050558620996049804  0.3528044521878613  0.3182076333829754  1.0000
  N   N6        1.0  0.9494379712815967  0.6471960764084983  0.6817898747870075  1.0000
  N   N7        1.0  0.2456903292916906  0.9222509559405906  0.5308248203062574  1.0000
  N   N8        1.0  0.75430596903864  0.0777505924086768  0.46917265110223383  1.0000
  N   N9        1.0  0.6361068347448224  0.5361223087642841  0.8129608565374439  1.0000
  N   N10       1.0  0.36388981679360194  0.4638702492494459  0.1870299689405286  1.0000
  O   O1        1.0  0.3367865697978374  0.2057122015391571  0.9304551571711102  1.0000
  O   O2        1.0  0.6632227658798513  0.7942891602317204  0.06954646808854649  1.0000
  O   O3        1.0  0.10954648080439001  0.34069937504220604  0.9502838754425866  1.0000
  O   O4        1.0  0.8904630520720502  0.659283265941973  0.04973448676609849  1.0000
  O   O5        1.0  0.6723107206811889  0.44659000725295067  0.7561043323729493  1.0000
  O   O6        1.0  0.3276782049184631  0.55339224813995  0.2438938733028948  1.0000
  O   O7        1.0  0.7136337699598837  0.6135810021683099  0.8319805855577158  1.0000
  O   O8        1.0  0.2863654004202019  0.3864137484798249  0.168003174697084  1.0000
  O   O9        1.0  0.06463998352873546  0.8372888126809318  0.99663573090465  1.0000
  O   O10       1.0  0.9353577283685578  0.16271165693827067  0.003363869107197103  1.0000
  O   O11       1.0  0.2584127156068306  0.9208902882298418  0.9567624432147567  1.0000
  O   O12       1.0  0.7416017487960146  0.07909687699581981  0.0432362023472521  1.0000
  O   O13       1.0  0.10937851188990778  0.16389857803175542  0.4208201858896885  1.0000
  O   O14       1.0  0.8906229977040424  0.83610381678573  0.5791828200413675  1.0000
  O   O15       1.0  0.2921612380878358  0.7941953395554792  0.6701311729696187  1.0000
  O   O16       1.0  0.7078264911952772  0.20580222628699119  0.3298650757840633  1.0000
