data_image0
_chemical_formula_structural       Zn2H12C12N4O12
_chemical_formula_sum              "Zn2 H12 C12 N4 O12"
_cell_length_a       6.9286052239821405
_cell_length_b       7.45713312526168
_cell_length_c       9.581191641479569
_cell_angle_alpha    70.53341193400954
_cell_angle_beta     68.89171402200384
_cell_angle_gamma    62.393650929739536

_space_group_name_H-M_alt    "P 1"
_space_group_IT_number       1

loop_
  _space_group_symop_operation_xyz
  'x, y, z'

loop_
  _atom_site_type_symbol
  _atom_site_label
  _atom_site_symmetry_multiplicity
  _atom_site_fract_x
  _atom_site_fract_y
  _atom_site_fract_z
  _atom_site_occupancy
  Zn  Zn1       1.0  0.08175773900082134  0.2498868546497164  0.7501285170620587  1.0000
  Zn  Zn2       1.0  0.9182419512359559  0.7501090791409339  0.24987165500469624  1.0000
  H   H1        1.0  0.6346921377297436  0.570976352136654  0.6747616412741447  1.0000
  H   H2        1.0  0.11999593667723471  0.0715164294025428  0.17470406500075333  1.0000
  H   H3        1.0  0.3653060279731905  0.4290180325630358  0.32523940152749714  1.0000
  H   H4        1.0  0.880006481309394  0.9284779703975444  0.8252942419745319  1.0000
  H   H5        1.0  0.2419303192007549  0.0203238251188651  0.548301357196024  1.0000
  H   H6        1.0  0.18898153823891317  0.5201965958791702  0.04838428736751145  1.0000
  H   H7        1.0  0.7580710098804742  0.9796736510821946  0.45169939020597355  1.0000
  H   H8        1.0  0.8110205423022382  0.47980398097441684  0.9516139173726538  1.0000
  H   H9        1.0  0.11369842316652534  0.2508828134806436  0.46582384433162344  1.0000
  H   H10       1.0  0.16918419424255407  0.7507523037278148  0.9658683602950329  1.0000
  H   H11       1.0  0.8863084213128971  0.7491146699049693  0.5341760139101834  1.0000
  H   H12       1.0  0.8308151585487451  0.24924980711632827  0.034131709536587916  1.0000
  C   C1        1.0  0.40968216096878535  0.4265379342860528  0.7027038167774431  1.0000
  C   C2        1.0  0.4613392380915188  0.9269022760462419  0.20244866434769887  1.0000
  C   C3        1.0  0.5903136582005928  0.5734656917423351  0.29730205576005614  1.0000
  C   C4        1.0  0.5386581329234946  0.07309831242911  0.7975464919382416  1.0000
  C   C5        1.0  0.2217895794439215  0.6110372857439331  0.6398976488212467  1.0000
  C   C6        1.0  0.5278061122971707  0.11140314853328451  0.13970153500942922  1.0000
  C   C7        1.0  0.7782189799060787  0.3889540059917992  0.3601056043919895  1.0000
  C   C8        1.0  0.47219282647967026  0.8885896846048383  0.8603011797191439  1.0000
  C   C9        1.0  0.608136655961907  0.42791550894455094  0.7075684220024169  1.0000
  C   C10       1.0  0.25648140419954046  0.9284075555388185  0.2074561151869501  1.0000
  C   C11       1.0  0.39186002349165966  0.5720850540439458  0.29243211796808294  1.0000
  C   C12       1.0  0.7435166854772604  0.0715945632211756  0.7925421079785121  1.0000
  N   N1        1.0  0.3804808080631475  0.24984895680281485  0.750162247715188  1.0000
  N   N2        1.0  0.619511597492725  0.7501562432993722  0.24983681349289805  1.0000
  N   N3        1.0  0.7738511453028067  0.24971711891840448  0.7500624615580943  1.0000
  N   N4        1.0  0.22614476107684553  0.7502849956316597  0.2499364064854743  1.0000
  O   O1        1.0  0.24460872705147832  0.7789869803131211  0.5848833410432729  1.0000
  O   O2        1.0  0.3922196295798131  0.2794977990339902  0.08489326015795477  1.0000
  O   O3        1.0  0.7553866835898051  0.22101352502112093  0.41512941236648243  1.0000
  O   O4        1.0  0.607776069792614  0.7204996766630671  0.91510693033409  1.0000
  O   O5        1.0  0.05652964461182819  0.572931728456183  0.6437940803827257  1.0000
  O   O6        1.0  0.7273077909009089  0.0730837019853752  0.1434750995635737  1.0000
  O   O7        1.0  0.9434687119706812  0.42707810432248994  0.3562056613569807  1.0000
  O   O8        1.0  0.2726879467560013  0.926921501091435  0.8565237173624279  1.0000
  O   O9        1.0  0.22035344459200729  0.1657455835177331  0.5336834605173733  1.0000
  O   O10       1.0  0.07989785127162453  0.6655245196898038  0.03361771410760633  1.0000
  O   O11       1.0  0.7796550931440009  0.8342503604320797  0.4663155781070996  1.0000
  O   O12       1.0  0.9201017629390268  0.3344791481611439  0.9663796383229619  1.0000
