data_image0
_chemical_formula_structural       Sm4H48C44O36
_chemical_formula_sum              "Sm4 H48 C44 O36"
_cell_length_a       8.81294037045135
_cell_length_b       8.81294459914268
_cell_length_c       19.642169421801682
_cell_angle_alpha    83.00578653590159
_cell_angle_beta     83.00568761623228
_cell_angle_gamma    61.90274042987507

_space_group_name_H-M_alt    "P 1"
_space_group_IT_number       1

loop_
  _space_group_symop_operation_xyz
  'x, y, z'

loop_
  _atom_site_type_symbol
  _atom_site_label
  _atom_site_symmetry_multiplicity
  _atom_site_fract_x
  _atom_site_fract_y
  _atom_site_fract_z
  _atom_site_occupancy
  Sm  Sm1       1.0  0.6203293872867803  0.2651892514036048  0.4594475227746246  1.0000
  Sm  Sm2       1.0  0.7348116127493398  0.379670637382638  0.0405524576361671  1.0000
  Sm  Sm3       1.0  0.37966945150934345  0.7348117349291384  0.5405523529738901  1.0000
  Sm  Sm4       1.0  0.26518722604678413  0.6203303489501051  0.9594474181123476  1.0000
  H   H1        1.0  0.8917448231373866  0.26105570482505397  0.22717974488323733  1.0000
  H   H2        1.0  0.7389404270232447  0.10825947617031056  0.2728211767197096  1.0000
  H   H3        1.0  0.10825750797228302  0.7389427298663164  0.7728200789877278  1.0000
  H   H4        1.0  0.26105613925782495  0.8917414832966056  0.7271793349452766  1.0000
  H   H5        1.0  0.9278615750418311  0.13714273259481044  0.35565563765072744  1.0000
  H   H6        1.0  0.8628553513002399  0.07214050702142319  0.14434473007391094  1.0000
  H   H7        1.0  0.0721390117101708  0.8628569797198861  0.6443452301787718  1.0000
  H   H8        1.0  0.1371440978449102  0.9278591905083782  0.8556556921990081  1.0000
  H   H9        1.0  0.00922874926187238  0.9938022955556814  0.41806773108456957  1.0000
  H   H10       1.0  0.006196642272470968  0.990770629879719  0.08193288838180732  1.0000
  H   H11       1.0  0.9907695631759736  0.006197388090548401  0.5819327546416418  1.0000
  H   H12       1.0  0.9938016710649222  0.0092290546678271  0.9180681063542836  1.0000
  H   H13       1.0  0.16739643893141937  0.19290909313705373  0.3559511345482421  1.0000
  H   H14       1.0  0.8070868183547687  0.8326076340663419  0.14404903701230862  1.0000
  H   H15       1.0  0.8326041460214736  0.8070906173750031  0.6440487152614979  1.0000
  H   H16       1.0  0.192914986396616  0.16738949793851524  0.8559513968363464  1.0000
  H   H17       1.0  0.5301325881086499  0.28055829600489085  0.2096223503958328  1.0000
  H   H18       1.0  0.7194421269230132  0.46986867793353326  0.29037711595909604  1.0000
  H   H19       1.0  0.4698679137530633  0.7194440068979373  0.7903768519216997  1.0000
  H   H20       1.0  0.2805590683788992  0.5301297437755819  0.7096232803750483  1.0000
  H   H21       1.0  0.6848439039929346  0.9131270683180329  0.5359351727650009  1.0000
  H   H22       1.0  0.08687670305447884  0.31515334855636457  0.9640649355743066  1.0000
  H   H23       1.0  0.31515318954597393  0.08687519473672006  0.4640652379321751  1.0000
  H   H24       1.0  0.913122135741645  0.6848476377763716  0.03593494017421512  1.0000
  H   H25       1.0  0.6573453396877795  0.892251856074338  0.4635123519746501  1.0000
  H   H26       1.0  0.10774811333754296  0.34265620783220635  0.0364878127877191  1.0000
  H   H27       1.0  0.34265638197241804  0.10774786832129729  0.5364874343817975  1.0000
  H   H28       1.0  0.8922506432669476  0.6573473717926389  0.9635119244784678  1.0000
  H   H29       1.0  0.09610567674118187  0.2611828004217429  0.1395144929209593  1.0000
  H   H30       1.0  0.7388157035960037  0.9038965375431612  0.3604856899683213  1.0000
  H   H31       1.0  0.9038977910757924  0.738815648153199  0.8604852674967063  1.0000
  H   H32       1.0  0.26118138814379693  0.09610572370894489  0.6395137027090955  1.0000
  H   H33       1.0  0.7675711191589157  0.4548600373088262  0.6618844205081659  1.0000
  H   H34       1.0  0.5451425693570825  0.23242529206994078  0.8381161067843764  1.0000
  H   H35       1.0  0.23243060340083596  0.5451396879881328  0.33811587485816125  1.0000
  H   H36       1.0  0.4548621164592745  0.7675705761951476  0.1618832196524451  1.0000
  H   H37       1.0  0.9418929819442423  0.2454318955666109  0.6525634861312426  1.0000
  H   H38       1.0  0.7545722680186273  0.05810436385130657  0.8474362522256558  1.0000
  H   H39       1.0  0.05810760210910362  0.7545678140441152  0.3474358546686177  1.0000
  H   H40       1.0  0.2454334741125024  0.9418941133921165  0.15256389029530484  1.0000
  H   H41       1.0  0.579343013367051  0.3072245355250657  0.7107267203438214  1.0000
  H   H42       1.0  0.6927727872979688  0.42065858465573297  0.7892733182591132  1.0000
  H   H43       1.0  0.42066045534947  0.6927739139511996  0.289273549083731  1.0000
  H   H44       1.0  0.3072277967553703  0.579341124954993  0.2107260225407473  1.0000
  H   H45       1.0  0.7694338494123087  0.10892733188131126  0.7107561454374719  1.0000
  H   H46       1.0  0.8910722743040012  0.23056770065711865  0.7892436257395374  1.0000
  H   H47       1.0  0.23056961930421246  0.891071117594954  0.28924412399007343  1.0000
  H   H48       1.0  0.10892997461403561  0.7694333273263537  0.21075605964909278  1.0000
  C   C1        1.0  0.45972908614518104  0.22772099114283137  0.3458288272800871  1.0000
  C   C2        1.0  0.772280031735093  0.5402714493455886  0.1541721801241493  1.0000
  C   C3        1.0  0.540268535551107  0.772282576401089  0.6541719914591653  1.0000
  C   C4        1.0  0.2277176703537336  0.4597295231035757  0.8458277590776647  1.0000
  C   C5        1.0  0.3805193401888475  0.31711685780109616  0.0961044893549428  1.0000
  C   C6        1.0  0.6828834583260599  0.6194820091658854  0.40389555650046566  1.0000
  C   C7        1.0  0.6194806353145808  0.6828841424152187  0.9038953229402794  1.0000
  C   C8        1.0  0.31711651717736805  0.3805189910504366  0.5961042557947567  1.0000
  C   C9        1.0  0.2125060059851123  0.21206041219454616  0.3030272253424543  1.0000
  C   C10       1.0  0.7879355494895891  0.7874957427537266  0.19697357110351282  1.0000
  C   C11       1.0  0.7874963251245576  0.7879380224968172  0.696972598528511  1.0000
  C   C12       1.0  0.21206511855449153  0.21250137536754465  0.8030269261984346  1.0000
  C   C13       1.0  0.41645201176195457  0.2614278627593548  0.22090397004383536  1.0000
  C   C14       1.0  0.7385726045595717  0.5835491678113057  0.2790965519413788  1.0000
  C   C15       1.0  0.583549709898243  0.7385718616362735  0.779095816312605  1.0000
  C   C16       1.0  0.26142684548512557  0.4164505306198192  0.7209043793414197  1.0000
  C   C17       1.0  0.3208366756153183  0.2735274400489941  0.16701563792371135  1.0000
  C   C18       1.0  0.7264725225561077  0.6791670408049413  0.3329843028616324  1.0000
  C   C19       1.0  0.6791673194594878  0.7264723121137918  0.8329840215261441  1.0000
  C   C20       1.0  0.27352745294731307  0.3208339594113807  0.6670155094335899  1.0000
  C   C21       1.0  0.1709722349977484  0.25494848729479697  0.180895151147439  1.0000
  C   C22       1.0  0.7450510237592098  0.8290275150930382  0.31910508200106596  1.0000
  C   C23       1.0  0.8290300961119145  0.7450499473965733  0.8191046727235262  1.0000
  C   C24       1.0  0.25494903303629723  0.17097089092985124  0.6808943597666117  1.0000
  C   C25       1.0  0.11749068256919772  0.22373114324053484  0.2489390466579735  1.0000
  C   C26       1.0  0.7762659153549408  0.8825134380492299  0.2510610889767762  1.0000
  C   C27       1.0  0.882512784348222  0.7762673044330836  0.7510602047498198  1.0000
  C   C28       1.0  0.22373353379020242  0.11748625948057168  0.7489393332961427  1.0000
  C   C29       1.0  0.3622708763024249  0.23100962096796704  0.2886700041001263  1.0000
  C   C30       1.0  0.7689932670754375  0.6377302151885614  0.21132887073525106  1.0000
  C   C31       1.0  0.637729179593542  0.7689887841535987  0.7113289286576718  1.0000
  C   C32       1.0  0.23100679061962384  0.3622681917356586  0.7886710800423061  1.0000
  C   C33       1.0  0.7391156394719329  0.3146446922723952  0.5872464148135209  1.0000
  C   C34       1.0  0.6853544101398298  0.2608839309510528  0.9127540900310652  1.0000
  C   C35       1.0  0.26088441822312786  0.6853537146518178  0.41275353596403624  1.0000
  C   C36       1.0  0.3146473124199217  0.739115794345906  0.08724620533525503  1.0000
  C   C37       1.0  0.8008231689966153  0.3211147775146441  0.6546167188948573  1.0000
  C   C38       1.0  0.6788873222847511  0.1991749802293014  0.8453836785239093  1.0000
  C   C39       1.0  0.1991785526635825  0.678884946880984  0.34538306746159014  1.0000
  C   C40       1.0  0.3211155360827506  0.8008247580499057  0.15461604437924592  1.0000
  C   C41       1.0  0.7192479632819725  0.24780480545364714  0.7149546292203866  1.0000
  C   C42       1.0  0.7521955678236194  0.2807518825381549  0.7850457729170517  1.0000
  C   C43       1.0  0.2807531498283141  0.7521962095475698  0.2850456286314227  1.0000
  C   C44       1.0  0.2478061538365849  0.7192478418574805  0.21495401343939596  1.0000
  O   O1        1.0  0.5982511268803634  0.24457766212864834  0.3327100299517554  1.0000
  O   O2        1.0  0.7554230290283214  0.4017508415453717  0.16728934424021705  1.0000
  O   O3        1.0  0.40174710246628825  0.7554246139083529  0.6672898082822486  1.0000
  O   O4        1.0  0.24457361944438116  0.5982475246294355  0.8327113059070967  1.0000
  O   O5        1.0  0.6136702281030182  0.4468438416610778  0.5604873852080418  1.0000
  O   O6        1.0  0.5531559026183713  0.38632826376475277  0.9395137484503667  1.0000
  O   O7        1.0  0.3863297491995112  0.5531571603578838  0.43951344510694673  1.0000
  O   O8        1.0  0.44684293617775245  0.6136727225679903  0.06048612729815521  1.0000
  O   O9        1.0  0.5405378654032164  0.269454260567656  0.0848120336377889  1.0000
  O   O10       1.0  0.7305471422343927  0.45946280790864336  0.4151874033835555  1.0000
  O   O11       1.0  0.45946097069425224  0.730546723061117  0.9151863150810868  1.0000
  O   O12       1.0  0.2694534427185075  0.5405369026034066  0.5848124464261844  1.0000
  O   O13       1.0  0.8073213437616076  0.1732653721190545  0.5574168481635767  1.0000
  O   O14       1.0  0.8267345876943821  0.19267714365986408  0.9425841004457994  1.0000
  O   O15       1.0  0.1926774959340706  0.8267356151150124  0.4425835365948246  1.0000
  O   O16       1.0  0.1732648623503152  0.8073225547712608  0.057416830836999104  1.0000
  O   O17       1.0  0.26630804218027043  0.4057491346393646  0.05299865747949889  1.0000
  O   O18       1.0  0.5942509582062386  0.7336925947579401  0.44700151526142673  1.0000
  O   O19       1.0  0.733690187166388  0.594253141397644  0.9470011807544979  1.0000
  O   O20       1.0  0.4057484909389116  0.2663071027718615  0.5529989070114922  1.0000
  O   O21       1.0  0.9737255140713256  0.20179649698857105  0.264381722364071  1.0000
  O   O22       1.0  0.7982015476524112  0.0262760289239949  0.2356181751183968  1.0000
  O   O23       1.0  0.026275679431492487  0.798201922917897  0.7356176559503069  1.0000
  O   O24       1.0  0.20179501682955697  0.9737249287402673  0.7643813185268301  1.0000
  O   O25       1.0  0.9012422106965373  0.09374557150049156  0.4016599652133693  1.0000
  O   O26       1.0  0.9062529615130046  0.09875773936185789  0.0983404890921307  1.0000
  O   O27       1.0  0.09875723844860573  0.9062541260293099  0.5983404570595496  1.0000
  O   O28       1.0  0.09374535182438858  0.9012419451856883  0.9016605056439675  1.0000
  O   O29       1.0  0.4047910719850875  0.2122088590157317  0.40804929667797313  1.0000
  O   O30       1.0  0.7877932884176603  0.5952101056730182  0.0919501005994334  1.0000
  O   O31       1.0  0.5952034997652051  0.78780115434553  0.5919498074590451  1.0000
  O   O32       1.0  0.21220388641332727  0.40478956318830217  0.9080499395701908  1.0000
  O   O33       1.0  0.6988885041405978  0.9560936977248102  0.4880495735830552  1.0000
  O   O34       1.0  0.04390669194719985  0.3011110955389355  0.011950174589017596  1.0000
  O   O35       1.0  0.3011103337559716  0.043907287706609587  0.51194979315558  1.0000
  O   O36       1.0  0.9560921486480327  0.6988898925964547  0.9880507191792631  1.0000
