data_image0
_chemical_formula_structural       Zn4H44C55O16
_chemical_formula_sum              "Zn4 H44 C55 O16"
_cell_length_a       19.51010532229107
_cell_length_b       19.537986379311963
_cell_length_c       19.529688891229554
_cell_angle_alpha    84.6886514659813
_cell_angle_beta     89.94845744250351
_cell_angle_gamma    85.30951836858763

_space_group_name_H-M_alt    "P 1"
_space_group_IT_number       1

loop_
  _space_group_symop_operation_xyz
  'x, y, z'

loop_
  _atom_site_type_symbol
  _atom_site_label
  _atom_site_symmetry_multiplicity
  _atom_site_fract_x
  _atom_site_fract_y
  _atom_site_fract_z
  _atom_site_occupancy
  Zn  Zn1       1.0  0.44660586805787983  0.44460838342875764  0.5581058429564933  1.0000
  Zn  Zn2       1.0  0.566844011769632  0.44266402098470076  0.4483467309211377  1.0000
  Zn  Zn3       1.0  0.5561416268204978  0.5557278582079163  0.5567226841229171  1.0000
  Zn  Zn4       1.0  0.444883298520196  0.5653624928203982  0.4350762320941542  1.0000
  H   H1        1.0  0.24648883793965834  0.3987806336095047  0.5351984955857816  1.0000
  H   H2        1.0  0.4164875301086184  0.5027145069370887  0.9980173111075672  1.0000
  H   H3        1.0  0.56979824291885  0.5548900996182126  0.8934538281631891  1.0000
  H   H4        1.0  0.7680270382390404  0.5962392791313604  0.5248787271803225  1.0000
  H   H5        1.0  0.6256086721014141  0.4718557753414103  0.1084127700512312  1.0000
  H   H6        1.0  0.5408041893409674  0.7617016975748001  0.5864484782964183  1.0000
  H   H7        1.0  0.5472194156613311  0.23437353115412662  0.4137059168454583  1.0000
  H   H8        1.0  0.4788439667698938  0.23123908516888744  0.6234386127244634  1.0000
  H   H9        1.0  0.5087004489208624  0.9962233881611197  0.5811318814197435  1.0000
  H   H10       1.0  0.4621764969237461  0.9092446131646384  0.3759283740338902  1.0000
  H   H11       1.0  0.5432504063398297  0.1071748331623326  0.41904309597074263  1.0000
  H   H12       1.0  0.9017664355751763  0.3690481576987352  0.5258143968782109  1.0000
  H   H13       1.0  0.4569774818860424  0.7816718496320685  0.38173093311864653  1.0000
  H   H14       1.0  0.4942650529870036  0.009716478288666503  0.42321232159967076  1.0000
  H   H15       1.0  0.5451101921328814  0.8884967771149305  0.5822161226424497  1.0000
  H   H16       1.0  0.7732641297468631  0.3775726516438026  0.5148804242239821  1.0000
  H   H17       1.0  0.10046834431866358  0.5955437307539027  0.41909914901664536  1.0000
  H   H18       1.0  0.2280752354996167  0.5966537597249157  0.4183549820895679  1.0000
  H   H19       1.0  0.9989565040692272  0.5417965906048536  0.44679267091951413  1.0000
  H   H20       1.0  0.11931882295034058  0.3969178216121065  0.5363987595694795  1.0000
  H   H21       1.0  0.406100498674725  0.035987335122939605  0.6913686962686613  1.0000
  H   H22       1.0  0.3919796785272566  0.0526752031386692  0.600925539276581  1.0000
  H   H23       1.0  0.5779886198548921  0.5505563538678685  0.7669763218067518  1.0000
  H   H24       1.0  0.3649641017113794  0.15757834535020268  0.7078091005721986  1.0000
  H   H25       1.0  0.35246027079410414  0.17619163229461074  0.6181479369459596  1.0000
  H   H26       1.0  0.2636093626028213  0.08880301798500767  0.6191987063581338  1.0000
  H   H27       1.0  0.24041406831099005  0.15224948761438378  0.6762321227542785  1.0000
  H   H28       1.0  0.2759764797340551  0.06927823590577728  0.7091704521094044  1.0000
  H   H29       1.0  0.014773005993035302  0.37775970286388366  0.6750728626606063  1.0000
  H   H30       1.0  0.9423185017588696  0.43781028040969255  0.653527053560758  1.0000
  H   H31       1.0  0.0928057222351839  0.47312539954690175  0.6603813958329852  1.0000
  H   H32       1.0  0.022629753845315296  0.532662549633173  0.6346013063167888  1.0000
  H   H33       1.0  0.9687572237076836  0.5121814223283394  0.7520185276382706  1.0000
  H   H34       1.0  0.41100367256014886  0.5482219737380518  0.22640365770296  1.0000
  H   H35       1.0  0.0522497567217641  0.5409244728589969  0.7584813225507006  1.0000
  H   H36       1.0  0.039430904730899385  0.4525592649149671  0.7786576260630653  1.0000
  H   H37       1.0  0.837800530032851  0.6607989501175169  0.584070066216526  1.0000
  H   H38       1.0  0.8377207036765455  0.6815329349268211  0.4924507952576961  1.0000
  H   H39       1.0  0.9091584297050446  0.700220298681799  0.5433615560057206  1.0000
  H   H40       1.0  0.6228820925622571  0.4688262664769168  0.23634743337645153  1.0000
  H   H41       1.0  0.5738667319540978  0.5058139549318809  0.9987746007730324  1.0000
  H   H42       1.0  0.37658199602129366  0.46239328496898924  0.8920555436349673  1.0000
  H   H43       1.0  0.41173890120177237  0.5483473795669981  0.09916990091571172  1.0000
  H   H44       1.0  0.386107891461414  0.45784968518623254  0.7650942172542087  1.0000
  C   C1        1.0  0.5145566658483743  0.5070915682333563  0.3153991163755734  1.0000
  C   C2        1.0  0.025543951031473  0.5027687072074015  0.4832032584928143  1.0000
  C   C3        1.0  0.9845029002906215  0.4680814455530821  0.5277825889902701  1.0000
  C   C4        1.0  0.48950506706911057  0.5005367560718098  0.6829447735919701  1.0000
  C   C5        1.0  0.7640223239652003  0.48783809380501003  0.5184410652567094  1.0000
  C   C6        1.0  0.4831488642037485  0.5030342087951424  0.7586266106679461  1.0000
  C   C7        1.0  0.5346902560058523  0.5304903048330515  0.7952870598542178  1.0000
  C   C8        1.0  0.5299774342477335  0.5322924620239746  0.8659192071185159  1.0000
  C   C9        1.0  0.47343247132514676  0.5069882071604539  0.9023555974881746  1.0000
  C   C10       1.0  0.421071769965323  0.4813609798300859  0.8646955071864257  1.0000
  C   C11       1.0  0.4260800512640443  0.4786539370228837  0.793978747305083  1.0000
  C   C12       1.0  0.1002313621478663  0.4973810353135518  0.48011547237467067  1.0000
  C   C13       1.0  0.45805785506474445  0.53021227600815  0.12886209751185623  1.0000
  C   C14       1.0  0.4572920976480218  0.5304675533251808  0.19985840333892213  1.0000
  C   C15       1.0  0.577066041541741  0.4861794975145272  0.2056568207907716  1.0000
  C   C16       1.0  0.5134122139038126  0.31716337693090674  0.5139018129126781  1.0000
  C   C17       1.0  0.5781912917147807  0.4878148463709593  0.13438274103639714  1.0000
  C   C18       1.0  0.5185861064803561  0.5086689199960899  0.0945518361149951  1.0000
  C   C19       1.0  0.4680875502739994  0.5067461186609349  0.9767815788155972  1.0000
  C   C20       1.0  0.5219578585433595  0.5079131616886909  0.020164700122030903  1.0000
  C   C21       1.0  0.5165451092675467  0.5077913954859596  0.23905841765171232  1.0000
  C   C22       1.0  0.4976207824770711  0.7640407548024087  0.4848449697364429  1.0000
  C   C23       1.0  0.132511090367295  0.5523619998231695  0.44486783339070984  1.0000
  C   C24       1.0  0.5227662203094141  0.7948227084050784  0.5410248278094159  1.0000
  C   C25       1.0  0.5247103193672089  0.8657515759169881  0.5383911686935647  1.0000
  C   C26       1.0  0.5020151959130033  0.9085700211261665  0.47922348349018773  1.0000
  C   C27       1.0  0.47879430073552237  0.8768888154915545  0.42248832277828535  1.0000
  C   C28       1.0  0.4956956161491987  0.6877341219264821  0.4891253980541849  1.0000
  C   C29       1.0  0.47580945367307237  0.8058191766318288  0.42536440174897183  1.0000
  C   C30       1.0  0.5277662036576273  0.1344959056244974  0.46350924390789333  1.0000
  C   C31       1.0  0.5307128130893589  0.20534581683273245  0.4602412244299359  1.0000
  C   C32       1.0  0.4926113624317806  0.204060025081148  0.5785337867504623  1.0000
  C   C33       1.0  0.490527545405449  0.1327604153602095  0.5819459848855572  1.0000
  C   C34       1.0  0.2035885234548402  0.5533171561785862  0.44423028537966763  1.0000
  C   C35       1.0  0.5076510186371623  0.0962209790546638  0.5239641065465221  1.0000
  C   C36       1.0  0.5016322133759984  0.9833501847371835  0.4749153221596174  1.0000
  C   C37       1.0  0.5065415603527724  0.021628281450411242  0.5288362603769486  1.0000
  C   C38       1.0  0.5126496264003109  0.24076827416130436  0.5178163770748087  1.0000
  C   C39       1.0  0.6875152813078457  0.4934170601331757  0.5125475464857701  1.0000
  C   C40       1.0  0.32083411331063866  0.500974290502178  0.48267339649371627  1.0000
  C   C41       1.0  0.24509559401427344  0.4985696196309346  0.4783175426957342  1.0000
  C   C42       1.0  0.2138220690678878  0.44189839997746116  0.5104183691746159  1.0000
  C   C43       1.0  0.14282018762664708  0.4409829500425174  0.5112034519456684  1.0000
  C   C44       1.0  0.4044649049430475  0.0763594320682088  0.6480957114431263  1.0000
  C   C45       1.0  0.8704875473820124  0.5429516370644761  0.5259212620724227  1.0000
  C   C46       1.0  0.3510539878196822  0.1350945862934836  0.6605815612013403  1.0000
  C   C47       1.0  0.27886286156476103  0.10998414858445218  0.6666349221157902  1.0000
  C   C48       1.0  0.9981576429008996  0.42720579608490555  0.6460409045061227  1.0000
  C   C49       1.0  0.03753748652640349  0.4855878082247284  0.6685123637985981  1.0000
  C   C50       1.0  0.0237033303060414  0.49839903743585967  0.7434603625973751  1.0000
  C   C51       1.0  0.8701746536457261  0.6637966614530199  0.5378027151323154  1.0000
  C   C52       1.0  0.7985957348582389  0.5472818442062035  0.5235621003318514  1.0000
  C   C53       1.0  0.8008626671384248  0.4232971410123696  0.5187201221454529  1.0000
  C   C54       1.0  0.8721152094085625  0.4189671874297075  0.5241547515102739  1.0000
  C   C55       1.0  0.9084327168026717  0.47791156158258  0.5259061171651709  1.0000
  O   O1        1.0  0.5036508553907666  0.5027476050172338  0.4985620295415815  1.0000
  O   O2        1.0  0.6607756918829252  0.44499302999884083  0.48504671225751395  1.0000
  O   O3        1.0  0.3470658334270524  0.5533048130436454  0.45178663527689633  1.0000
  O   O4        1.0  0.6549064771801908  0.5460436820834501  0.5353552229054586  1.0000
  O   O5        1.0  0.3541544315316827  0.45059220155353336  0.5181467670777097  1.0000
  O   O6        1.0  0.4738545885374633  0.0976095933182108  0.6436268852486365  1.0000
  O   O7        1.0  0.011690577473736101  0.4157358386671106  0.5747440095946175  1.0000
  O   O8        1.0  0.907565471109564  0.5990034780958949  0.5298721693693764  1.0000
  O   O9        1.0  0.4841389040489119  0.34764753525088565  0.562656441768219  1.0000
  O   O10       1.0  0.4654565363460037  0.6620948966849411  0.4405147563095255  1.0000
  O   O11       1.0  0.5640835455734746  0.4725891680300335  0.34938679022754837  1.0000
  O   O12       1.0  0.5414495053856071  0.5269894482878142  0.6543199769126958  1.0000
  O   O13       1.0  0.4632623999883236  0.5408177074492925  0.34067615602253204  1.0000
  O   O14       1.0  0.44296508853773986  0.47195917576070906  0.6524280804562109  1.0000
  O   O15       1.0  0.5427571235438363  0.3464411706167994  0.4617397247632767  1.0000
  O   O16       1.0  0.5247470585491527  0.6537722732895473  0.5418645511907415  1.0000
