data_image0
_chemical_formula_structural       Na4H24C32N12O8
_chemical_formula_sum              "Na4 H24 C32 N12 O8"
_cell_length_a       3.6871503370092413
_cell_length_b       14.437997829522889
_cell_length_c       16.067258998927787
_cell_angle_alpha    116.96197747777931
_cell_angle_beta     90.00006650214632
_cell_angle_gamma    90.00018913779341

_space_group_name_H-M_alt    "P 1"
_space_group_IT_number       1

loop_
  _space_group_symop_operation_xyz
  'x, y, z'

loop_
  _atom_site_type_symbol
  _atom_site_label
  _atom_site_symmetry_multiplicity
  _atom_site_fract_x
  _atom_site_fract_y
  _atom_site_fract_z
  _atom_site_occupancy
  Na  Na1       1.0  0.7305902876101698  0.5944910310917136  0.23755807737805404  1.0000
  Na  Na2       1.0  0.2305932647072382  0.40550272690494193  0.2624411256424253  1.0000
  Na  Na3       1.0  0.26940231779494894  0.4055095014383596  0.7624423919881593  1.0000
  Na  Na4       1.0  0.7694156133959354  0.5944931374346537  0.7375586727249512  1.0000
  H   H1        1.0  0.1526431719012962  0.5484691584737789  0.5675575243719776  1.0000
  H   H2        1.0  0.6526448184790112  0.45153410094069096  0.9324462548915732  1.0000
  H   H3        1.0  0.8473548577344732  0.45152903420341767  0.4324438519075144  1.0000
  H   H4        1.0  0.3473477869581887  0.5484703112039567  0.0675570514040444  1.0000
  H   H5        1.0  0.7142444432273507  0.8337994862543141  0.7365762885444624  1.0000
  H   H6        1.0  0.21424980632189522  0.1662054182086337  0.7634250695408866  1.0000
  H   H7        1.0  0.2857671469900183  0.16619560389083432  0.2634225697139456  1.0000
  H   H8        1.0  0.7857455112141168  0.83379745993534  0.23657325050142208  1.0000
  H   H9        1.0  0.9451768862529735  0.9430707240646612  0.7441757795766222  1.0000
  H   H10       1.0  0.44517810786273776  0.0569336958929654  0.7558241935667454  1.0000
  H   H11       1.0  0.0548347039717783  0.05692514027661131  0.2558240187917846  1.0000
  H   H12       1.0  0.5548226339189951  0.9430699650844402  0.2441732029670262  1.0000
  H   H13       1.0  0.8969933458972933  0.9950458457859953  0.6220410409844987  1.0000
  H   H14       1.0  0.3970053926997608  0.004958517212941199  0.8779582741555743  1.0000
  H   H15       1.0  0.1030155322321775  0.0049531210940614015  0.37796127540914165  1.0000
  H   H16       1.0  0.6030007733103774  0.9950435953755843  0.1220372421602605  1.0000
  H   H17       1.0  0.7550970809522468  0.9413296987226332  0.4556497690760821  1.0000
  H   H18       1.0  0.2550999326038835  0.0586703293277751  0.0443470342317127  1.0000
  H   H19       1.0  0.2448982365776615  0.05867082805316669  0.5443519427049139  1.0000
  H   H20       1.0  0.7449008091342293  0.9413278978868503  0.9556468875663879  1.0000
  H   H21       1.0  0.4402320037804516  0.772992667391115  0.35918462588649186  1.0000
  H   H22       1.0  0.9402157115835125  0.22700447077448155  0.14081352802718777  1.0000
  H   H23       1.0  0.5597470410347257  0.22700940776683612  0.6408189661082843  1.0000
  H   H24       1.0  0.05978231803526061  0.772992964974456  0.859183180901091  1.0000
  C   C1        1.0  0.267268377544525  0.6274412948323089  0.41318763270989217  1.0000
  C   C2        1.0  0.7672726393290645  0.3725587310677128  0.08681290713558097  1.0000
  C   C3        1.0  0.7327188036132599  0.37255845774231483  0.5868131389579928  1.0000
  C   C4        1.0  0.2327308145681499  0.6274425785432101  0.9131878811379083  1.0000
  C   C5        1.0  0.41213452621929053  0.6883970687273264  0.6043092781051412  1.0000
  C   C6        1.0  0.9121369134589656  0.31160574165469523  0.8956931380303956  1.0000
  C   C7        1.0  0.5878689276548315  0.31160113258717104  0.3956902345558219  1.0000
  C   C8        1.0  0.0878611162050333  0.6883971249790477  0.10430766684041967  1.0000
  C   C9        1.0  0.5066306203625004  0.7595925109574535  0.5665071787436985  1.0000
  C   C10       1.0  0.006640527298870303  0.24041058438412932  0.93349276176356  1.0000
  C   C11       1.0  0.49336740928321643  0.24040723874593084  0.43349421413519446  1.0000
  C   C12       1.0  0.9933629266050872  0.7595922880089389  0.06650680069558486  1.0000
  C   C13       1.0  0.6752846683302565  0.8574369365591678  0.6221627295730625  1.0000
  C   C14       1.0  0.17529032820296922  0.14256713956429218  0.8778389010603007  1.0000
  C   C15       1.0  0.3247160734286966  0.1425612532417304  0.37783926791433936  1.0000
  C   C16       1.0  0.8247131256961779  0.8574357414627157  0.12215879777824055  1.0000
  C   C17       1.0  0.7632499125355138  0.920901655698948  0.5797590182535258  1.0000
  C   C18       1.0  0.2632631230391952  0.0791009841667289  0.9202401781399913  1.0000
  C   C19       1.0  0.2367508292234461  0.07909653410195008  0.4202429792338762  1.0000
  C   C20       1.0  0.736745755094134  0.920901125545498  0.07975595938374612  1.0000
  C   C21       1.0  0.6854929444548719  0.889822481574683  0.4860149601628406  1.0000
  C   C22       1.0  0.185501716854823  0.1101774571538954  0.013982411193374799  1.0000
  C   C23       1.0  0.3144969488261041  0.11017726812364971  0.5139864327129472  1.0000
  C   C24       1.0  0.8145044491428025  0.8898223155783711  0.9860140120336636  1.0000
  C   C25       1.0  0.5158435728455544  0.7954766904469678  0.43140559755011043  1.0000
  C   C26       1.0  0.015848405993772  0.2045222547465571  0.06859256774416879  1.0000
  C   C27       1.0  0.4841408961938641  0.20452305637002147  0.5685964165304753  1.0000
  C   C28       1.0  0.9841604721228736  0.7954767351573293  0.9314047789945191  1.0000
  C   C29       1.0  0.430701624284943  0.7295427623207332  0.4710439494234748  1.0000
  C   C30       1.0  0.9307042854934124  0.2704582436345859  0.02895703414795039  1.0000
  C   C31       1.0  0.5692909811192167  0.2704569845013012  0.5289580646602231  1.0000
  C   C32       1.0  0.06930188051480002  0.7295422975378468  0.971041571602832  1.0000
  N   N1        1.0  0.16799630395309614  0.5665928297751462  0.451319335857626  1.0000
  N   N2        1.0  0.6680011405101497  0.4334093954188559  0.04868394849824396  1.0000
  N   N3        1.0  0.8319935893336493  0.43340769699729254  0.5486823759212953  1.0000
  N   N4        1.0  0.3320050255275788  0.5665942425380948  0.9513184176925478  1.0000
  N   N5        1.0  0.24117251442536516  0.6004942706547141  0.5442187778334853  1.0000
  N   N6        1.0  0.7411763333381814  0.3995083273953667  0.9557835077290092  1.0000
  N   N7        1.0  0.7588228030987665  0.39950547904698647  0.4557826150443701  1.0000
  N   N8        1.0  0.2588244084490086  0.6004945363620776  0.044217918349716  1.0000
  N   N9        1.0  0.7405523315670807  0.8908868638110546  0.7158913664246851  1.0000
  N   N10       1.0  0.24055707664501824  0.10911807620357912  0.784109390546419  1.0000
  N   N11       1.0  0.25945112229869954  0.10910977759927219  0.28410875084374954  1.0000
  N   N12       1.0  0.7594409530225122  0.8908863589682738  0.21588894609632084  1.0000
  O   O1        1.0  0.22399332031200467  0.5939570523889088  0.3241800436691591  1.0000
  O   O2        1.0  0.723995760551823  0.40604135698071525  0.17582168893829925  1.0000
  O   O3        1.0  0.7759965729747477  0.4060434743835302  0.6758216681097622  1.0000
  O   O4        1.0  0.2760131175744434  0.5939576156552989  0.8241793850416032  1.0000
  O   O5        1.0  0.4756500095561337  0.7026622206620416  0.6875556321017485  1.0000
  O   O6        1.0  0.975646356462491  0.29733990016154616  0.8124446500181861  1.0000
  O   O7        1.0  0.524367004897023  0.29733209529034343  0.31244228604872853  1.0000
  O   O8        1.0  0.0243408247119774  0.7026629722214179  0.1875549124347485  1.0000
