data_image0
_chemical_formula_structural       Hf12H100C100O64
_chemical_formula_sum              "Hf12 H100 C100 O64"
_cell_length_a       15.388725579010444
_cell_length_b       17.348733715728017
_cell_length_c       25.503101621157956
_cell_angle_alpha    88.70165015992475
_cell_angle_beta     89.82792985480853
_cell_angle_gamma    64.7389935208755

_space_group_name_H-M_alt    "P 1"
_space_group_IT_number       1

loop_
  _space_group_symop_operation_xyz
  'x, y, z'

loop_
  _atom_site_type_symbol
  _atom_site_label
  _atom_site_symmetry_multiplicity
  _atom_site_fract_x
  _atom_site_fract_y
  _atom_site_fract_z
  _atom_site_occupancy
  Hf  Hf1       1.0  0.9531729162997207  0.10119383404325791  0.966625857393545  1.0000
  Hf  Hf2       1.0  0.0881726603932337  0.81648623825982  0.0459274654470789  1.0000
  Hf  Hf3       1.0  0.8573211937974389  0.9553741854195438  0.9996475366605821  1.0000
  Hf  Hf4       1.0  0.18475978679393287  0.9612122250467864  0.0128525143901825  1.0000
  Hf  Hf5       1.0  0.980481014427937  0.023781059788177593  0.09622245769667609  1.0000
  Hf  Hf6       1.0  0.06322030009612699  0.8939433412514716  0.9183464602798068  1.0000
  Hf  Hf7       1.0  0.09900872977215167  0.8012681328296551  0.4654970316797389  1.0000
  Hf  Hf8       1.0  0.9633392103462767  0.0783167877767923  0.546457483383783  1.0000
  Hf  Hf9       1.0  0.19767022851827679  0.9381457180734927  0.5084754029566838  1.0000
  Hf  Hf10      1.0  0.8646111770912838  0.9423935546989454  0.5020732815883804  1.0000
  Hf  Hf11      1.0  0.0572229716859596  0.8677872947176439  0.5956607077613114  1.0000
  Hf  Hf12      1.0  0.0014081884524515022  0.013102876106323396  0.41822707088262945  1.0000
  H   H1        1.0  0.061105239465312905  0.12480498603229509  0.0483603736853624  1.0000
  H   H2        1.0  0.9230285585915108  0.8908632405041176  0.111000819904028  1.0000
  H   H3        1.0  0.23599319638046268  0.796086402412044  0.9739103119493678  1.0000
  H   H4        1.0  0.876437269465036  0.015384341207514802  0.8976731329068954  1.0000
  H   H5        1.0  0.7916672048695189  0.11911048024558112  0.12499381706307129  1.0000
  H   H6        1.0  0.7529091024106904  0.9459357991156309  0.9177403429514186  1.0000
  H   H7        1.0  0.9840759469847525  0.7958840233450742  0.8740903973102833  1.0000
  H   H8        1.0  0.09834684107949697  0.028703870896770005  0.16869274496419004  1.0000
  H   H9        1.0  0.24887419141308695  0.05856948068164769  0.0643091761688694  1.0000
  H   H10       1.0  0.3090973293228599  0.9561096859104765  0.9405568649585376  1.0000
  H   H11       1.0  0.24677320732678965  0.8872185561791852  0.9100388442620541  1.0000
  H   H12       1.0  0.9460957553920081  0.9809298245139713  0.19208073787990537  1.0000
  H   H13       1.0  0.17676487435954882  0.7217341728928373  0.13132377465651504  1.0000
  H   H14       1.0  0.8958366878473213  0.14922724003302082  0.8613484354369376  1.0000
  H   H15       1.0  0.003111100123838656  0.9512600290734667  0.819750779807947  1.0000
  H   H16       1.0  0.15750721953574495  0.0362087712297381  0.1151868068487047  1.0000
  H   H17       1.0  0.07657582883233262  0.7156587726376883  0.1248375664398225  1.0000
  H   H18       1.0  0.7339321448101115  0.954352490506757  0.0719930951756211  1.0000
  H   H19       1.0  0.7869843196964081  0.03699835132602659  0.09731872376433869  1.0000
  H   H20       1.0  0.18699959732572324  0.9047271495720819  0.8530887934209587  1.0000
  H   H21       1.0  0.8908942246563  0.8766635550654199  0.8985532647984087  1.0000
  H   H22       1.0  0.9919478822206427  0.0583902011760316  0.8599631777975816  1.0000
  H   H23       1.0  0.9789501889085486  0.7747786559421499  0.5406013814332269  1.0000
  H   H24       1.0  0.12076632900201648  0.9938868504172972  0.6175917808429787  1.0000
  H   H25       1.0  0.8248488842593673  0.1090187297833083  0.4671121195740824  1.0000
  H   H26       1.0  0.18735388818586782  0.889722409040118  0.40360171739779815  1.0000
  H   H27       1.0  0.2384802223314253  0.7666800422122719  0.6353872845389077  1.0000
  H   H28       1.0  0.3151599407868277  0.9538249196412635  0.4333649955836023  1.0000
  H   H29       1.0  0.08921305060083987  0.11215076378698541  0.383640172855678  1.0000
  H   H30       1.0  0.9299733562357273  0.8608489774507433  0.6613442772912137  1.0000
  H   H31       1.0  0.7827835705752265  0.8527025812878076  0.5499849300760715  1.0000
  H   H32       1.0  0.7064649094604006  0.03730766817052  0.44638470760087756  1.0000
  H   H33       1.0  0.8834648908199012  0.012107284878702298  0.346039758069807  1.0000
  H   H34       1.0  0.08126663990363177  0.9032121013154962  0.69332833543411  1.0000
  H   H35       1.0  0.8681463212186527  0.16918897570801048  0.6290608573724867  1.0000
  H   H36       1.0  0.16648030914602444  0.7608619100991375  0.3617519331946681  1.0000
  H   H37       1.0  0.0691628403091257  0.9638545240585332  0.3200853892694298  1.0000
  H   H38       1.0  0.8759485708687647  0.8614831575284255  0.604643928650475  1.0000
  H   H39       1.0  0.9694905765380991  0.1749339350250239  0.6261555017852629  1.0000
  H   H40       1.0  0.35600934165955767  0.8389902290419967  0.557635497573898  1.0000
  H   H41       1.0  0.2520409091146546  0.847057439404452  0.6075079235655991  1.0000
  H   H42       1.0  0.816289458706521  0.025375927702519598  0.39946494353588946  1.0000
  H   H43       1.0  0.1784002390142021  0.026209010695481497  0.4083616960977565  1.0000
  H   H44       1.0  0.07366961305322668  0.853999483661589  0.358554116736073  1.0000
  H   H45       1.0  0.5875589959339677  0.7263484195688578  0.35015224661494676  1.0000
  H   H46       1.0  0.6003209981901845  0.5005697642406091  0.43002784721414133  1.0000
  H   H47       1.0  0.4327248725509278  0.5810990030301751  0.4596831196460585  1.0000
  H   H48       1.0  0.42538781567660794  0.8092898463788956  0.3857156495654195  1.0000
  H   H49       1.0  0.7471502285197856  0.5060692245338815  0.47314343477871285  1.0000
  H   H50       1.0  0.8026910309035813  0.41662489748388504  0.3150496860161169  1.0000
  H   H51       1.0  0.8858477551044858  0.2679035643686447  0.3492659770189732  1.0000
  H   H52       1.0  0.8293243530098804  0.3561984407579075  0.5069815430702178  1.0000
  H   H53       1.0  0.904772093238698  0.5292461994601394  0.3600562204457134  1.0000
  H   H54       1.0  0.6553521090927319  0.6984567431059573  0.4439567605402601  1.0000
  H   H55       1.0  0.7437444345224549  0.7796427447511504  0.4722086049993024  1.0000
  H   H56       1.0  0.9946652976966206  0.6099855049145261  0.39084052301087974  1.0000
  H   H57       1.0  0.6149868870249405  0.5129927811020424  0.2097892059948947  1.0000
  H   H58       1.0  0.7886487567125969  0.6523477888588686  0.2076185186507615  1.0000
  H   H59       1.0  0.7924348873928433  0.6487540802332603  0.30319911286949963  1.0000
  H   H60       1.0  0.6192738203078321  0.5089010473030767  0.30601763435076623  1.0000
  H   H61       1.0  0.983873357140268  0.6168670022358356  0.11354150983787288  1.0000
  H   H62       1.0  0.7309510412355138  0.7849270884101003  0.028552468027420702  1.0000
  H   H63       1.0  0.6419202459535708  0.7070153631282778  0.0648672073088079  1.0000
  H   H64       1.0  0.8949450932266674  0.5384138688916521  0.15061094707218808  1.0000
  H   H65       1.0  0.5783974751242623  0.5171890782947415  0.0909894033832472  1.0000
  H   H66       1.0  0.5861669899490424  0.7365879290052817  0.16252436869069703  1.0000
  H   H67       1.0  0.4193700434585848  0.8256272665610139  0.13114678335676902  1.0000
  H   H68       1.0  0.4073674359465044  0.6037929521510604  0.066320353031081  1.0000
  H   H69       1.0  0.8664820975284895  0.2743850059630121  0.1646310762806706  1.0000
  H   H70       1.0  0.7948698715329809  0.37309752737039753  0.007132809453608501  1.0000
  H   H71       1.0  0.7224533217080874  0.5211848046221021  0.0402099977509209  1.0000
  H   H72       1.0  0.7954291952013646  0.42141392441202197  0.19810748007360962  1.0000
  H   H73       1.0  0.3862333709800082  0.38617663977579053  0.549655910990964  1.0000
  H   H74       1.0  0.20390605057536965  0.4540311516422478  0.6854131778685114  1.0000
  H   H75       1.0  0.12875350031688987  0.6048147347866789  0.6535328205557462  1.0000
  H   H76       1.0  0.30320253125140795  0.5351185390331423  0.5155928513615677  1.0000
  H   H77       1.0  0.4061905008249693  0.1444829699329375  0.6412193443428506  1.0000
  H   H78       1.0  0.16039292749474754  0.3783438168359794  0.6008708018307587  1.0000
  H   H79       1.0  0.0742883161390395  0.29488100680188006  0.5701798580891335  1.0000
  H   H80       1.0  0.32257965700318886  0.061650296663323396  0.6060026103067742  1.0000
  H   H81       1.0  0.403930941607058  0.2448596381949031  0.5463616117088463  1.0000
  H   H82       1.0  0.5260072569620102  0.2765202144993922  0.6914736069533447  1.0000
  H   H83       1.0  0.6881586967571136  0.20080096494054797  0.6554873000429637  1.0000
  H   H84       1.0  0.5670963291246666  0.16167374880586743  0.5125207357278753  1.0000
  H   H85       1.0  0.2682406028510441  0.24822393857910194  0.8099258698665108  1.0000
  H   H86       1.0  0.41057327839874336  0.4144818535482385  0.8005842101924968  1.0000
  H   H87       1.0  0.4120244507649033  0.40673447028807885  0.7047627205576675  1.0000
  H   H88       1.0  0.2771836279390243  0.23472467154591206  0.7149927084592632  1.0000
  H   H89       1.0  0.24300501197301821  0.4950898365186304  0.8142468355525594  1.0000
  H   H90       1.0  0.3128146269808311  0.3967609131725424  0.9726090397452722  1.0000
  H   H91       1.0  0.2342821599842894  0.544793910538466  0.005402928273412003  1.0000
  H   H92       1.0  0.1674381103314957  0.641982917206242  0.8472782540338103  1.0000
  H   H93       1.0  0.3966153284326808  0.2103029577956264  0.9487346647246893  1.0000
  H   H94       1.0  0.14611506500592947  0.37692414415760567  0.8603511848783967  1.0000
  H   H95       1.0  0.05758568238453423  0.29540619960315684  0.8946896190154519  1.0000
  H   H96       1.0  0.30898113155096496  0.1293259562452178  0.9815076812348095  1.0000
  H   H97       1.0  0.45728290367353686  0.18147001010370897  0.8514376066200312  1.0000
  H   H98       1.0  0.4582735826513726  0.4021396061679071  0.9248439357956855  1.0000
  H   H99       1.0  0.6288459446001227  0.3175137726126067  0.9508887816252594  1.0000
  H   H100      1.0  0.6227324452020396  0.09502089335107661  0.883291155611765  1.0000
  C   C1        1.0  0.335995094500177  0.3422018404254032  0.8729306097966116  1.0000
  C   C2        1.0  0.3477783229655813  0.31587041846224645  0.6418148178603075  1.0000
  C   C3        1.0  0.7036266009863821  0.5750011260785539  0.1406044081602786  1.0000
  C   C4        1.0  0.7142214195540358  0.5657567262563179  0.3726894608725715  1.0000
  C   C5        1.0  0.8756077241993692  0.2255488420661393  0.0646746063659407  1.0000
  C   C6        1.0  0.13360082009781848  0.1479542120707436  0.9562360319463892  1.0000
  C   C7        1.0  0.7327226489408076  0.1437789200958761  0.9426899297594175  1.0000
  C   C8        1.0  0.9076423142330153  0.7650514858342277  0.052198339448239  1.0000
  C   C9        1.0  0.1527950830438769  0.6914844194108553  0.9478477583500434  1.0000
  C   C10       1.0  0.30781628722667154  0.7765546001472002  0.0733523353413332  1.0000
  C   C11       1.0  0.1658740666254348  0.6695521474885806  0.5639379487946883  1.0000
  C   C12       1.0  0.9192760102850599  0.7584515592306644  0.4478731888465219  1.0000
  C   C13       1.0  0.3238705802693431  0.7546488149631114  0.4502622378775171  1.0000
  C   C14       1.0  0.14772867485583419  0.1208333409208819  0.5633124974871038  1.0000
  C   C15       1.0  0.9090628140409577  0.21279971592600325  0.4498875615218054  1.0000
  C   C16       1.0  0.7359203984830314  0.1225894467176758  0.5605240403270884  1.0000
  C   C17       1.0  0.5547127423612177  0.694669174970116  0.3753304819609227  1.0000
  C   C18       1.0  0.6081397660547054  0.6084088807332576  0.38989775437965324  1.0000
  C   C19       1.0  0.562162742049189  0.5679807645371395  0.4193852597053719  1.0000
  C   C20       1.0  0.4676429496737313  0.6134154728921999  0.43658757260364917  1.0000
  C   C21       1.0  0.4192049628837891  0.7010394496291498  0.4264462750161329  1.0000
  C   C22       1.0  0.463211372280348  0.7411319243726807  0.39475010883655404  1.0000
  C   C23       1.0  0.7761461784082255  0.45377014710675917  0.4457949207797611  1.0000
  C   C24       1.0  0.7659067032560285  0.4720873539737552  0.3915209127500744  1.0000
  C   C25       1.0  0.8074124478480799  0.404307740361574  0.35719562647561537  1.0000
  C   C26       1.0  0.8548034419044084  0.32059730774667367  0.3761647454594836  1.0000
  C   C27       1.0  0.8620411420817149  0.3027722591737501  0.4301358861964317  1.0000
  C   C28       1.0  0.8227182000070811  0.3704045691796694  0.464957853270029  1.0000
  C   C29       1.0  0.8689109532126192  0.5846058160316615  0.3845666154546876  1.0000
  C   C30       1.0  0.7712457098610768  0.611083294478412  0.39692299838281997  1.0000
  C   C31       1.0  0.7290059615269439  0.6787825786926478  0.43113242864365725  1.0000
  C   C32       1.0  0.7789715092764875  0.7241517433043897  0.4478860569274516  1.0000
  C   C33       1.0  0.873735196793049  0.7016473101631887  0.43227905502754277  1.0000
  C   C34       1.0  0.9198435014052391  0.6292710659687515  0.4018300183785399  1.0000
  C   C35       1.0  0.6562059292820307  0.5411894407038886  0.23017391590838798  1.0000
  C   C36       1.0  0.7067422150659793  0.5783362090562038  0.2008500641212336  1.0000
  C   C37       1.0  0.7529411363582239  0.6186507793246535  0.22847616887539596  1.0000
  C   C38       1.0  0.7551249676787108  0.6165702147713645  0.2834178552175999  1.0000
  C   C39       1.0  0.7113189539107906  0.574005200477373  0.3123923264057922  1.0000
  C   C40       1.0  0.658560421951577  0.5389202714221285  0.2845382579834279  1.0000
  C   C41       1.0  0.9083014596260528  0.6371853177464145  0.1035198536208952  1.0000
  C   C42       1.0  0.8616976290481873  0.7087378113162898  0.0703152687100825  1.0000
  C   C43       1.0  0.766196429385921  0.7311966406561937  0.055782480904021284  1.0000
  C   C44       1.0  0.7163917803501079  0.6871162080127107  0.07663675895272348  1.0000
  C   C45       1.0  0.7596511899119205  0.6202208864037573  0.11338451500818539  1.0000
  C   C46       1.0  0.8579621297193256  0.5934045062603062  0.1244316707825064  1.0000
  C   C47       1.0  0.5437470842491622  0.5842591978048334  0.1010004410178595  1.0000
  C   C48       1.0  0.5958424474002156  0.6216007966133218  0.1265284197653216  1.0000
  C   C49       1.0  0.5476679684852571  0.707698648529167  0.140376951865548  1.0000
  C   C50       1.0  0.4541685931885197  0.7574237484850671  0.12384038530896649  1.0000
  C   C51       1.0  0.4037647311680601  0.7202483439255614  0.0961576448772163  1.0000
  C   C52       1.0  0.4475012297305411  0.6329082596962505  0.0868403637845105  1.0000
  C   C53       1.0  0.8334065184577496  0.328969128362985  0.1377083117227471  1.0000
  C   C54       1.0  0.8325959746300523  0.3145256277730795  0.08403992243848532  1.0000
  C   C55       1.0  0.793023561601778  0.3846524465927672  0.0490356893059882  1.0000
  C   C56       1.0  0.7525810267564381  0.46714558280947927  0.0678049478949703  1.0000
  C   C57       1.0  0.7500138539995972  0.4822602516522423  0.12189302116490099  1.0000
  C   C58       1.0  0.7932328240332396  0.41185440830273023  0.1562173718976752  1.0000
  C   C59       1.0  0.3286495591034537  0.43296548689212233  0.5723867811952913  1.0000
  C   C60       1.0  0.30157830219030757  0.40880215099125655  0.6202599912804273  1.0000
  C   C61       1.0  0.22740249365685375  0.47152943972835704  0.6485332676052096  1.0000
  C   C62       1.0  0.18451662061331578  0.5559493557149153  0.6308100531287267  1.0000
  C   C63       1.0  0.21212117772523692  0.5791283570318912  0.5828282518825105  1.0000
  C   C64       1.0  0.2831571958427118  0.5167735370018747  0.5532931350318222  1.0000
  C   C65       1.0  0.33357286056393315  0.17790841776376706  0.6253291627585185  1.0000
  C   C66       1.0  0.2900124004975382  0.2675776722197368  0.6228071149941314  1.0000
  C   C67       1.0  0.19598809254461  0.3089610261441321  0.603294778014174  1.0000
  C   C68       1.0  0.14732058757356725  0.2622538344071685  0.5857425686045232  1.0000
  C   C69       1.0  0.1934655136642859  0.17325579106120154  0.585787978421294  1.0000
  C   C70       1.0  0.28712582378222606  0.1311391069640209  0.606103895147065  1.0000
  C   C71       1.0  0.465885488649782  0.2363655140943308  0.5704435694275602  1.0000
  C   C72       1.0  0.45169591882724797  0.26878912270267813  0.6214121342980121  1.0000
  C   C73       1.0  0.5333658229470044  0.2549964863569515  0.6513166602641575  1.0000
  C   C74       1.0  0.6256807134596301  0.21140985015016867  0.6311789613619041  1.0000
  C   C75       1.0  0.6386692323551485  0.1771467113194021  0.5812269513176246  1.0000
  C   C76       1.0  0.5574697001312144  0.18984537721593853  0.5510834895908303  1.0000
  C   C77       1.0  0.30081483551128235  0.2830865699689581  0.7875401102375574  1.0000
  C   C78       1.0  0.3356996031130208  0.33462265736815056  0.8129253440670751  1.0000
  C   C79       1.0  0.3792867200247514  0.376128432094852  0.7819214968750642  1.0000
  C   C80       1.0  0.3823632855779805  0.369934951257946  0.7277383503726254  1.0000
  C   C81       1.0  0.34611421067233283  0.3187291324329918  0.7020352619724051  1.0000
  C   C82       1.0  0.3063055345407121  0.275031581346127  0.7330404158880838  1.0000
  C   C83       1.0  0.24311695314904108  0.5049514803562971  0.8562062675015695  1.0000
  C   C84       1.0  0.2871350234453374  0.43507286066434847  0.8907912453168905  1.0000
  C   C85       1.0  0.28206399368972507  0.45055914833169913  0.9448930477049656  1.0000
  C   C86       1.0  0.2379359069366345  0.5329584959453869  0.9635006319782136  1.0000
  C   C87       1.0  0.19714108986319445  0.6027301987399413  0.9283358453014614  1.0000
  C   C88       1.0  0.19950650703941603  0.5878309520337839  0.8745949850956904  1.0000
  C   C89       1.0  0.32280258720768973  0.2294391730055878  0.9359475175411234  1.0000
  C   C90       1.0  0.27982911045034337  0.29667488835681166  0.8995477033248704  1.0000
  C   C91       1.0  0.18229034512287967  0.3222521897502872  0.8869062023834359  1.0000
  C   C92       1.0  0.13215313094815428  0.27712456240497835  0.9060950026251149  1.0000
  C   C93       1.0  0.17879484692363687  0.20525016395966134  0.9389993975112745  1.0000
  C   C94       1.0  0.2733840643140723  0.18386851025280748  0.9549214499604446  1.0000
  C   C95       1.0  0.49380954359327217  0.21129438161021594  0.8743282703252149  1.0000
  C   C96       1.0  0.4436379286281849  0.29717923614052916  0.8881997614985834  1.0000
  C   C97       1.0  0.4941237200953024  0.33515560670776506  0.9147247123371611  1.0000
  C   C98       1.0  0.5903008977550425  0.2875341055896286  0.9297678606603341  1.0000
  C   C99       1.0  0.6360703945468558  0.20030950704050102  0.9202518185177411  1.0000
  C   C100      1.0  0.5871414351648524  0.16288059336033467  0.8914900381305058  1.0000
  O   O1        1.0  0.9594782934509495  0.118778958425203  0.8768233425395452  1.0000
  O   O2        1.0  0.8864695763221562  0.2157302669356511  0.0152932013285678  1.0000
  O   O3        1.0  0.7997904048370541  0.1691151930636394  0.9405764487859187  1.0000
  O   O4        1.0  0.19203421008693056  0.07640311185919299  0.9763615597532933  1.0000
  O   O5        1.0  0.7400149781659092  0.07298596212869768  0.961725145125719  1.0000
  O   O6        1.0  0.04339326835840749  0.1723389529814909  0.9501928785504531  1.0000
  O   O7        1.0  0.8994953782283446  0.16517483308885517  0.0992497667086241  1.0000
  O   O8        1.0  0.9060433791451172  0.0434795602557259  0.0232269001102594  1.0000
  O   O9        1.0  0.049252296588299785  0.07744300552123211  0.0364603050917935  1.0000
  O   O10       1.0  0.9180391220876769  0.0002440132803584999  0.9282750907136759  1.0000
  O   O11       1.0  0.0764554263950926  0.9936951397476365  0.9538626511122885  1.0000
  O   O12       1.0  0.28826489817191703  0.9134851136176678  0.9531593272772767  1.0000
  O   O13       1.0  0.8240343387491149  0.0572040402931648  0.12412106655723677  1.0000
  O   O14       1.0  0.10189127267664588  0.9241191122399357  0.06516146263354729  1.0000
  O   O15       1.0  0.9524284193820874  0.9089320581743223  0.0824945684398273  1.0000
  O   O16       1.0  0.9982374231487724  0.868791264972728  0.9848528243579651  1.0000
  O   O17       1.0  0.1744525780084132  0.8418123121027961  0.9827098797958058  1.0000
  O   O18       1.0  0.7507623590750967  0.9977820398279389  0.0565917459168475  1.0000
  O   O19       1.0  0.8523394599909937  0.8351768218852981  0.030189647075026502  1.0000
  O   O20       1.0  0.9974501409993689  0.7415746385486344  0.0615576840297152  1.0000
  O   O21       1.0  0.0409521239579434  0.9647232889879402  0.8453396241135919  1.0000
  O   O22       1.0  0.14823342692006486  0.7009907355340346  0.9974013550438343  1.0000
  O   O23       1.0  0.8129342307037958  0.9073489813096528  0.9342524489155295  1.0000
  O   O24       1.0  0.9554268194473959  0.8578478511032728  0.8754676332580829  1.0000
  O   O25       1.0  0.2074168885069554  0.8663145830048505  0.8838564145076759  1.0000
  O   O26       1.0  0.12347402986802794  0.7522586461965304  0.9133535352962028  1.0000
  O   O27       1.0  0.10664729563001171  0.754610617465104  0.1304199843126455  1.0000
  O   O28       1.0  0.23657276499681498  0.009651232935361497  0.0737363064644256  1.0000
  O   O29       1.0  0.24233017490143274  0.7485869807641237  0.0732741900664067  1.0000
  O   O30       1.0  0.29922853241636455  0.8472441952888231  0.0545727844726187  1.0000
  O   O31       1.0  0.09264244120328867  0.0585991289816121  0.1349946587276492  1.0000
  O   O32       1.0  0.9975050746353914  0.9870588605359245  0.1731202514240593  1.0000
  O   O33       1.0  0.10203637794432302  0.792299521613387  0.37529466828101476  1.0000
  O   O34       1.0  0.1613797658761342  0.6834938041981715  0.5145302953954882  1.0000
  O   O35       1.0  0.2550420801144568  0.7328134579232214  0.4441312800905806  1.0000
  O   O36       1.0  0.860783337179519  0.829907886330723  0.46551168849543956  1.0000
  O   O37       1.0  0.3192561986728821  0.8200755901524701  0.4740201066157823  1.0000
  O   O38       1.0  0.010033653724036591  0.7332660691371516  0.44336238794343796  1.0000
  O   O39       1.0  0.13376499420399302  0.7262328480502448  0.5991309600407035  1.0000
  O   O40       1.0  0.1403269232579021  0.852319885944361  0.5261874856281777  1.0000
  O   O41       1.0  0.994972155128508  0.8214809537221299  0.5308717568605488  1.0000
  O   O42       1.0  0.14355783064426939  0.9027378085441882  0.4329114070469089  1.0000
  O   O43       1.0  0.9793499682327391  0.9119061009136543  0.4487199724417437  1.0000
  O   O44       1.0  0.7693953836640118  0.9937988844605242  0.4375163473205462  1.0000
  O   O45       1.0  0.20906333896031987  0.8285891857949254  0.6323002334326943  1.0000
  O   O46       1.0  0.9416999256682246  0.9718261725514593  0.5610443108723899  1.0000
  O   O47       1.0  0.09363535997525935  0.9798261302546579  0.5869580403082182  1.0000
  O   O48       1.0  0.05972503027798128  0.029147622250270892  0.4890258968790775  1.0000
  O   O49       1.0  0.8848165006790649  0.062060083973122494  0.47782527687791543  1.0000
  O   O50       1.0  0.29687769031444583  0.8844701326240028  0.5698611227636619  1.0000
  O   O51       1.0  0.20428381871131754  0.051198799276534084  0.543598034626342  1.0000
  O   O52       1.0  0.055975289500338504  0.1483544084778217  0.5663064409675229  1.0000
  O   O53       1.0  0.030139673338887084  0.9491804195030652  0.34478252311385654  1.0000
  O   O54       1.0  0.9083710748200173  0.19919390659381972  0.4992931730382821  1.0000
  O   O55       1.0  0.25200247525219055  0.988825137104925  0.44705228019343934  1.0000
  O   O56       1.0  0.11594743021921518  0.050171444215806084  0.3830387027387303  1.0000
  O   O57       1.0  0.860264649215807  0.04767354466962099  0.3768521882445768  1.0000
  O   O58       1.0  0.9452785685702592  0.15498478436240493  0.4155267754874856  1.0000
  O   O59       1.0  0.9382190552997257  0.13626661454846808  0.6300324841086322  1.0000
  O   O60       1.0  0.8018550718072959  0.8966936739709012  0.560477168995476  1.0000
  O   O61       1.0  0.8058759016036346  0.14166723282396276  0.5714354799151167  1.0000
  O   O62       1.0  0.7417135149443935  0.06096954512447179  0.5328586407057188  1.0000
  O   O63       1.0  0.9382603507298838  0.8339248239299195  0.6272360267867682  1.0000
  O   O64       1.0  0.030461805216532533  0.9004699106804779  0.6722084699529844  1.0000
