data_image0
_chemical_formula_structural       K4H24C16S4N12
_chemical_formula_sum              "K4 H24 C16 S4 N12"
_cell_length_a       6.56078315016081
_cell_length_b       6.560952037911309
_cell_length_c       16.20244947245506
_cell_angle_alpha    93.34067777864597
_cell_angle_beta     93.3448685624098
_cell_angle_gamma    90.29359453434822

_space_group_name_H-M_alt    "P 1"
_space_group_IT_number       1

loop_
  _space_group_symop_operation_xyz
  'x, y, z'

loop_
  _atom_site_type_symbol
  _atom_site_label
  _atom_site_symmetry_multiplicity
  _atom_site_fract_x
  _atom_site_fract_y
  _atom_site_fract_z
  _atom_site_occupancy
  K   K1        1.0  0.3099305357342955  0.7374275456656179  0.9280612991791342  1.0000
  K   K2        1.0  0.7625925869547886  0.19010643093017882  0.571945328781986  1.0000
  K   K3        1.0  0.6900908717770522  0.2625652054149299  0.0719376157975162  1.0000
  K   K4        1.0  0.2374349897637416  0.8098909393552488  0.428058768012434  1.0000
  H   H1        1.0  0.8042955831705783  0.5927924690474596  0.8935060903911348  1.0000
  H   H2        1.0  0.9071660686793094  0.695750608609899  0.6064844431837597  1.0000
  H   H3        1.0  0.19570743032412002  0.4071926014231479  0.10648914820030338  1.0000
  H   H4        1.0  0.09282340721586023  0.3042619343687605  0.3935129621873088  1.0000
  H   H5        1.0  0.8051059603027825  0.8670490252158415  0.8945701359714489  1.0000
  H   H6        1.0  0.6328960565606538  0.6949501557173648  0.6054238088639321  1.0000
  H   H7        1.0  0.19490014410039444  0.13293608666457152  0.10543134550066918  1.0000
  H   H8        1.0  0.3670919083703624  0.3050593679977496  0.39457966589441895  1.0000
  H   H9        1.0  0.10229645706640872  0.8925670941723068  0.7128130587723545  1.0000
  H   H10       1.0  0.6074088587315387  0.3977159318442105  0.7871670682937475  1.0000
  H   H11       1.0  0.8977020043377025  0.10742254601931481  0.2871815629587217  1.0000
  H   H12       1.0  0.39258208627521907  0.6022904915463769  0.21282776306656356  1.0000
  H   H13       1.0  0.9759099429677393  0.036675454483670905  0.7915591064363523  1.0000
  H   H14       1.0  0.46327948441870587  0.5241408964278023  0.7084300077531934  1.0000
  H   H15       1.0  0.024103823452662706  0.9633157617097085  0.20844021794390238  1.0000
  H   H16       1.0  0.5367114754929574  0.47586554164747236  0.2915672930539229  1.0000
  H   H17       1.0  0.9736748617027898  0.39893881703167017  0.7887721988159271  1.0000
  H   H18       1.0  0.1010689315606896  0.5263265047669421  0.7112000464169126  1.0000
  H   H19       1.0  0.0263206135142227  0.6010614988112694  0.21122136252070325  1.0000
  H   H20       1.0  0.8989432981990149  0.47367228073301976  0.2887889221773037  1.0000
  H   H21       1.0  0.464309818471598  0.8907933515664012  0.7100367665431405  1.0000
  H   H22       1.0  0.6092286481921292  0.0356566164138243  0.78996523588696  1.0000
  H   H23       1.0  0.5356842970354805  0.1092207729977375  0.2899688032244754  1.0000
  H   H24       1.0  0.3907714317596671  0.9643376653049174  0.2100394026600014  1.0000
  C   C1        1.0  0.8892260512892349  0.7612671340706285  0.07029897717107758  1.0000
  C   C2        1.0  0.7387493129339121  0.6108316292678496  0.429699041467586  1.0000
  C   C3        1.0  0.11078772583281449  0.23872560893586584  0.9297003820081144  1.0000
  C   C4        1.0  0.26125998423694347  0.3891733358810612  0.5703029616544766  1.0000
  C   C5        1.0  0.7993185601693045  0.7251582833202973  0.8547755246807752  1.0000
  C   C6        1.0  0.7748105272409019  0.7007103935985911  0.6452116506640164  1.0000
  C   C7        1.0  0.2006905931997949  0.27482986118621966  0.14522177412099066  1.0000
  C   C8        1.0  0.22517429747664153  0.2992899425127575  0.3547878418668019  1.0000
  C   C9        1.0  0.9702975004840583  0.8955349470869793  0.75160831667867  1.0000
  C   C10       1.0  0.604467011313254  0.5297012114617557  0.7483999181393556  1.0000
  C   C11       1.0  0.029685880251427908  0.10447456590983249  0.24839443682249396  1.0000
  C   C12       1.0  0.3955391903588392  0.4702946101374437  0.2516055110955833  1.0000
  C   C13       1.0  0.9691749816477327  0.5307982196621169  0.7499990082871903  1.0000
  C   C14       1.0  0.0308173925261741  0.4691868820903976  0.25000401358354196  1.0000
  C   C15       1.0  0.6056625222156029  0.8943937887453333  0.7500123491361561  1.0000
  C   C16       1.0  0.39435300607719637  0.105620405417163  0.24999987909411905  1.0000
  S   S1        1.0  0.6450849811755291  0.7644997577025097  0.08676570520449899  1.0000
  S   S2        1.0  0.7355133619570678  0.8549442389195859  0.4132311382370303  1.0000
  S   S3        1.0  0.3548997491352566  0.23548077389249042  0.9132407432804469  1.0000
  S   S4        1.0  0.26449444001860906  0.14506682011919741  0.5867691173638717  1.0000
  N   N1        1.0  0.0670963103828583  0.7591121598017736  0.060373608961469885  1.0000
  N   N2        1.0  0.7409204038568477  0.43293739896005706  0.4396371665166824  1.0000
  N   N3        1.0  0.9328687074868753  0.24089728462359966  0.9396219379789982  1.0000
  N   N4        1.0  0.2591011730628026  0.5670737142606797  0.5603689570260213  1.0000
  N   N5        1.0  0.9806638612606662  0.7195348028597834  0.8045291910086972  1.0000
  N   N6        1.0  0.7804298078940022  0.51936598100896  0.6954537970364782  1.0000
  N   N7        1.0  0.0193361655699036  0.2804624590617379  0.1954631699021334  1.0000
  N   N8        1.0  0.2195657003820202  0.48063588367411814  0.3045435032692936  1.0000
  N   N9        1.0  0.606433589172383  0.718393304924078  0.8028307048712264  1.0000
  N   N10       1.0  0.7815996219809661  0.8935651666974779  0.6971604576205337  1.0000
  N   N11       1.0  0.39356498440555754  0.2816070596710177  0.1971703340694759  1.0000
  N   N12       1.0  0.21839131327819666  0.1064366982808096  0.30283797351314934  1.0000
