data_image0
_chemical_formula_structural       Zn4H12C8S2N16O8
_chemical_formula_sum              "Zn4 H12 C8 S2 N16 O8"
_cell_length_a       7.799084796843141
_cell_length_b       9.641026621517602
_cell_length_c       9.297187770764259
_cell_angle_alpha    94.36341333129978
_cell_angle_beta     110.82916205532217
_cell_angle_gamma    113.6080947024743

_space_group_name_H-M_alt    "P 1"
_space_group_IT_number       1

loop_
  _space_group_symop_operation_xyz
  'x, y, z'

loop_
  _atom_site_type_symbol
  _atom_site_label
  _atom_site_symmetry_multiplicity
  _atom_site_fract_x
  _atom_site_fract_y
  _atom_site_fract_z
  _atom_site_occupancy
  Zn  Zn1       1.0  0.32058299655221845  0.3057267287012095  0.9985083541746886  1.0000
  Zn  Zn2       1.0  0.6794265375264462  0.6942733661270497  0.0014943967966517164  1.0000
  Zn  Zn3       1.0  0.5328474873422239  0.190200351417019  0.47524499133076853  1.0000
  Zn  Zn4       1.0  0.4671535566495708  0.8098005016447233  0.5247611811390839  1.0000
  H   H1        1.0  0.9403176011319662  0.6088346036497967  0.7598741844415285  1.0000
  H   H2        1.0  0.05967781910042911  0.3911682386164587  0.24011818750509656  1.0000
  H   H3        1.0  0.7702868476899171  0.5346111216730236  0.5692663535715636  1.0000
  H   H4        1.0  0.2296967020484219  0.4653858301016245  0.430722162125491  1.0000
  H   H5        1.0  0.1069561664467078  0.9460574236769265  0.8845857899913128  1.0000
  H   H6        1.0  0.8930370392707944  0.0539357691329201  0.11540919706730801  1.0000
  H   H7        1.0  0.8720982963531514  0.8029625118221516  0.7511373170046552  1.0000
  H   H8        1.0  0.12789104575208654  0.1970325231580361  0.24886398615552707  1.0000
  H   H9        1.0  0.25873107297416453  0.1478090608388811  0.6681122866056767  1.0000
  H   H10       1.0  0.7412731896773438  0.8521905392345914  0.33189604298470227  1.0000
  H   H11       1.0  0.9892762123758205  0.3766605998017667  0.7589238630040214  1.0000
  H   H12       1.0  0.010742376314766633  0.623342757128242  0.2410684727374033  1.0000
  C   C1        1.0  0.6385309703240339  0.4738972208031029  0.718078368066507  1.0000
  C   C2        1.0  0.3614723245201363  0.5261063312340682  0.2819234765853551  1.0000
  C   C3        1.0  0.3809389351928375  0.2670543253026523  0.7050884813386631  1.0000
  C   C4        1.0  0.6190640224363336  0.7329490819143984  0.29491538943340595  1.0000
  C   C5        1.0  0.9059882658524431  0.025234697791454205  0.7720977725406327  1.0000
  C   C6        1.0  0.09400795357978355  0.9747641201010352  0.22790209740460196  1.0000
  C   C7        1.0  0.9268578322114253  0.25068200592496487  0.7439356498031343  1.0000
  C   C8        1.0  0.07315781633188594  0.7493189457083957  0.25605645724864695  1.0000
  S   S1        1.0  0.66180826724122  0.24504792933509384  0.21588034842741868  1.0000
  S   S2        1.0  0.33818844340095944  0.7549496436462279  0.7841206701038884  1.0000
  N   N1        1.0  0.44020519655033763  0.3699154410290788  0.8371047249862966  1.0000
  N   N2        1.0  0.5597963532639415  0.630085629262844  0.16289840830324923  1.0000
  N   N3        1.0  0.6045703578440895  0.5040323276390453  0.8460691975197462  1.0000
  N   N4        1.0  0.3954279733104757  0.49596999564113997  0.15393177864928018  1.0000
  N   N5        1.0  0.49915210636209656  0.326158588240169  0.6265252599822587  1.0000
  N   N6        1.0  0.5008453522775228  0.6738424941673885  0.37347636050560595  1.0000
  N   N7        1.0  0.7892843551758306  0.5773232093541196  0.681004107344961  1.0000
  N   N8        1.0  0.2107067024818435  0.4226734285490039  0.31899148619586976  1.0000
  N   N9        1.0  0.03176446299751498  0.18225265798307086  0.8345115147531244  1.0000
  N   N10       1.0  0.9682473219335326  0.8177501358206316  0.16548690840021865  1.0000
  N   N11       1.0  0.7455973713552883  0.1454477796864424  0.6334801507917192  1.0000
  N   N12       1.0  0.25441115082603744  0.85455392614184  0.3665158820258085  1.0000
  N   N13       1.0  0.7293210821193697  0.9997087569329891  0.6502619768656357  1.0000
  N   N14       1.0  0.2706776011150964  0.0002931278482805032  0.34974558193123767  1.0000
  N   N15       1.0  0.9531534501716482  0.9134472624653471  0.8263535573807487  1.0000
  N   N16       1.0  0.046839491898310825  0.08654900531038122  0.17364810999504948  1.0000
  O   O1        1.0  0.4393055433194705  0.1712315110186466  0.09116427466616274  1.0000
  O   O2        1.0  0.5606740987166038  0.8287649419626605  0.908830323917165  1.0000
  O   O3        1.0  0.6654669319484228  0.3321987912388593  0.363703535181493  1.0000
  O   O4        1.0  0.33453289545338566  0.6678085054334133  0.6363114414150741  1.0000
  O   O5        1.0  0.7201115761081314  0.12168363261300641  0.2540627930939934  1.0000
  O   O6        1.0  0.279882626894157  0.8783064870554612  0.7459430998848191  1.0000
  O   O7        1.0  0.7972786144230641  0.3629995066758199  0.16088291597360185  1.0000
  O   O8        1.0  0.20273436562537497  0.637003210679275  0.8391170245070753  1.0000
