data_image0
_chemical_formula_structural       Cu2H20C12S4N8O16
_chemical_formula_sum              "Cu2 H20 C12 S4 N8 O16"
_cell_length_a       7.128211200016631
_cell_length_b       7.330147707305349
_cell_length_c       13.313825732652605
_cell_angle_alpha    90.0034900752818
_cell_angle_beta     90.0020497462014
_cell_angle_gamma    115.03438287557972

_space_group_name_H-M_alt    "P 1"
_space_group_IT_number       1

loop_
  _space_group_symop_operation_xyz
  'x, y, z'

loop_
  _atom_site_type_symbol
  _atom_site_label
  _atom_site_symmetry_multiplicity
  _atom_site_fract_x
  _atom_site_fract_y
  _atom_site_fract_z
  _atom_site_occupancy
  Cu  Cu1       1.0  2.398780907141757e-06  0.49998962548129805  0.4999955620148953  1.0000
  Cu  Cu2       1.0  0.5000025848207132  0.4999971565305613  0.9999955452080798  1.0000
  H   H1        1.0  0.4784330189895271  0.2587624329525297  0.8179398651882722  1.0000
  H   H2        1.0  0.021567523122492018  0.7412542339576261  0.3179643074402065  1.0000
  H   H3        1.0  0.5215622601837143  0.7412319702909544  0.1820569123822153  1.0000
  H   H4        1.0  0.9784321408070867  0.25873725174290024  0.6820459899020719  1.0000
  H   H5        1.0  0.48511970510283225  0.34717480854204297  0.6293502668917483  1.0000
  H   H6        1.0  0.014895888734557113  0.6528724832427242  0.1293700596255931  1.0000
  H   H7        1.0  0.5148725086362589  0.652838981203331  0.37064200438776856  1.0000
  H   H8        1.0  0.9851058726096298  0.3471339877489044  0.8706342292012508  1.0000
  H   H9        1.0  0.49441116731107126  0.8207885932532265  0.8294602120698329  1.0000
  H   H10       1.0  0.005582802806479483  0.17922387076590232  0.3294381024891281  1.0000
  H   H11       1.0  0.5055895753360318  0.17923879326779968  0.17054482820380912  1.0000
  H   H12       1.0  0.9944125194933094  0.8207406307777703  0.6705661855598207  1.0000
  H   H13       1.0  0.8895911875631201  0.11250509752329658  0.5305527642414063  1.0000
  H   H14       1.0  0.6104206458380405  0.8875008709442651  0.0305613446941848  1.0000
  H   H15       1.0  0.11040798760617314  0.8874818939369218  0.469447768733616  1.0000
  H   H16       1.0  0.38957307493678434  0.11249649701252197  0.9694339307144871  1.0000
  H   H17       1.0  0.1313818751826545  0.21536319831331943  0.4960141136905705  1.0000
  H   H18       1.0  0.36861607011615405  0.784610857106763  0.996043886549721  1.0000
  H   H19       1.0  0.8686259215392413  0.7846209431127137  0.5039789083277526  1.0000
  H   H20       1.0  0.6313732667456051  0.21538942939198344  0.0039498866697656  1.0000
  C   C1        1.0  0.4815222946013478  0.44208413393968726  0.6914219180774239  1.0000
  C   C2        1.0  0.01848417391695991  0.5579477673060538  0.1914250141379625  1.0000
  C   C3        1.0  0.5185095282853142  0.5579437599666262  0.3085771137060362  1.0000
  C   C4        1.0  0.9815008735209504  0.44203899311012407  0.8085732654034531  1.0000
  C   C5        1.0  0.49091864739946084  0.636217286250648  0.693990327247171  1.0000
  C   C6        1.0  0.009077853966161242  0.3638238421810199  0.19396933531993452  1.0000
  C   C7        1.0  0.509089884920762  0.3637952739565974  0.30598917548338284  1.0000
  C   C8        1.0  0.9909265849326091  0.6361856600336607  0.8060004030339983  1.0000
  C   C9        1.0  0.4899784810019411  0.6845574928706238  0.7960444558438978  1.0000
  C   C10       1.0  0.01002249627119061  0.31547053948305154  0.2960308422240132  1.0000
  C   C11       1.0  0.5100132879993708  0.31542190199608894  0.203958330228339  1.0000
  C   C12       1.0  0.9899807294038113  0.684549411919292  0.7039749490448272  1.0000
  S   S1        1.0  0.5089389145029061  0.7979738455960117  0.5935277732704165  1.0000
  S   S2        1.0  0.9910637313536841  0.20204977174446265  0.09350731722591381  1.0000
  S   S3        1.0  0.49107371086983426  0.20204177216672994  0.406456236144372  1.0000
  S   S4        1.0  0.00891532140868627  0.7979294136653718  0.9064751890525002  1.0000
  N   N1        1.0  0.47991142032110906  0.5297272441785594  0.8526144848642973  1.0000
  N   N2        1.0  0.020085022377031705  0.47029055454684243  0.35262513042561483  1.0000
  N   N3        1.0  0.5200770359336744  0.4702476120871991  0.1474003186817825  1.0000
  N   N4        1.0  0.9799093857429784  0.529721778799697  0.6474024424984819  1.0000
  N   N5        1.0  0.47425624438611186  0.3848600315661698  0.7878416921938864  1.0000
  N   N6        1.0  0.025751281286098042  0.6151682605142241  0.2878588985793797  1.0000
  N   N7        1.0  0.5257507308532894  0.615155494915328  0.2121550858476766  1.0000
  N   N8        1.0  0.9742460451512687  0.38482767238113524  0.712150647718005  1.0000
  O   O1        1.0  0.7316484277610371  0.8804408509767466  0.5617905892952209  1.0000
  O   O2        1.0  0.768370226397586  0.11959277402648638  0.06174960397476072  1.0000
  O   O3        1.0  0.26830938396527426  0.11952453307071662  0.4382174539104327  1.0000
  O   O4        1.0  0.2316678824468069  0.8804367192882335  0.9382682053679474  1.0000
  O   O5        1.0  0.37444409017352615  0.6721340280444608  0.5139506851284139  1.0000
  O   O6        1.0  0.12557245709990636  0.32790482203562005  0.0139464304905133  1.0000
  O   O7        1.0  0.6255630831764308  0.3278919690245345  0.4860618661710917  1.0000
  O   O8        1.0  0.8744125916028979  0.6720819398790708  0.9860698754248106  1.0000
  O   O9        1.0  0.4560196745368827  0.9532870003308884  0.6349612968919375  1.0000
  O   O10       1.0  0.043969373123346096  0.04675628853433978  0.1349361322031655  1.0000
  O   O11       1.0  0.5439947494173012  0.04670622035749259  0.36503247644282066  1.0000
  O   O12       1.0  0.9560293222596458  0.9532695683348036  0.8650561393435794  1.0000
  O   O13       1.0  0.019925805768416214  0.24079691788693944  0.5312685803983754  1.0000
  O   O14       1.0  0.4801000829629486  0.7592045572755806  0.031288745020880505  1.0000
  O   O15       1.0  0.9800638229025582  0.7591973936382317  0.4687357081064931  1.0000
  O   O16       1.0  0.5199158996004699  0.24078569894925284  0.9687095348713513  1.0000
