data_image0
_chemical_formula_structural       Zn2H28C44N2O8
_chemical_formula_sum              "Zn2 H28 C44 N2 O8"
_cell_length_a       9.392146830389121
_cell_length_b       10.351393147216136
_cell_length_c       11.013233351768529
_cell_angle_alpha    90.29175319326473
_cell_angle_beta     103.89097056562099
_cell_angle_gamma    99.9872687213245

_space_group_name_H-M_alt    "P 1"
_space_group_IT_number       1

loop_
  _space_group_symop_operation_xyz
  'x, y, z'

loop_
  _atom_site_type_symbol
  _atom_site_label
  _atom_site_symmetry_multiplicity
  _atom_site_fract_x
  _atom_site_fract_y
  _atom_site_fract_z
  _atom_site_occupancy
  Zn  Zn1       1.0  0.40198620117867984  0.404208717297095  0.552596961372778  1.0000
  Zn  Zn2       1.0  0.5980103948645095  0.5957918572217977  0.44740121332611693  1.0000
  H   H1        1.0  0.19580569544223175  0.4493897796831519  0.7029858129596603  1.0000
  H   H2        1.0  0.8041932303391163  0.5506107964156114  0.2970173321145565  1.0000
  H   H3        1.0  0.9064786743039264  0.796678915750526  0.5776619886132933  1.0000
  H   H4        1.0  0.09352183907299146  0.2033246272977108  0.4223387607789845  1.0000
  H   H5        1.0  0.042640478976601094  0.6217798995340189  0.5520673071276291  1.0000
  H   H6        1.0  0.9573596817079275  0.3782216757977749  0.4479342611521843  1.0000
  H   H7        1.0  0.3918381753290632  0.1326602835967066  0.6481802992431368  1.0000
  H   H8        1.0  0.6081606441401847  0.8673403070869341  0.3518191932927834  1.0000
  H   H9        1.0  0.05785644979641799  0.3267809993436188  0.8471269376754759  1.0000
  H   H10       1.0  0.9421442935625493  0.6732176324958984  0.15287651785415327  1.0000
  H   H11       1.0  0.35165038162549683  0.907758445398919  0.13508862819587358  1.0000
  H   H12       1.0  0.6483525585815001  0.09224020625157442  0.8649152320362106  1.0000
  H   H13       1.0  0.04527771999405425  0.8866156499447231  0.8171316383193596  1.0000
  H   H14       1.0  0.9547266713293537  0.11338497932769091  0.1828716053764126  1.0000
  H   H15       1.0  0.0811362111643348  0.24095952634356624  0.03874172392566779  1.0000
  H   H16       1.0  0.9188672447922386  0.7590420787046951  0.9612604514078241  1.0000
  H   H17       1.0  0.2625595429158735  0.9957560963107992  0.7878870985315132  1.0000
  H   H18       1.0  0.7374413369222523  0.004243524856263998  0.21211457785248908  1.0000
  H   H19       1.0  0.33953231637434556  0.8870931357755795  0.3877683636307125  1.0000
  H   H20       1.0  0.6604646323612329  0.11290940645974962  0.612228992180647  1.0000
  H   H21       1.0  0.309802324857344  0.07009010220535569  0.27880826224337335  1.0000
  H   H22       1.0  0.6902034378483961  0.9299125156276488  0.7211916255123683  1.0000
  H   H23       1.0  0.2025636874276699  0.0657002877106621  0.4101146382780172  1.0000
  H   H24       1.0  0.797434386309952  0.9343022607839302  0.5898838330191437  1.0000
  H   H25       1.0  0.5662696538477903  0.37886291175627906  0.1232660877305705  1.0000
  H   H26       1.0  0.4337320586340923  0.6211367557784798  0.8767266596589136  1.0000
  H   H27       1.0  0.608567183313319  0.21936426341396503  0.9752528254690205  1.0000
  H   H28       1.0  0.3914261613936958  0.7806313957032885  0.024741056371524926  1.0000
  C   C1        1.0  0.28988852074500215  0.6386778112986561  0.457187573648703  1.0000
  C   C2        1.0  0.710110082511008  0.36132180099610167  0.5428109586291184  1.0000
  C   C3        1.0  0.20822936872855988  0.3491983718626557  0.7268317152207118  1.0000
  C   C4        1.0  0.7917692876835077  0.6508012331396529  0.2731686433262652  1.0000
  C   C5        1.0  0.001142708056867964  0.8198129689179295  0.5355922575072326  1.0000
  C   C6        1.0  0.9988545100479982  0.18019054441384694  0.46440788483135975  1.0000
  C   C7        1.0  0.04146759285706027  0.9465576735799388  0.4940642777664903  1.0000
  C   C8        1.0  0.9585357000423329  0.0534429457869905  0.5059387635780581  1.0000
  C   C9        1.0  0.0782660718432524  0.7195187536265307  0.5216335053912928  1.0000
  C   C10       1.0  0.9217349976300825  0.28048184957564354  0.4783682181162234  1.0000
  C   C11       1.0  0.1999314573629575  0.7425020552074383  0.4670099552083257  1.0000
  C   C12       1.0  0.8000657341638798  0.257501461770552  0.532989273995696  1.0000
  C   C13       1.0  0.3166753489445568  0.1713431247187174  0.6944876744898636  1.0000
  C   C14       1.0  0.6833266293175837  0.8286565063538378  0.3055142042453625  1.0000
  C   C15       1.0  0.4857408532528494  0.0487518756977181  0.043051735696337794  1.0000
  C   C16       1.0  0.5142557299811372  0.9512428128697863  0.9569472717472394  1.0000
  C   C17       1.0  0.0717693802357076  0.0734999149347999  0.9167452290659384  1.0000
  C   C18       1.0  0.9282348214524914  0.9264997323025094  0.08325796750632013  1.0000
  C   C19       1.0  0.1490775167375702  0.1498481664084323  0.8314719199045086  1.0000
  C   C20       1.0  0.8509257495837943  0.8501524566047177  0.16853020830546228  1.0000
  C   C21       1.0  0.4212697742563236  0.3317385446786004  0.3075518202797127  1.0000
  C   C22       1.0  0.5787295481532908  0.6682591134514266  0.6924468201023046  1.0000
  C   C23       1.0  0.435428892796729  0.23503847541508088  0.2113599730444093  1.0000
  C   C24       1.0  0.5645729525752827  0.7649611738885796  0.7886373400179492  1.0000
  C   C25       1.0  0.13274361243442456  0.28029098829296817  0.8069325594139584  1.0000
  C   C26       1.0  0.8672597070429902  0.7197096274277398  0.19307139506516077  1.0000
  C   C27       1.0  0.40019739562706036  0.010458564598153  0.13015674916761097  1.0000
  C   C28       1.0  0.5997977227216964  0.9895400359450263  0.8698411289330182  1.0000
  C   C29       1.0  0.02788138541377098  0.9365072745698202  0.8984212790460119  1.0000
  C   C30       1.0  0.9721213385799955  0.06349039869178338  0.10158162092798047  1.0000
  C   C31       1.0  0.04254793826348189  0.13563397970042246  0.019660836865270398  1.0000
  C   C32       1.0  0.9574564796379477  0.86436664592577  0.9803433199650798  1.0000
  C   C33       1.0  0.24350726519789845  0.095749696986708  0.7723089557309918  1.0000
  C   C34       1.0  0.7564947130642423  0.9042499340858469  0.2276929230042413  1.0000
  C   C35       1.0  0.24277601525511724  0.8687446349087791  0.42763085269558576  1.0000
  C   C36       1.0  0.7572213393289076  0.13125986775054338  0.5723675104973793  1.0000
  C   C37       1.0  0.3756868956258471  0.10170187084115406  0.2122439052735601  1.0000
  C   C38       1.0  0.6243174425415106  0.898298765723709  0.787757512153064  1.0000
  C   C39       1.0  0.16502668243720112  0.9684012838083903  0.4404591420266114  1.0000
  C   C40       1.0  0.8349705090896364  0.031602233169600404  0.5595400871774103  1.0000
  C   C41       1.0  0.5191595623971351  0.27507218242956805  0.12417173944474058  1.0000
  C   C42       1.0  0.4808372140610828  0.7249244957316917  0.8758209703038559  1.0000
  C   C43       1.0  0.5433403392093012  0.1839281547084042  0.041726286906296664  1.0000
  C   C44       1.0  0.4566552555018006  0.8160675169273829  0.9582698259058516  1.0000
  N   N1        1.0  0.29906080951365505  0.29578884525623284  0.6713982333880395  1.0000
  N   N2        1.0  0.7009380631116429  0.7042117381349726  0.3286030854170292  1.0000
  O   O1        1.0  0.40570029686994497  0.6735311905222332  0.4158050074506221  1.0000
  O   O2        1.0  0.5942990915049292  0.32647234626674043  0.5841946264558544  1.0000
  O   O3        1.0  0.2480409573414164  0.5249257822185172  0.4943705050046531  1.0000
  O   O4        1.0  0.7519580783410618  0.4750757868540135  0.5056299477893589  1.0000
  O   O5        1.0  0.49528861152715825  0.4469311348806145  0.3087256160386218  1.0000
  O   O6        1.0  0.50471362688409  0.5530645888956514  0.6912735371500317  1.0000
  O   O7        1.0  0.3424511345015162  0.2914760494234869  0.3845431954447278  1.0000
  O   O8        1.0  0.657548134752048  0.7085216159989755  0.6154536186681341  1.0000
