data_image0
_chemical_formula_structural       Al2H18C24O12
_chemical_formula_sum              "Al2 H18 C24 O12"
_cell_length_a       6.7093062952054865
_cell_length_b       11.080947450076549
_cell_length_c       15.308342160374348
_cell_angle_alpha    81.85866443543395
_cell_angle_beta     78.09914419041793
_cell_angle_gamma    73.04419229779981

_space_group_name_H-M_alt    "P 1"
_space_group_IT_number       1

loop_
  _space_group_symop_operation_xyz
  'x, y, z'

loop_
  _atom_site_type_symbol
  _atom_site_label
  _atom_site_symmetry_multiplicity
  _atom_site_fract_x
  _atom_site_fract_y
  _atom_site_fract_z
  _atom_site_occupancy
  Al  Al1       1.0  0.500000810347295  0.5000018479202596  0.5000045683299559  1.0000
  Al  Al2       1.0  8.450873053814643e-06  0.4999947044260367  0.5000010671199177  1.0000
  H   H1        1.0  0.22651995917739506  0.6302025329372968  0.4175084011987094  1.0000
  H   H2        1.0  0.7735111030387358  0.3697702243097822  0.582476960844879  1.0000
  H   H3        1.0  0.6946524127859136  0.11537054431192932  0.5616194523609933  1.0000
  H   H4        1.0  0.3053825924731369  0.8846234094309937  0.43837819152859914  1.0000
  H   H5        1.0  0.697158630012126  0.5355736426968106  0.9327181496755583  1.0000
  H   H6        1.0  0.30280995567244406  0.464399338107576  0.06727763829715629  1.0000
  H   H7        1.0  0.5661487778217663  0.5072819492274406  0.22546154801125332  1.0000
  H   H8        1.0  0.6384502698383513  0.5188918593659012  0.062192677583340045  1.0000
  H   H9        1.0  0.43381498784369643  0.49275969347522175  0.7745428235710035  1.0000
  H   H10       1.0  0.36149535993386916  0.4811430165028342  0.9378132954248739  1.0000
  H   H11       1.0  0.9368589731044282  0.9355831839432159  0.6025069622092116  1.0000
  H   H12       1.0  0.8565312700887233  0.7931103702081259  0.627671007629388  1.0000
  H   H13       1.0  0.01618641060295531  0.8185752643513525  0.5245096184835915  1.0000
  H   H14       1.0  0.9838532205046135  0.1814121075040305  0.47548747359147797  1.0000
  H   H15       1.0  0.1435063020618159  0.20689111142723252  0.3723277425485847  1.0000
  H   H16       1.0  0.0631935268731283  0.0644121747817792  0.39748238766593846  1.0000
  H   H17       1.0  0.797285935875678  0.5471510937656775  0.6991257497705374  1.0000
  H   H18       1.0  0.20270459585551487  0.4528238717530258  0.30086977576618773  1.0000
  C   C1        1.0  0.836296695733161  0.48381743334090993  0.33812198306592467  1.0000
  C   C2        1.0  0.6389281248225275  0.7284023515300646  0.49408834519202555  1.0000
  C   C3        1.0  0.16368664928614152  0.5161892457766442  0.6618827447456181  1.0000
  C   C4        1.0  0.3610882627758158  0.2715893005449317  0.5059164640406948  1.0000
  C   C5        1.0  0.573871285906975  0.8684007407782631  0.4985506701380727  1.0000
  C   C6        1.0  0.4261577765786129  0.13160260319919811  0.5014480740436154  1.0000
  C   C7        1.0  0.6898672992810475  0.9316521741007547  0.5343689331655382  1.0000
  C   C8        1.0  0.3101862766562889  0.06833454858931283  0.4656229801969756  1.0000
  C   C9        1.0  0.6106057086494092  0.06298098263425093  0.5343054021485045  1.0000
  C   C10       1.0  0.3894340228018578  0.9370158598304387  0.4656915623843075  1.0000
  C   C11       1.0  0.11194040358756027  0.5176295273985974  0.7597699803584206  1.0000
  C   C12       1.0  0.8880281882880182  0.48239223355140143  0.2402349043502524  1.0000
  C   C13       1.0  0.901719396701168  0.5315530907016637  0.8067786655680677  1.0000
  C   C14       1.0  0.8611188971426744  0.52481981027627  0.9005338573972279  1.0000
  C   C15       1.0  0.09824622791046522  0.4684454876501222  0.19321596831150598  1.0000
  C   C16       1.0  0.13884280975359775  0.47517756722848525  0.09946581764182129  1.0000
  C   C17       1.0  0.7270110200053354  0.4992639320212506  0.19002956577606508  1.0000
  C   C18       1.0  0.7692977997408904  0.5053891552674797  0.09750411695601709  1.0000
  C   C19       1.0  0.27294564655918657  0.5007635890343565  0.8099727017256837  1.0000
  C   C20       1.0  0.23064707491575115  0.49464397061503723  0.9024988015232861  1.0000
  C   C21       1.0  0.022889174639423922  0.504921399035034  0.9502913466023271  1.0000
  C   C22       1.0  0.9770580726001372  0.49509071868903487  0.049715675339712086  1.0000
  C   C23       1.0  0.885086907280005  0.8665961505711266  0.5742299620093191  1.0000
  C   C24       1.0  0.11495738373790938  0.13339724124016072  0.4257603192682281  1.0000
  O   O1        1.0  0.6459536854776714  0.49732149234507994  0.3775194427634857  1.0000
  O   O2        1.0  0.8360897431618567  0.6716024353089411  0.48487849264685656  1.0000
  O   O3        1.0  0.007914008972853891  0.5264650377355976  0.6205218156449915  1.0000
  O   O4        1.0  0.5075654710615681  0.3254189139275924  0.5015374772541887  1.0000
  O   O5        1.0  0.35403758071657887  0.5026879138193224  0.6224882404139291  1.0000
  O   O6        1.0  0.16395164552090336  0.32838466937454314  0.5151243386109099  1.0000
  O   O7        1.0  0.9920952934474772  0.47353165130113684  0.37947605896442826  1.0000
  O   O8        1.0  0.49245847642685453  0.6745828442042169  0.4984742952790951  1.0000
  O   O9        1.0  0.2454343681845046  0.5518099187355929  0.4558982922143854  1.0000
  O   O10       1.0  0.7545801608184136  0.4481825432542621  0.5441092400621768  1.0000
  O   O11       1.0  0.7355752634467835  0.5506797107384003  0.764492968689346  1.0000
  O   O12       1.0  0.2644121065240697  0.4493019111090817  0.2355016578387391  1.0000
