data_image0
_chemical_formula_structural       Co6H24C48N24O12F12
_chemical_formula_sum              "Co6 H24 C48 N24 O12 F12"
_cell_length_a       10.224595617184894
_cell_length_b       14.03048281486675
_cell_length_c       14.03066393582446
_cell_angle_alpha    114.31308772862435
_cell_angle_beta     104.06085274592459
_cell_angle_gamma    104.06127259597783

_space_group_name_H-M_alt    "P 1"
_space_group_IT_number       1

loop_
  _space_group_symop_operation_xyz
  'x, y, z'

loop_
  _atom_site_type_symbol
  _atom_site_label
  _atom_site_symmetry_multiplicity
  _atom_site_fract_x
  _atom_site_fract_y
  _atom_site_fract_z
  _atom_site_occupancy
  Co  Co1       1.0  0.7679947006264527  0.7753982639551179  0.5410456457223702  1.0000
  Co  Co2       1.0  0.2267853658853127  0.23452499679580532  0.4590073613305137  1.0000
  Co  Co3       1.0  0.22677152576597584  0.4590005695500493  0.23451644916244158  1.0000
  Co  Co4       1.0  0.9924945714501235  0.7657768228179336  0.22448709324458369  1.0000
  Co  Co5       1.0  0.7680018260580255  0.5410522663391004  0.7754015256522351  1.0000
  Co  Co6       1.0  0.9924993740442005  0.2244865230390118  0.7657857710063283  1.0000
  H   H1        1.0  0.10548165238341072  0.843696898866078  0.6826518088323681  1.0000
  H   H2        1.0  0.4222939606919168  0.16090337689448833  0.3171495101480843  1.0000
  H   H3        1.0  0.4222820283212627  0.3171606263345338  0.16090504469543992  1.0000
  H   H4        1.0  0.26149294156856223  0.8389188835837585  0.15625852521219497  1.0000
  H   H5        1.0  0.10549961104899107  0.6826567183500528  0.8437006138874849  1.0000
  H   H6        1.0  0.261484905348631  0.15625713507709799  0.83890483639005  1.0000
  H   H7        1.0  0.5414169174593582  0.8157357346459617  0.3713764429651008  1.0000
  H   H8        1.0  0.1702556955780067  0.4447822733653409  0.6288685951519355  1.0000
  H   H9        1.0  0.17025550486290092  0.6288548534192627  0.4447666106335221  1.0000
  H   H10       1.0  0.725850531993494  0.5554424676502946  0.1840211866903162  1.0000
  H   H11       1.0  0.5414251014339726  0.37138003501070216  0.8157310137676889  1.0000
  H   H12       1.0  0.7258621371899493  0.18403459334262345  0.555470370113774  1.0000
  H   H13       1.0  0.6107494936924525  0.8754897672745372  0.692506423653498  1.0000
  H   H14       1.0  0.9178462144511527  0.18313772287813623  0.30749011472700977  1.0000
  H   H15       1.0  0.9178281662456483  0.30747027299581486  0.18312531950711994  1.0000
  H   H16       1.0  0.7347801033183005  0.817113855066701  0.12426758228927075  1.0000
  H   H17       1.0  0.6107450847388449  0.6925183248767725  0.8754717523056144  1.0000
  H   H18       1.0  0.7347579955038697  0.12426185971938246  0.8171107282568784  1.0000
  H   H19       1.0  0.8472011446981682  0.568065241459024  0.41762937473495754  1.0000
  H   H20       1.0  0.42953491251341797  0.1504290209297281  0.5822186879606974  1.0000
  H   H21       1.0  0.4295355270672161  0.5822284572289859  0.1504268701113247  1.0000
  H   H22       1.0  0.2789346463378521  0.8497148230989849  0.4316558111351086  1.0000
  H   H23       1.0  0.8472055704169674  0.41762420757699187  0.5680808260190702  1.0000
  H   H24       1.0  0.2789574781032371  0.43166442202037564  0.8497275951560752  1.0000
  C   C1        1.0  0.9379637566647504  0.7945171874893903  0.42086474304748134  1.0000
  C   C2        1.0  0.5171592051097561  0.37358847370850157  0.5790691117513092  1.0000
  C   C3        1.0  0.5171677708022173  0.5790773791765175  0.37359904007763595  1.0000
  C   C4        1.0  0.1436614780471288  0.6264376889574875  0.20565392669228535  1.0000
  C   C5        1.0  0.9379844164497866  0.4208663001685692  0.7945269834934053  1.0000
  C   C6        1.0  0.14366344214921872  0.20565902457744298  0.6264280909654047  1.0000
  C   C7        1.0  0.0941369291442912  0.8358447796737281  0.6001480410747675  1.0000
  C   C8        1.0  0.4936574207363477  0.23551486240624797  0.3996784915282561  1.0000
  C   C9        1.0  0.49365597856019156  0.3996862666689793  0.23552206397144468  1.0000
  C   C10       1.0  0.2582086439967881  0.7643535459546554  0.16422140088049986  1.0000
  C   C11       1.0  0.09415120324722896  0.6001516198669632  0.8358498915913515  1.0000
  C   C12       1.0  0.2582072848121583  0.16421990767390326  0.7643416289366272  1.0000
  C   C13       1.0  0.8121310880546776  0.999913155476513  0.6233755097099519  1.0000
  C   C14       1.0  0.18860456052584598  0.3767723807577993  0.37678247751711064  1.0000
  C   C15       1.0  0.8121265996759064  0.6233830056436245  0.9999217380539848  1.0000
  C   C16       1.0  0.6171190442683354  0.8979422439567769  0.4444784968066315  1.0000
  C   C17       1.0  0.1726973075257733  0.4538044147752346  0.5557335050182175  1.0000
  C   C18       1.0  0.1726986439229918  0.5557247026519078  0.4538025876007055  1.0000
  C   C19       1.0  0.7192216909019109  0.5463933667486387  0.10184070797267007  1.0000
  C   C20       1.0  0.6171252079643638  0.44448047408911157  0.8979398350648111  1.0000
  C   C21       1.0  0.7192240546096257  0.10184339996956028  0.5464051465547328  1.0000
  C   C22       1.0  0.7788501320800876  0.7004370366356695  0.7004214827512243  1.0000
  C   C23       1.0  0.0779397786993101  0.00011653571447569999  0.2995690735079535  1.0000
  C   C24       1.0  0.07793127523127914  0.2995394570432807  0.00010528760920892682  1.0000
  C   C25       1.0  0.6470203595196723  0.8199054042351434  0.7186008200828908  1.0000
  C   C26       1.0  0.9280264241794711  0.10144821555827832  0.2813916943986143  1.0000
  C   C27       1.0  0.9280153256642975  0.28137072068788166  0.10143757798716993  1.0000
  C   C28       1.0  0.8266733379228626  0.8987961413644142  0.17994845215797986  1.0000
  C   C29       1.0  0.6470196948399901  0.7186128841535789  0.8198862814105254  1.0000
  C   C30       1.0  0.8266570871712914  0.17993067743027782  0.8987860855429944  1.0000
  C   C31       1.0  0.7287370577487807  0.5393428427479491  0.37737468567542715  1.0000
  C   C32       1.0  0.35137153642358493  0.1620064079663024  0.6225071949562206  1.0000
  C   C33       1.0  0.351375332820119  0.6225178763790352  0.16200490580398963  1.0000
  C   C34       1.0  0.18926284917819206  0.8381524469275375  0.46042323465074025  1.0000
  C   C35       1.0  0.7287361837041928  0.3773635474628277  0.5393460731575672  1.0000
  C   C36       1.0  0.18928328514817847  0.46042698825024075  0.8381636597575338  1.0000
  C   C37       1.0  0.21201987212459983  0.8514726376629226  0.5675541378826807  1.0000
  C   C38       1.0  0.6441599803480003  0.2835698547239786  0.4321899733628242  1.0000
  C   C39       1.0  0.644155441334334  0.43218950838819126  0.2835802428583563  1.0000
  C   C40       1.0  0.36057723659490654  0.7162599608169558  0.14860019716476106  1.0000
  C   C41       1.0  0.2120360074823893  0.5675581962134969  0.8514820347792166  1.0000
  C   C42       1.0  0.3605784762858306  0.1486041323660174  0.716250805076335  1.0000
  C   C43       1.0  0.6196853383668497  0.999881301433099  0.4507560477715273  1.0000
  C   C44       1.0  0.16894568227413492  0.54946737161778  0.5494656236694127  1.0000
  C   C45       1.0  0.6196894069092735  0.450746407196135  0.9998751516235417  1.0000
  C   C46       1.0  0.6055083299298474  0.7959491925291644  0.795934011533973  1.0000
  C   C47       1.0  0.8091576959270907  0.00011534668004739997  0.20398238034957927  1.0000
  C   C48       1.0  0.8091422919855306  0.20396610104734947  0.0001058378831758442  1.0000
  N   N1        1.0  0.9606625856022859  0.8082149779166696  0.5281455723325976  1.0000
  N   N2        1.0  0.4323445188437063  0.28000686845871303  0.4717682500002097  1.0000
  N   N3        1.0  0.4323545444540996  0.4717823761121379  0.280018764189272  1.0000
  N   N4        1.0  0.15245169134066572  0.7199709744622352  0.19192338934657016  1.0000
  N   N5        1.0  0.960680733398938  0.5281477529622476  0.8082221198828278  1.0000
  N   N6        1.0  0.15245069055006163  0.1919215449945781  0.7199592455819612  1.0000
  N   N7        1.0  0.7108708415555753  0.8983303942439347  0.5298035479383714  1.0000
  N   N8        1.0  0.181047752480211  0.36882606768458703  0.47038981193880147  1.0000
  N   N9        1.0  0.18104845485459004  0.47037563151391737  0.3688301801538287  1.0000
  N   N10       1.0  0.8125645479343079  0.6313624037821127  0.10149567908315768  1.0000
  N   N11       1.0  0.710876003648046  0.5298111093854486  0.898338454081326  1.0000
  N   N12       1.0  0.8125656215693554  0.10148989567784379  0.6313643938576945  1.0000
  N   N13       1.0  0.7301647075747295  0.7724335547902751  0.6715226419417563  1.0000
  N   N14       1.0  0.05822677828439989  0.10105067643057447  0.3285157310213407  1.0000
  N   N15       1.0  0.05821473813314529  0.328489493490629  0.10104007518918215  1.0000
  N   N16       1.0  0.9572515809786424  0.8991638606746263  0.22745026193091206  1.0000
  N   N17       1.0  0.7301604594967799  0.6715355135636115  0.7724216040588133  1.0000
  N   N18       1.0  0.9572412102215965  0.22742871512250662  0.8991547820387922  1.0000
  N   N19       1.0  0.6663699316955914  0.611300354384042  0.42039335409963746  1.0000
  N   N20       1.0  0.2460326941234285  0.19102770825956839  0.5795891959683885  1.0000
  N   N21       1.0  0.2460362724470428  0.5795957913764908  0.19102608845076924  1.0000
  N   N22       1.0  0.054851479714407965  0.809204242593445  0.3885592773737869  1.0000
  N   N23       1.0  0.6663577479993635  0.420379973498818  0.6112945977586435  1.0000
  N   N24       1.0  0.05487015748026639  0.38856131637927394  0.8092169026869697  1.0000
  O   O1        1.0  0.8115998519263955  0.7672874272373771  0.3536974528171368  1.0000
  O   O2        1.0  0.4581646140381466  0.4137244574231005  0.6463307700006381  1.0000
  O   O3        1.0  0.4581970452016079  0.6463542772371011  0.4137514643358315  1.0000
  O   O4        1.0  0.04462934605422219  0.5863291003038852  0.2328465696017261  1.0000
  O   O5        1.0  0.8116249003954366  0.35369504541009167  0.7672995824938766  1.0000
  O   O6        1.0  0.04463564914932763  0.23285765014292542  0.586324248431815  1.0000
  O   O7        1.0  0.9052538252821802  0.9999240050319569  0.700597875569059  1.0000
  O   O8        1.0  0.20439134845003074  0.29949910402611823  0.2995243103976364  1.0000
  O   O9        1.0  0.9052523839734903  0.700619851977656  0.9999497975392017  1.0000
  O   O10       1.0  0.8625038745420354  0.6603558724753354  0.6603396977268687  1.0000
  O   O11       1.0  0.20165685481487125  7.969625513479997e-05  0.3396936470110816  1.0000
  O   O12       1.0  0.2016457754976955  0.3396544976379019  6.46384001968557e-05  1.0000
  F   F1        1.0  0.34818410037281927  0.8772644823717498  0.6390745724071607  1.0000
  F   F2        1.0  0.7085926531630733  0.2377671320189663  0.3605477120402014  1.0000
  F   F3        1.0  0.7085717955744572  0.3605319548660119  0.2377692557726759  1.0000
  F   F4        1.0  0.47070307458100996  0.761966629631608  0.12262348973911223  1.0000
  F   F5        1.0  0.3481990540917722  0.639084842336473  0.8772698896108295  1.0000
  F   F6        1.0  0.47070835330537614  0.12263294844989757  0.761961167928483  1.0000
  F   F7        1.0  0.5260255726175203  0.9998898530789685  0.36315586954057005  1.0000
  F   F8        1.0  0.1629962335405537  0.637134208715075  0.6371221728624191  1.0000
  F   F9        1.0  0.5260217841359633  0.36313426544848676  0.9998680614526094  1.0000
  F   F10       1.0  0.5219781843639312  0.8445803275811415  0.8445706834637791  1.0000
  F   F11       1.0  0.6769755868810066  0.0001062908112388  0.15540143836199152  1.0000
  F   F12       1.0  0.6769574197025107  0.15539727767609426  9.842700892195021e-05  1.0000
