data_image0
_chemical_formula_structural       ZnH8C10S2N6
_chemical_formula_sum              "Zn1 H8 C10 S2 N6"
_cell_length_a       6.917541629930694
_cell_length_b       7.26030791779003
_cell_length_c       7.260293064667143
_cell_angle_alpha    91.17668645399087
_cell_angle_beta     109.07004289417773
_cell_angle_gamma    109.06813685046542

_space_group_name_H-M_alt    "P 1"
_space_group_IT_number       1

loop_
  _space_group_symop_operation_xyz
  'x, y, z'

loop_
  _atom_site_type_symbol
  _atom_site_label
  _atom_site_symmetry_multiplicity
  _atom_site_fract_x
  _atom_site_fract_y
  _atom_site_fract_z
  _atom_site_occupancy
  Zn  Zn1       1.0  0.9999988542503074  0.49999679458274915  0.49999810889961777  1.0000
  H   H1        1.0  0.6834900411428817  0.05957573799612699  0.2798554566378115  1.0000
  H   H2        1.0  0.31649364411860154  0.720140671127723  0.9404275503888186  1.0000
  H   H3        1.0  0.316490479495627  0.9404225429804282  0.720146394275119  1.0000
  H   H4        1.0  0.6835065659443982  0.2798531518243549  0.059577789245402364  1.0000
  H   H5        1.0  0.2977250775834292  0.2815148255185561  0.7171069987780003  1.0000
  H   H6        1.0  0.7022911673520084  0.28290156732443705  0.71848287837188  1.0000
  H   H7        1.0  0.7022673616802492  0.718474625334842  0.28289023806118513  1.0000
  H   H8        1.0  0.2977182515187166  0.7170922462934041  0.2815226700942475  1.0000
  C   C1        1.0  0.8261079080523784  0.03373999376576359  0.37848137554438216  1.0000
  C   C2        1.0  0.173900186637823  0.6215084058116884  0.9662601779869888  1.0000
  C   C3        1.0  0.17389515768212502  0.9662568277648231  0.6215139264570837  1.0000
  C   C4        1.0  0.8261298895107101  0.3784794807405944  0.03374776240067218  1.0000
  C   C5        1.0  0.1646246050858622  0.15490698881810516  0.6201449481394832  1.0000
  C   C6        1.0  0.8353883300818408  0.3798431766877852  0.8450989929169309  1.0000
  C   C7        1.0  0.8353720659625805  0.8450928261444657  0.379842848652487  1.0000
  C   C8        1.0  0.1646181428198474  0.6201314922030505  0.1549038278716992  1.0000
  C   C9        1.0  0.49100856845338087  0.2897359392749762  0.28971272805538456  1.0000
  C   C10       1.0  0.509005401453386  0.7102962329295079  0.710285448436359  1.0000
  S   S1        1.0  0.2620674684956299  0.13792603453595828  0.1379254490323589  1.0000
  S   S2        1.0  0.7379429962783487  0.8621090652390889  0.8620771706328441  1.0000
  N   N1        1.0  0.9908754731318721  0.18881156910698849  0.4982836240046496  1.0000
  N   N2        1.0  0.00911119044343418  0.5017251512009151  0.8111823228730942  1.0000
  N   N3        1.0  0.009105074620165904  0.8111792989274276  0.5017263447693878  1.0000
  N   N4        1.0  0.9908777793283007  0.49828643057107047  0.18881150706165772  1.0000
  N   N5        1.0  0.6631185619358675  0.3992854093344106  0.3992854744112009  1.0000
  N   N6        1.0  0.3368809155661693  0.6007143108052019  0.6007197532740349  1.0000
