data_image0
_chemical_formula_structural       Fe2H28Pt2C40N20
_chemical_formula_sum              "Fe2 H28 Pt2 C40 N20"
_cell_length_a       8.659363870948676
_cell_length_b       8.732804308081965
_cell_length_c       14.740704694674184
_cell_angle_alpha    81.21141659635687
_cell_angle_beta     81.50817569053962
_cell_angle_gamma    72.85978307945634

_space_group_name_H-M_alt    "P 1"
_space_group_IT_number       1

loop_
  _space_group_symop_operation_xyz
  'x, y, z'

loop_
  _atom_site_type_symbol
  _atom_site_label
  _atom_site_symmetry_multiplicity
  _atom_site_fract_x
  _atom_site_fract_y
  _atom_site_fract_z
  _atom_site_occupancy
  Fe  Fe1       1.0  0.826776797276615  0.16917118780823875  0.748352137074029  1.0000
  Fe  Fe2       1.0  0.16398501601827314  0.8189564444380582  0.24668281193688557  1.0000
  H   H1        1.0  0.8722054446310139  0.8186523215891128  0.882042817821123  1.0000
  H   H2        1.0  0.18195685606325895  0.12747253992201021  0.6169792638842182  1.0000
  H   H3        1.0  0.12997727042474594  0.1797332364393753  0.11639952838939391  1.0000
  H   H4        1.0  0.8116551359582402  0.8747083561513874  0.3836887623356375  1.0000
  H   H5        1.0  0.9138139855506323  0.5204294192089806  0.695034587886994  1.0000
  H   H6        1.0  0.4797180076544408  0.08670569752757021  0.8034794275791199  1.0000
  H   H7        1.0  0.09724903026631888  0.4892664404037887  0.3040052444335402  1.0000
  H   H8        1.0  0.5262388050541913  0.917825286572537  0.19683570144789536  1.0000
  H   H9        1.0  0.10882106560303836  0.6517777877147921  0.7398822713626104  1.0000
  H   H10       1.0  0.3465365011653173  0.8919650012743933  0.761608442376371  1.0000
  H   H11       1.0  0.9048276628444895  0.3518464232017138  0.2643048602162068  1.0000
  H   H12       1.0  0.6529123197689445  0.11602900250193932  0.24123636553088804  1.0000
  H   H13       1.0  0.3053726726630969  0.4931062845491925  0.8534288858474639  1.0000
  H   H14       1.0  0.5034736701651282  0.6956033168387279  0.6490922215217977  1.0000
  H   H15       1.0  0.7012818042660741  0.5022746150215057  0.15249406212545574  1.0000
  H   H16       1.0  0.48981421230011063  0.30732624127806935  0.3548752247851965  1.0000
  H   H17       1.0  0.29597774293282697  0.21492649292848404  0.9180035966622101  1.0000
  H   H18       1.0  0.7828523418262634  0.7052124891271563  0.5828080795071386  1.0000
  H   H19       1.0  0.7036321450319816  0.7817895680015285  0.08472834116658853  1.0000
  H   H20       1.0  0.21163341385917536  0.29160442435075135  0.41877994465424007  1.0000
  H   H21       1.0  0.2830228047548643  0.9177047300452231  0.9603392977888561  1.0000
  H   H22       1.0  0.08527485408674085  0.7171614035833617  0.54025630637436  1.0000
  H   H23       1.0  0.71260811174173  0.09059342401761232  0.03890165613583464  1.0000
  H   H24       1.0  0.9203413334666948  0.2792464610059895  0.45934324337628146  1.0000
  H   H25       1.0  0.11637370396857692  0.6909235349303133  0.9728532131387126  1.0000
  H   H26       1.0  0.31219759958825927  0.884567723769429  0.5273507592832375  1.0000
  H   H27       1.0  0.8841905090371682  0.3131457986417204  0.027052576917419854  1.0000
  H   H28       1.0  0.6876698592141679  0.11835199966299832  0.4738387087911917  1.0000
  Pt  Pt1       1.0  0.4963179972358915  0.5003510268714209  0.4987957043024238  1.0000
  Pt  Pt2       1.0  0.5018478021883012  0.4963180288896681  0.9987049351892167  1.0000
  C   C1        1.0  0.6421150501936735  0.393993614981305  0.5954947056885516  1.0000
  C   C2        1.0  0.6074549991323366  0.3541313325050198  0.9014035368445761  1.0000
  C   C3        1.0  0.3501324576732116  0.6025759269646545  0.40172484677089665  1.0000
  C   C4        1.0  0.39224785286537406  0.6378590003709947  0.09561172231604328  1.0000
  C   C5        1.0  0.35596510149120053  0.36234706531103467  0.5579645605717118  1.0000
  C   C6        1.0  0.6387478812197641  0.6391789940283418  0.9414683975901071  1.0000
  C   C7        1.0  0.6368913517734781  0.6388032934973467  0.440407132303534  1.0000
  C   C8        1.0  0.36567562769081957  0.3534714088584395  0.056689674299768504  1.0000
  C   C9        1.0  0.0025529657239004534  0.4571880760435151  0.7428647929143182  1.0000
  C   C10       1.0  0.5427220110553607  0.9978963076593672  0.756441891195486  1.0000
  C   C11       1.0  0.0061431552827712465  0.5502030745307422  0.2572600162770655  1.0000
  C   C12       1.0  0.4606503583726962  0.0048860235252519  0.24444541590786883  1.0000
  C   C13       1.0  0.11040083902251738  0.5291952219931491  0.7688349460898537  1.0000
  C   C14       1.0  0.4696000098418054  0.8901695585418851  0.731969361276235  1.0000
  C   C15       1.0  0.8991896010607192  0.4746636487881163  0.23392017243114788  1.0000
  C   C16       1.0  0.5303736488507482  0.11433740264747878  0.27019230397174  1.0000
  C   C17       1.0  0.21896176896242983  0.44102107385790396  0.8313925541852072  1.0000
  C   C18       1.0  0.55673919629465  0.7816741582434332  0.6700156248100911  1.0000
  C   C19       1.0  0.7867530407220256  0.5579131754764292  0.17240208706938637  1.0000
  C   C20       1.0  0.4396259586765012  0.22004598058899213  0.3327329168187632  1.0000
  C   C21       1.0  0.21624352841848088  0.28441279290085936  0.8666031374909053  1.0000
  C   C22       1.0  0.713903450381011  0.7844146543607025  0.6339580101196988  1.0000
  C   C23       1.0  0.7854294758777269  0.7147780197724958  0.13566560539057806  1.0000
  C   C24       1.0  0.28288537830685095  0.2136138886627492  0.367575430819933  1.0000
  C   C25       1.0  0.10568631498667706  0.2189052702161973  0.8371368146299644  1.0000
  C   C26       1.0  0.7810772637470009  0.8941144724927028  0.6622235040797975  1.0000
  C   C27       1.0  0.8943939229734779  0.7850269845199026  0.16227672169219431  1.0000
  C   C28       1.0  0.2197690666447655  0.10209759747661451  0.3376784867486792  1.0000
  C   C29       1.0  0.08812313250110287  0.058693370585245916  0.8702454171126277  1.0000
  C   C30       1.0  0.9421979133434489  0.9109131719941175  0.6288055923764091  1.0000
  C   C31       1.0  0.9083704445525741  0.9452230514372888  0.12740707766921835  1.0000
  C   C32       1.0  0.05803545322937249  0.0842620872774162  0.3702832614747464  1.0000
  C   C33       1.0  0.17601745637530533  0.9271497003988928  0.9276505280505346  1.0000
  C   C34       1.0  0.07509521205977869  0.8237177023710134  0.5723927519108116  1.0000
  C   C35       1.0  0.8207859510443853  0.07847099623699448  0.0711215491878789  1.0000
  C   C36       1.0  0.9272713004778195  0.17339864040044262  0.4273548876861285  1.0000
  C   C37       1.0  0.09442945992995534  0.8102325319399527  0.9346539524887092  1.0000
  C   C38       1.0  0.19202455994625464  0.9058855479809794  0.5651776145403389  1.0000
  C   C39       1.0  0.9049960816335272  0.19329687083966013  0.06455175697345078  1.0000
  C   C40       1.0  0.8074477195261949  0.09459083303707423  0.4355071482500747  1.0000
  N   N1        1.0  0.7199085775263967  0.318297960137869  0.6543396060234059  1.0000
  N   N2        1.0  0.6786013151831722  0.2761466069892295  0.8422955347470803  1.0000
  N   N3        1.0  0.27033428943022386  0.670851841412528  0.3422133665145068  1.0000
  N   N4        1.0  0.31444201700705326  0.7138895499952868  0.1541092500893342  1.0000
  N   N5        1.0  0.27735071878284145  0.2765248405352524  0.5932740149076565  1.0000
  N   N6        1.0  0.7235824955368458  0.7198367775323788  0.9076839741168854  1.0000
  N   N7        1.0  0.7159940233802968  0.7248513300652208  0.4062214826514392  1.0000
  N   N8        1.0  0.2810373087758009  0.27331619329033435  0.09158864505113938  1.0000
  N   N9        1.0  0.001501954921685871  0.3062933926761389  0.7756175865958852  1.0000
  N   N10       1.0  0.6946088419918366  0.9990093255895901  0.7230556890156806  1.0000
  N   N11       1.0  0.0044604442827491965  0.70252878469946  0.22323690442024002  1.0000
  N   N12       1.0  0.3098693283547007  0.9999053948221999  0.27692855045147974  1.0000
  N   N13       1.0  0.9613065294037143  0.020787319384666603  0.8438193556223368  1.0000
  N   N14       1.0  0.9791945732241915  0.03772577042731481  0.6544755468383913  1.0000
  N   N15       1.0  0.03712708645114292  0.9798125792049321  0.1533113016938117  1.0000
  N   N16       1.0  0.016687256663054467  0.9596435228709197  0.34515677438407977  1.0000
  N   N17       1.0  0.9674584890826663  0.8702701173770537  0.8833105314860675  1.0000
  N   N18       1.0  0.13065450528200268  0.03238900164784301  0.6155389653034361  1.0000
  N   N19       1.0  0.03299295706917598  0.13033585602232028  0.1150776285422097  1.0000
  N   N20       1.0  0.8652093611637707  0.9680954226887624  0.3850664114628016  1.0000
