data_image0
_chemical_formula_structural       Ca2H28C36N8O16
_chemical_formula_sum              "Ca2 H28 C36 N8 O16"
_cell_length_a       5.513991498403768
_cell_length_b       12.517670985495865
_cell_length_c       14.994676575490253
_cell_angle_alpha    113.07077043237413
_cell_angle_beta     95.42384789145851
_cell_angle_gamma    97.44167530114781

_space_group_name_H-M_alt    "P 1"
_space_group_IT_number       1

loop_
  _space_group_symop_operation_xyz
  'x, y, z'

loop_
  _atom_site_type_symbol
  _atom_site_label
  _atom_site_symmetry_multiplicity
  _atom_site_fract_x
  _atom_site_fract_y
  _atom_site_fract_z
  _atom_site_occupancy
  Ca  Ca1       1.0  0.6308377524750951  0.3614511119301369  0.4885096361289597  1.0000
  Ca  Ca2       1.0  0.3691805639708933  0.6385384764301281  0.5114818608539622  1.0000
  H   H1        1.0  0.3294111071680774  0.45118234511744504  0.2642265573530551  1.0000
  H   H2        1.0  0.6705888108554205  0.5488116517105653  0.7357584192090627  1.0000
  H   H3        1.0  0.16440033111734917  0.4940716323308579  0.12238060217308087  1.0000
  H   H4        1.0  0.8356128027661781  0.5059382583586184  0.8776134089652955  1.0000
  H   H5        1.0  0.8732682601318444  0.7023141190144813  0.14669515545580944  1.0000
  H   H6        1.0  0.12673173702823703  0.29770448907601843  0.8533186143953982  1.0000
  H   H7        1.0  0.04243254900642764  0.6523956534543628  0.2848280579317545  1.0000
  H   H8        1.0  0.9575696319283084  0.347614163005403  0.7151768861690256  1.0000
  H   H9        1.0  0.7550441763990959  0.2862391072058159  0.21267872452234116  1.0000
  H   H10       1.0  0.2449689247209789  0.7137706637871374  0.7873412553934072  1.0000
  H   H11       1.0  0.7741547481295754  0.2299919613788006  0.034535762753691295  1.0000
  H   H12       1.0  0.2258354561003415  0.7700345866486844  0.9654762843823262  1.0000
  H   H13       1.0  0.42341911755564615  0.08022455767824253  0.06330021501678831  1.0000
  H   H14       1.0  0.5766023426098312  0.9197685787463782  0.9366898934964422  1.0000
  H   H15       1.0  0.41403999526590235  0.145539477949221  0.24295920821975156  1.0000
  H   H16       1.0  0.5859765151388316  0.8544403762254404  0.7570343511822484  1.0000
  H   H17       1.0  0.33437168562455344  0.21271291797182815  0.6362457176587311  1.0000
  H   H18       1.0  0.6656235618485837  0.7872880823403251  0.3637514101229229  1.0000
  H   H19       1.0  0.9730795174582383  0.14988073360427023  0.5048042683841771  1.0000
  H   H20       1.0  0.026930651205489622  0.850111411802061  0.49520379498478906  1.0000
  H   H21       1.0  0.30430637112689857  0.0804592226853558  0.7212575911019456  1.0000
  H   H22       1.0  0.6956620363813925  0.9195381971238136  0.2787367578366755  1.0000
  H   H23       1.0  0.5976302759209348  0.05883846277804142  0.764485325619283  1.0000
  H   H24       1.0  0.4023364799869355  0.941154523476193  0.23551150534775886  1.0000
  H   H25       1.0  0.4085154090535212  0.9456518076883357  0.6566183873302975  1.0000
  H   H26       1.0  0.5914601347786217  0.05434032005475592  0.34337713157184174  1.0000
  H   H27       1.0  0.8889976774428023  0.0044004773501953  0.6059269994812269  1.0000
  H   H28       1.0  0.11098600519881793  0.9955792676935578  0.3940747217627986  1.0000
  C   C1        1.0  0.7914642328821201  0.5285221042251678  0.3708252023439583  1.0000
  C   C2        1.0  0.2085127834788665  0.4714788593297996  0.6291712808359191  1.0000
  C   C3        1.0  0.6954636002226237  0.5502535964136187  0.2831403928058265  1.0000
  C   C4        1.0  0.3045314690190111  0.4497518092246153  0.716859515415905  1.0000
  C   C5        1.0  0.4480712156696497  0.5050561343537935  0.23775577785853838  1.0000
  C   C6        1.0  0.5519419352838354  0.49494402582579516  0.7622403601590902  1.0000
  C   C7        1.0  0.35375567279585596  0.5301763167007965  0.1603369134292549  1.0000
  C   C8        1.0  0.6462607959081694  0.46982297087135555  0.8396583850090236  1.0000
  C   C9        1.0  0.5093187245152393  0.6031382286178156  0.13096490337680675  1.0000
  C   C10       1.0  0.490686929450959  0.3968760189343143  0.8690389548878983  1.0000
  C   C11       1.0  0.7578523753620345  0.6473205528645636  0.17319263512962377  1.0000
  C   C12       1.0  0.2421569740880969  0.3526742962637855  0.8268036202243747  1.0000
  C   C13       1.0  0.8505139951264623  0.6191385494636492  0.24920692462293195  1.0000
  C   C14       1.0  0.1494963439397878  0.38085895488703164  0.7507889068997498  1.0000
  C   C15       1.0  0.0593759011555761  0.2457499722896372  0.3448775915899062  1.0000
  C   C16       1.0  0.9406354378760254  0.7542404322203637  0.6551252699093977  1.0000
  C   C17       1.0  0.08003696328657377  0.2172706019556756  0.23844569654880843  1.0000
  C   C18       1.0  0.9199765315285828  0.782720701534622  0.7615548685799423  1.0000
  C   C19       1.0  0.902616791175852  0.24255514038019044  0.17980955243050534  1.0000
  C   C20       1.0  0.09740492887797092  0.7574582111882647  0.8202045713334697  1.0000
  C   C21       1.0  0.9108097587955727  0.21045500298112782  0.08038281928573102  1.0000
  C   C22       1.0  0.08918145464068061  0.7895644789662272  0.919628933299954  1.0000
  C   C23       1.0  0.0974544241641198  0.1506520145526409  0.039996248213753895  1.0000
  C   C24       1.0  0.9025379783901429  0.8493560021267897  0.9600110976493496  1.0000
  C   C25       1.0  0.2798019823047539  0.1264746579900304  0.09692079938601948  1.0000
  C   C26       1.0  0.7202057247859274  0.8735157913439412  0.9030706134694596  1.0000
  C   C27       1.0  0.27199748390548006  0.16180577659588383  0.1966889376204932  1.0000
  C   C28       1.0  0.7280365564466535  0.8381917786082697  0.8033070660183981  1.0000
  C   C29       1.0  0.49859932494631215  0.1778746114082139  0.6130297323209106  1.0000
  C   C30       1.0  0.5013989042446737  0.8221246087153418  0.3869715801764641  1.0000
  C   C31       1.0  0.7909811962140195  0.0699413385479062  0.5967710647972736  1.0000
  C   C32       1.0  0.2090026400283448  0.9300437040573754  0.4032317419221909  1.0000
  C   C33       1.0  0.8276889951988055  0.1410874562475328  0.5468104741657598  1.0000
  C   C34       1.0  0.17230909914156453  0.8588967419428997  0.453190548003242  1.0000
  C   C35       1.0  0.4667089870543322  0.04127182111884051  0.6986047708331071  1.0000
  C   C36       1.0  0.5332629097152903  0.9587202962036728  0.30139128501476625  1.0000
  N   N1        1.0  0.4062593381743866  0.6328798805375513  0.05158630265719919  1.0000
  N   N2        1.0  0.5937547735640152  0.36713262240628103  0.9484166067750691  1.0000
  N   N3        1.0  0.10115365561026829  0.11093408319903379  0.9343350480874192  1.0000
  N   N4        1.0  0.8988204979217969  0.8890836241639594  0.06567019216074503  1.0000
  N   N5        1.0  0.6434361842596986  0.20847531140236703  0.5574712562858365  1.0000
  N   N6        1.0  0.3565869065039919  0.7915221818486416  0.4425330168511223  1.0000
  N   N7        1.0  0.5810430930327399  0.09463603020723355  0.6385571891824211  1.0000
  N   N8        1.0  0.418938243564405  0.9053569701070361  0.36144348679646743  1.0000
  O   O1        1.0  0.6269416863484664  0.5030763703135648  0.41834549575042246  1.0000
  O   O2        1.0  0.3730385442639061  0.4968990203663567  0.5816406646775221  1.0000
  O   O3        1.0  0.021155724557303243  0.5373755661028383  0.3928836921246556  1.0000
  O   O4        1.0  0.9788286088792899  0.4626157092673964  0.6071091829804087  1.0000
  O   O5        1.0  0.17931337972678568  0.6044857270972984  0.02323571941581551  1.0000
  O   O6        1.0  0.8207005325097255  0.3955408963367902  0.9767711729077247  1.0000
  O   O7        1.0  0.5511470035960073  0.6840973763706303  0.0162015173172421  1.0000
  O   O8        1.0  0.44887508384196906  0.3159072044444926  0.983798389307438  1.0000
  O   O9        1.0  0.2506915948511832  0.25006793803011373  0.4013815966023556  1.0000
  O   O10       1.0  0.7493242451683527  0.7499101071205344  0.5986206796576069  1.0000
  O   O11       1.0  0.8482623178657532  0.2601688000285947  0.36998981158254196  1.0000
  O   O12       1.0  0.15176476886265536  0.7398198653685528  0.6300143565232901  1.0000
  O   O13       1.0  0.9430885585442113  0.13695804806496173  0.8850972900701208  1.0000
  O   O14       1.0  0.05688207353497183  0.8630746370500193  0.11491610197909806  1.0000
  O   O15       1.0  0.2609190941958346  0.0527887266912757  0.8986983000735262  1.0000
  O   O16       1.0  0.7390504181889739  0.9472360915758103  0.1012957860811454  1.0000
