data_image0
_chemical_formula_structural       Al2H24C48N6O24
_chemical_formula_sum              "Al2 H24 C48 N6 O24"
_cell_length_a       4.035040615170093
_cell_length_b       28.502024726850934
_cell_length_c       28.502027591542838
_cell_angle_alpha    119.99416529853936
_cell_angle_beta     90.00043843863303
_cell_angle_gamma    90.00060414933756

_space_group_name_H-M_alt    "P 1"
_space_group_IT_number       1

loop_
  _space_group_symop_operation_xyz
  'x, y, z'

loop_
  _atom_site_type_symbol
  _atom_site_label
  _atom_site_symmetry_multiplicity
  _atom_site_fract_x
  _atom_site_fract_y
  _atom_site_fract_z
  _atom_site_occupancy
  Al  Al1       1.0  0.9774025372701587  0.5000061314846747  0.4999921987011504  1.0000
  Al  Al2       1.0  0.9774385799302933  0.1666635381527613  0.8333410381230878  1.0000
  H   H1        1.0  0.5550357808726004  0.18055330301910993  0.6975194415386312  1.0000
  H   H2        1.0  0.5997521607705494  0.23124050843473754  0.6486440034616408  1.0000
  H   H3        1.0  0.48306160599768316  0.38139636992209364  0.8002138128369155  1.0000
  H   H4        1.0  0.48309801207148684  0.28525525006147484  0.5331047422799671  1.0000
  H   H5        1.0  0.59974835556784  0.4354217552806929  0.6846750369268406  1.0000
  H   H6        1.0  0.5550604307626655  0.48610364137485385  0.6358011783964487  1.0000
  H   H7        1.0  0.5436737201616566  0.3867084491371885  0.7212245125510037  1.0000
  H   H8        1.0  0.5437337484444099  0.27994859796091737  0.6120994541278791  1.0000
  H   H9        1.0  0.5549833368094639  0.016933105899923646  0.8194557225580399  1.0000
  H   H10       1.0  0.5997190317172354  0.9173853431434864  0.7687595700141472  1.0000
  H   H11       1.0  0.4830471307065309  0.9188388265710402  0.618613695692666  1.0000
  H   H12       1.0  0.482951594083822  0.7478269155003475  0.7147231241813401  1.0000
  H   H13       1.0  0.5997915927566096  0.7492785717681159  0.5645733670422575  1.0000
  H   H14       1.0  0.5550880928998935  0.6497345068345127  0.5138865045318326  1.0000
  H   H15       1.0  0.5436875907432394  0.8345376562250805  0.6132956061907963  1.0000
  H   H16       1.0  0.5436085501272955  0.8321273713969717  0.7200457505106997  1.0000
  H   H17       1.0  0.5549586962931414  0.3024849770582635  0.9830414437279346  1.0000
  H   H18       1.0  0.5996994957532493  0.35135128319185327  0.08258538691408286  1.0000
  H   H19       1.0  0.4832315223167569  0.1997794997564313  0.08119946335044398  1.0000
  H   H20       1.0  0.4832063881261347  0.46689813421421184  0.25213877992278105  1.0000
  H   H21       1.0  0.599685264357582  0.31532309014765747  0.2507532121192853  1.0000
  H   H22       1.0  0.5549640364495686  0.3641974729328227  0.35029576871891527  1.0000
  H   H23       1.0  0.5437094605864345  0.2787727059543244  0.16548987755351874  1.0000
  H   H24       1.0  0.543730949427001  0.38790721211452  0.1678477983087916  1.0000
  C   C1        1.0  0.4784996820089091  0.4698678994048251  0.41837922522678633  1.0000
  C   C2        1.0  0.47849937235061185  0.4485330791613861  0.5301361196565466  1.0000
  C   C3        1.0  0.4784627805223778  0.581619783810936  0.5514557083036565  1.0000
  C   C4        1.0  0.478537661581356  0.2181292160225611  0.8031906809830859  1.0000
  C   C5        1.0  0.47849990532359493  0.08505051113343137  0.7818827383760194  1.0000
  C   C6        1.0  0.47848778691565735  0.1968087544841169  0.914957072429111  1.0000
  C   C7        1.0  0.49551447304185803  0.2515114276378513  0.7760180567866755  1.0000
  C   C8        1.0  0.5392215705513054  0.22466220660398062  0.7196336348094549  1.0000
  C   C9        1.0  0.5637421267220687  0.25354374843990973  0.6924136519989333  1.0000
  C   C10       1.0  0.5414329534068256  0.3105921926740364  0.7202190050750517  1.0000
  C   C11       1.0  0.5032127912231346  0.33741682418747143  0.7767024048892283  1.0000
  C   C12       1.0  0.4806252741544696  0.3080901493616963  0.8035339742560552  1.0000
  C   C13       1.0  0.5484123195816792  0.34290107830039335  0.6936446687465151  1.0000
  C   C14       1.0  0.5484299981282843  0.3237560653591132  0.6396729110247108  1.0000
  C   C15       1.0  0.5032215143779553  0.3292367823110355  0.5566128647411973  1.0000
  C   C16       1.0  0.5414243749051977  0.35606342005257846  0.6130986661219212  1.0000
  C   C17       1.0  0.5637591141396002  0.413112720538166  0.6409060851466181  1.0000
  C   C18       1.0  0.539251663231532  0.4419948973800487  0.6136867436307085  1.0000
  C   C19       1.0  0.4954875224602517  0.4151494708136029  0.5573053170580452  1.0000
  C   C20       1.0  0.4805827212444385  0.35856981909083896  0.5297860425643465  1.0000
  C   C21       1.0  0.4954309110086895  0.02450048274356927  0.7485039100731329  1.0000
  C   C22       1.0  0.5391130498120446  0.9949528853616343  0.7753475958136563  1.0000
  C   C23       1.0  0.5636452560427756  0.9388569853845753  0.7464634087759451  1.0000
  C   C24       1.0  0.5413206936247332  0.9096289776087119  0.6894159815745838  1.0000
  C   C25       1.0  0.5031678189656928  0.9392973453363994  0.6625926816881177  1.0000
  C   C26       1.0  0.4805959539138982  0.9954499682522452  0.6919225269412834  1.0000
  C   C27       1.0  0.548368370406692  0.8507526007238223  0.6571026890255708  1.0000
  C   C28       1.0  0.5483477502083717  0.8159166099464273  0.6762408238096784  1.0000
  C   C29       1.0  0.5031353330386352  0.7273720683680267  0.6707461840842086  1.0000
  C   C30       1.0  0.5413509585760039  0.7570399321805467  0.6439235859105352  1.0000
  C   C31       1.0  0.5637223526430688  0.7278109326894794  0.5868751612609843  1.0000
  C   C32       1.0  0.5392042471894385  0.6717141953738164  0.5579937894469111  1.0000
  C   C33       1.0  0.495437257580633  0.6421682377186927  0.5848361989049949  1.0000
  C   C34       1.0  0.4805725841356647  0.671218035141834  0.6414141240277474  1.0000
  C   C35       1.0  0.49551130346930705  0.22397745076477826  0.9755077773368727  1.0000
  C   C36       1.0  0.5391377737717847  0.2803649147896152  0.005037364375553516  1.0000
  C   C37       1.0  0.5636877400621074  0.3075844666518037  0.0611309179976658  1.0000
  C   C38       1.0  0.5414324350583256  0.279782117476941  0.09038420058479348  1.0000
  C   C39       1.0  0.5032638744321714  0.22329677455583413  0.060732987092123394  1.0000
  C   C40       1.0  0.4806915961335889  0.19646183600977452  0.004577580928142292  1.0000
  C   C41       1.0  0.5484237678371143  0.30635589208999653  0.1492606890497754  1.0000
  C   C42       1.0  0.5484242304876831  0.3603279521196825  0.18408010146406886  1.0000
  C   C43       1.0  0.5032851565754228  0.4433838291424692  0.2726066001988912  1.0000
  C   C44       1.0  0.5414603132990975  0.38689929162700315  0.24295618231937519  1.0000
  C   C45       1.0  0.5637497889500338  0.3590938999234509  0.2722056063819879  1.0000
  C   C46       1.0  0.539224660729154  0.3863157469034064  0.3283002459929421  1.0000
  C   C47       1.0  0.4955353022668945  0.44270004498927307  0.3578305732389211  1.0000
  C   C48       1.0  0.48074016895051835  0.47021588508753354  0.32876196553741016  1.0000
  N   N1        1.0  0.4240808468702113  0.3387055828329012  0.8625806003588607  1.0000
  N   N2        1.0  0.4240502198316136  0.32795539303427296  0.4707388178155157  1.0000
  N   N3        1.0  0.42403400160200266  0.023889418610430427  0.6613105389202047  1.0000
  N   N4        1.0  0.42397315115810125  0.6427757624279807  0.6720236181116804  1.0000
  N   N5        1.0  0.4242275147674661  0.13741329483193718  0.9761612137800242  1.0000
  N   N6        1.0  0.42423068723080337  0.5292631572289253  0.35717570625096323  1.0000
  O   O1        1.0  0.7125685937209808  0.5546563386220882  0.556406420936753  1.0000
  O   O2        1.0  0.712558714280867  0.5017894130044525  0.4453506917973158  1.0000
  O   O3        1.0  0.7125703334199329  0.443579596760479  0.4982139798353487  1.0000
  O   O4        1.0  0.23909556900822077  0.5626629034472117  0.5181929197087385  1.0000
  O   O5        1.0  0.23913537472225949  0.48179478686714117  0.5444465669664638  1.0000
  O   O6        1.0  0.2391216384686956  0.4555577481267719  0.4373336272275381  1.0000
  O   O7        1.0  0.7125405236191327  0.16488828226250274  0.8879857769105471  1.0000
  O   O8        1.0  0.7126082087184428  0.22307988080735452  0.8351091328585626  1.0000
  O   O9        1.0  0.712587644638738  0.11201611930435729  0.776929672117774  1.0000
  O   O10       1.0  0.23908998048026578  0.21111718785825684  0.8960038499242772  1.0000
  O   O11       1.0  0.2391210061243214  0.10400297570290475  0.8151423880081694  1.0000
  O   O12       1.0  0.23916298356307658  0.18486584478333173  0.7888806572523991  1.0000
  O   O13       1.0  0.27886262630819647  0.3148339670453384  0.8829520420639768  1.0000
  O   O14       1.0  0.5208233322590415  0.38630792176564915  0.887607647002831  1.0000
  O   O15       1.0  0.2788971376698939  0.3518306655743686  0.4503629672843772  1.0000
  O   O16       1.0  0.5207184271450559  0.2803530453772111  0.44571578905067355  1.0000
  O   O17       1.0  0.2788952466808893  0.06813542783017831  0.6851929527916739  1.0000
  O   O18       1.0  0.5206182833928211  0.0013261629615328992  0.6137034703760732  1.0000
  O   O19       1.0  0.27886451752819846  0.59852474371975  0.6481370422637694  1.0000
  O   O20       1.0  0.5205368634082177  0.6653426009467083  0.719631813903689  1.0000
  O   O21       1.0  0.27905727532694163  0.11702211851013551  0.9319202064850458  1.0000
  O   O22       1.0  0.5210415707182675  0.11240139618018948  0.9987533928711869  1.0000
  O   O23       1.0  0.27908910291741756  0.549654181153258  0.4014182189508233  1.0000
  O   O24       1.0  0.5209438029671105  0.5542696412603405  0.33457120031648924  1.0000
