data_image0
_chemical_formula_structural       Dy4Ag4H24C48N16O32
_chemical_formula_sum              "Dy4 Ag4 H24 C48 N16 O32"
_cell_length_a       8.055710199904581
_cell_length_b       10.075220994437807
_cell_length_c       18.333067207249368
_cell_angle_alpha    90.00059676678522
_cell_angle_beta     89.99994131412454
_cell_angle_gamma    95.5354597678464

_space_group_name_H-M_alt    "P 1"
_space_group_IT_number       1

loop_
  _space_group_symop_operation_xyz
  'x, y, z'

loop_
  _atom_site_type_symbol
  _atom_site_label
  _atom_site_symmetry_multiplicity
  _atom_site_fract_x
  _atom_site_fract_y
  _atom_site_fract_z
  _atom_site_occupancy
  Dy  Dy1       1.0  0.242302581813199  0.8584041483158844  0.1060648467982404  1.0000
  Dy  Dy2       1.0  0.2576987770385486  0.14159062937344663  0.6060664166073622  1.0000
  Dy  Dy3       1.0  0.7577022489479575  0.141593174836018  0.8939346638586372  1.0000
  Dy  Dy4       1.0  0.7422962460044218  0.8584077011405  0.3939325485921543  1.0000
  Ag  Ag1       1.0  0.8966709974545353  0.35203152131089155  0.0735885983219191  1.0000
  Ag  Ag2       1.0  0.6033442508041631  0.6479682440679255  0.5735876775002777  1.0000
  Ag  Ag3       1.0  0.1033380444650192  0.6479697868023848  0.926415821507561  1.0000
  Ag  Ag4       1.0  0.39666019197871094  0.35203606065129384  0.4264129241015694  1.0000
  H   H1        1.0  0.8855042726855872  0.6514240959066341  0.08411306370867068  1.0000
  H   H2        1.0  0.6145030405409458  0.3485718881132982  0.5841109721788769  1.0000
  H   H3        1.0  0.1145050130118364  0.34857920658384955  0.9158924470513837  1.0000
  H   H4        1.0  0.3854975567503232  0.6514314232310668  0.4158885384960698  1.0000
  H   H5        1.0  0.6856211412543588  0.8286205104049529  0.0929419253186765  1.0000
  H   H6        1.0  0.8143848086549285  0.17137464530200214  0.5929430942060564  1.0000
  H   H7        1.0  0.31438541826338456  0.17138080027498148  0.9070646763612301  1.0000
  H   H8        1.0  0.18561070194387239  0.8286276739197688  0.4070531436924298  1.0000
  H   H9        1.0  0.4842834363246098  0.358082386881442  0.08517651360340038  1.0000
  H   H10       1.0  0.015727974561130485  0.641912981387577  0.585181052506293  1.0000
  H   H11       1.0  0.5157257274839822  0.6419199183479662  0.9148208152168846  1.0000
  H   H12       1.0  0.984273620153111  0.35808833433765835  0.4148206400125787  1.0000
  H   H13       1.0  0.23370637967997962  0.36319789291171384  0.2561485213559251  1.0000
  H   H14       1.0  0.26628665256721723  0.6368027337280467  0.756149099277664  1.0000
  H   H15       1.0  0.7662903721196628  0.6368044250733149  0.7438515347795231  1.0000
  H   H16       1.0  0.733710099232411  0.3631995842673419  0.2438520477827097  1.0000
  H   H17       1.0  0.3795600832843392  0.053547802048306906  0.3830909007043387  1.0000
  H   H18       1.0  0.12043046329184648  0.9464552364403928  0.8830927689783437  1.0000
  H   H19       1.0  0.6204419989856901  0.9464575024002856  0.6169097009008979  1.0000
  H   H20       1.0  0.8795639279949656  0.05354808126366352  0.11690619623556839  1.0000
  H   H21       1.0  0.19591517655877055  0.20666319194602065  0.1484912471276374  1.0000
  H   H22       1.0  0.304069801810904  0.7933304131259576  0.648489975231513  1.0000
  H   H23       1.0  0.8040735185907479  0.7933341477856002  0.8515115363077255  1.0000
  H   H24       1.0  0.6959176521377871  0.20666692783205315  0.35150789904196245  1.0000
  C   C1        1.0  0.7514713380576624  0.6256495137530962  0.08639414443902639  1.0000
  C   C2        1.0  0.7485373381999808  0.3743475094613088  0.5863910485699506  1.0000
  C   C3        1.0  0.24853770386190635  0.3743517943498276  0.9136091844655354  1.0000
  C   C4        1.0  0.2514630153134192  0.6256538074954889  0.4136062802495033  1.0000
  C   C5        1.0  0.6407584126194196  0.7234275288826877  0.0914072489700644  1.0000
  C   C6        1.0  0.859243813726728  0.2765676015059242  0.591407362349095  1.0000
  C   C7        1.0  0.3592481468983522  0.27657378177653413  0.9085971708599913  1.0000
  C   C8        1.0  0.14075269429506673  0.7234327220760192  0.4085888755434651  1.0000
  C   C9        1.0  0.42069838365929974  0.5620154689570922  0.0929144958142984  1.0000
  C   C10       1.0  0.07931278324931408  0.4379780517701519  0.5929151130638814  1.0000
  C   C11       1.0  0.5793117775722436  0.4379848406687258  0.9070866512373001  1.0000
  C   C12       1.0  0.9206895651100878  0.5620192739018179  0.4070816702812508  1.0000
  C   C13       1.0  0.5304164336579263  0.4633189538355394  0.0876952040727446  1.0000
  C   C14       1.0  0.9695957223909061  0.536676095951215  0.587698935892135  1.0000
  C   C15       1.0  0.4695963318643591  0.5366823504174006  0.9123048520561738  1.0000
  C   C16       1.0  0.030406869746364907  0.46332322410830784  0.41230002930848997  1.0000
  C   C17       1.0  0.23422324351387402  0.530625953160353  0.09338900070034128  1.0000
  C   C18       1.0  0.2657915250962688  0.46936657555573186  0.5933880764730759  1.0000
  C   C19       1.0  0.7657890344526308  0.4693713623537051  0.9066105099548311  1.0000
  C   C20       1.0  0.734211067040995  0.5306327445089707  0.4066114341900188  1.0000
  C   C21       1.0  0.25830911782966137  0.25891208727883713  0.2609362872766354  1.0000
  C   C22       1.0  0.24168106622561678  0.7410856412209412  0.7609363814314491  1.0000
  C   C23       1.0  0.7416875120810148  0.7410892335382969  0.7390654052433803  1.0000
  C   C24       1.0  0.7583118400824063  0.25891568339440607  0.2390631292395682  1.0000
  C   C25       1.0  0.3425661772684947  0.08983142137575577  0.3304680670775966  1.0000
  C   C26       1.0  0.15742821615455682  0.9101716117149297  0.8304686202954557  1.0000
  C   C27       1.0  0.6574331788218544  0.9101718912622802  0.6695336254474924  1.0000
  C   C28       1.0  0.8425698987349364  0.0898317021702013  0.16953034491760377  1.0000
  C   C29       1.0  0.2384391594681006  0.17296790022206213  0.2011140868981087  1.0000
  C   C30       1.0  0.2615481780591935  0.8270257038727068  0.7011130268443182  1.0000
  C   C31       1.0  0.7615535030620038  0.8270314300471352  0.7988876056171179  1.0000
  C   C32       1.0  0.7384443625820013  0.1729726291871927  0.2988859383557738  1.0000
  C   C33       1.0  0.33496505351978106  0.006399828796737902  0.2698467685910089  1.0000
  C   C34       1.0  0.1650226479042445  0.9935980713579441  0.7698461587966817  1.0000
  C   C35       1.0  0.6650240072965944  0.9936005024748126  0.7301549239278912  1.0000
  C   C36       1.0  0.8349649279333989  0.006400266783494102  0.23015171547962146  1.0000
  C   C37       1.0  0.3985550428984724  0.8703218788911046  0.2720370728903204  1.0000
  C   C38       1.0  0.101435140870926  0.1296760602882969  0.772036463540303  1.0000
  C   C39       1.0  0.6014365003196502  0.1296784498603785  0.7279673469403249  1.0000
  C   C40       1.0  0.8985598821720444  0.8703222702256426  0.22796250165921353  1.0000
  C   C41       1.0  0.5425889233131471  0.0389731476993163  0.03255700650922929  1.0000
  C   C42       1.0  0.9574038624972873  0.9610248646336571  0.5325538962354058  1.0000
  C   C43       1.0  0.457406587285668  0.9610291715121021  0.9674381404643312  1.0000
  C   C44       1.0  0.0425907948789543  0.03897047425235909  0.46743688701869257  1.0000
  C   C45       1.0  0.043953041078154294  0.06824872290866318  0.012012359440937797  1.0000
  C   C46       1.0  0.4560560111790366  0.9317462564293777  0.5120118097679764  1.0000
  C   C47       1.0  0.9560515459050549  0.9317466059178018  0.9879915149100073  1.0000
  C   C48       1.0  0.543956898543641  0.06824607188421788  0.4879866099478747  1.0000
  N   N1        1.0  0.6960313170610917  0.49567926626300357  0.0835061073107539  1.0000
  N   N2        1.0  0.8039786004717654  0.5043177009030728  0.5835070019103127  1.0000
  N   N3        1.0  0.3039802072603024  0.5043220392629165  0.9164939488184557  1.0000
  N   N4        1.0  0.19602287235355934  0.4956826176128573  0.41649196329342425  1.0000
  N   N5        1.0  0.4761026710016765  0.6923128512191425  0.0937957774827254  1.0000
  N   N6        1.0  0.023902167990840405  0.3076796954140947  0.593796220613278  1.0000
  N   N7        1.0  0.5239037666271572  0.3076874622462995  0.906207551419584  1.0000
  N   N8        1.0  0.9760952155650102  0.6923176353445939  0.4062000172705282  1.0000
  N   N9        1.0  0.30635354980987733  0.21635216308742142  0.3262187387773068  1.0000
  N   N10       1.0  0.19364184114559885  0.7836487937170559  0.8262196434101625  1.0000
  N   N11       1.0  0.6936470474813774  0.7836511482672962  0.6737818628225722  1.0000
  N   N12       1.0  0.8063547887650913  0.21635252708455252  0.1737804127224649  1.0000
  N   N13       1.0  0.27541481805141643  0.046250908710938204  0.20591324062782948  1.0000
  N   N14       1.0  0.2245752455319661  0.9537447782864914  0.7059118306255244  1.0000
  N   N15       1.0  0.7245754839658431  0.9537494212928119  0.7940889973532563  1.0000
  N   N16       1.0  0.7754123303056774  0.046253559854946495  0.29408604365077196  1.0000
  O   O1        1.0  0.14891865992140652  0.6309449274204655  0.0927091150064427  1.0000
  O   O2        1.0  0.35109326063763996  0.36904459937129985  0.5927064878504494  1.0000
  O   O3        1.0  0.8510907699764446  0.3690493991099615  0.9072925774906864  1.0000
  O   O4        1.0  0.6489059958752392  0.6309477429346587  0.4072908409436096  1.0000
  O   O5        1.0  0.1781899648013692  0.4094615670791625  0.0922693781765673  1.0000
  O   O6        1.0  0.3218246819486907  0.5905299431789998  0.5922658482694843  1.0000
  O   O7        1.0  0.8218234324770819  0.5905347499733152  0.907729587013037  1.0000
  O   O8        1.0  0.6781796612566708  0.40946339124437253  0.4077342078385726  1.0000
  O   O9        1.0  0.49247320180844417  0.8461081485591962  0.3249272047202254  1.0000
  O   O10       1.0  0.007512137684251699  0.15389179670491868  0.8249251399277567  1.0000
  O   O11       1.0  0.5075158590079099  0.15389218273305968  0.6750766696485258  1.0000
  O   O12       1.0  0.9924854896494609  0.8461075284361571  0.17507273434908646  1.0000
  O   O13       1.0  0.3543103023673312  0.7927602068182082  0.21975428415630915  1.0000
  O   O14       1.0  0.1456787634365853  0.20723773852024852  0.7197535525826098  1.0000
  O   O15       1.0  0.6456788803379611  0.20724112165747502  0.78024959021527  1.0000
  O   O16       1.0  0.8543140209825281  0.792762588885793  0.2802432307732659  1.0000
  O   O17       1.0  0.49851774000234883  0.999499775930779  0.09592504476163548  1.0000
  O   O18       1.0  0.0014822337092680999  0.0005037865117429999  0.5959270152059231  1.0000
  O   O19       1.0  0.5014757757504996  0.0005065345344163996  0.9040673749114633  1.0000
  O   O20       1.0  0.9985230846076976  0.9994975253583431  0.4040708590748494  1.0000
  O   O21       1.0  0.65044586526939  0.1344294594869879  0.0166259326866438  1.0000
  O   O22       1.0  0.8495516196655333  0.8655762241585377  0.5166255985178835  1.0000
  O   O23       1.0  0.3495547320219359  0.8655738518159665  0.9833692142886008  1.0000
  O   O24       1.0  0.150452945006343  0.1344290777026984  0.4833706393870756  1.0000
  O   O25       1.0  0.1634574761130878  0.0654079196503403  0.0565995169330122  1.0000
  O   O26       1.0  0.3365426428116791  0.9345859204855527  0.5566006740249136  1.0000
  O   O27       1.0  0.8365533168746211  0.9345874027801883  0.943401084641728  1.0000
  O   O28       1.0  0.6634496540515826  0.0654104182385424  0.4434015639443132  1.0000
  O   O29       1.0  0.9869871246779668  0.17084331522812587  0.9854054778381567  1.0000
  O   O30       1.0  0.5130196906580977  0.8291562963741369  0.48540602658678716  1.0000
  O   O31       1.0  0.013016342993260814  0.8291530120806173  0.014601123828207099  1.0000
  O   O32       1.0  0.4869819040560941  0.1708450193873361  0.5145994841693307  1.0000
