data_image0
_chemical_formula_structural       Cu6H60C84O30
_chemical_formula_sum              "Cu6 H60 C84 O30"
_cell_length_a       14.35716835545216
_cell_length_b       18.688241873342093
_cell_length_c       18.690466771640278
_cell_angle_alpha    113.64079977578312
_cell_angle_beta     104.82280272807701
_cell_angle_gamma    104.89351138730528

_space_group_name_H-M_alt    "P 1"
_space_group_IT_number       1

loop_
  _space_group_symop_operation_xyz
  'x, y, z'

loop_
  _atom_site_type_symbol
  _atom_site_label
  _atom_site_symmetry_multiplicity
  _atom_site_fract_x
  _atom_site_fract_y
  _atom_site_fract_z
  _atom_site_occupancy
  Cu  Cu1       1.0  0.47363723460794926  0.0263163283834231  0.4501542973728406  1.0000
  Cu  Cu2       1.0  0.023585127191388663  0.5501549838067277  0.5766329983313766  1.0000
  Cu  Cu3       1.0  0.44677503142833797  0.4233301980665517  0.9735301557346433  1.0000
  Cu  Cu4       1.0  0.5263396455684983  0.9736684220415838  0.5497952462057826  1.0000
  Cu  Cu5       1.0  0.9764110804411317  0.44982784352259125  0.42334144880317837  1.0000
  Cu  Cu6       1.0  0.5531875914006648  0.5766398144190674  0.026471685231939452  1.0000
  H   H1        1.0  0.13750688140763856  0.390924699686515  0.8450463133449448  1.0000
  H   H2        1.0  0.29205806744365503  0.15486487411859426  0.5455527719354266  1.0000
  H   H3        1.0  0.7469319276287719  0.4541200395351765  0.6092690090094877  1.0000
  H   H4        1.0  0.8624752604755699  0.6090600281204601  0.1549475777076452  1.0000
  H   H5        1.0  0.7079513133623864  0.8451326507485464  0.45444031147594904  1.0000
  H   H6        1.0  0.2530537436595637  0.5458902412109551  0.390756189686229  1.0000
  H   H7        1.0  0.9787499116096187  0.5276864026203827  0.7607815123830124  1.0000
  H   H8        1.0  0.21794672526558403  0.23946417377953114  0.7667296697801335  1.0000
  H   H9        1.0  0.45086719686564436  0.2333569763495902  0.4726384948722285  1.0000
  H   H10       1.0  0.021250743735663543  0.47231239717715573  0.23921093040929975  1.0000
  H   H11       1.0  0.7820819158831753  0.7605314354952811  0.23327493130882712  1.0000
  H   H12       1.0  0.5491346407935326  0.7666284061782207  0.5273434218337911  1.0000
  H   H13       1.0  0.1451376884901521  0.6569200552259603  0.8421928387283872  1.0000
  H   H14       1.0  0.30284799614712904  0.15814193078806937  0.8146286191777393  1.0000
  H   H15       1.0  0.4877881623767878  0.18545376050926882  0.34341902654237805  1.0000
  H   H16       1.0  0.8548704726515266  0.3430691548720616  0.15780789504978535  1.0000
  H   H17       1.0  0.6971549993578349  0.841831306299767  0.18535451477379902  1.0000
  H   H18       1.0  0.5122530833990381  0.8145469704510474  0.6565815172327163  1.0000
  H   H19       1.0  0.310213482277689  0.6532995919182555  0.9247204204845048  1.0000
  H   H20       1.0  0.3849364145352254  0.07526209282798392  0.7281989691870125  1.0000
  H   H21       1.0  0.6566393820022898  0.2716144258934889  0.3469732032817632  1.0000
  H   H22       1.0  0.689786602834424  0.34668066774946044  0.07527621455776776  1.0000
  H   H23       1.0  0.6150642306122337  0.9247137028008227  0.2717793899891278  1.0000
  H   H24       1.0  0.343414280326094  0.7284080268104489  0.6530582903675325  1.0000
  H   H25       1.0  0.972182275866288  0.33085537892163325  0.8413276729277613  1.0000
  H   H26       1.0  0.13124338630176172  0.15896198508062306  0.4894889834957895  1.0000
  H   H27       1.0  0.6414496179877318  0.5105193916036725  0.6691983120273619  1.0000
  H   H28       1.0  0.0277754003097855  0.6690922906002329  0.15861712721795834  1.0000
  H   H29       1.0  0.8687730662797152  0.8410726033725171  0.5105300292260966  1.0000
  H   H30       1.0  0.35848391219815323  0.4894659511421012  0.3308003266646012  1.0000
  H   H31       1.0  0.8098271838780563  0.196025046504154  0.7527042376798223  1.0000
  H   H32       1.0  0.057936580298885994  0.24764269772703784  0.4433065559546421  1.0000
  H   H33       1.0  0.6138311714347395  0.5566850338358407  0.8037814285514814  1.0000
  H   H34       1.0  0.1901197385479634  0.8039315776649616  0.24722229126768983  1.0000
  H   H35       1.0  0.9420803419587785  0.7524155184750398  0.5567547024093856  1.0000
  H   H36       1.0  0.38612360742244795  0.4432894489742197  0.19622176462218732  1.0000
  H   H37       1.0  0.7366681781728984  0.2589607236974344  0.5537603471529735  1.0000
  H   H38       1.0  0.18284291544136272  0.4463274179400045  0.7051048915218844  1.0000
  H   H39       1.0  0.47756052695086043  0.29485811276731516  0.7412591944724272  1.0000
  H   H40       1.0  0.26333784219494316  0.7410534326750096  0.4462093580359365  1.0000
  H   H41       1.0  0.8172267603067809  0.5537225097343565  0.2949600307615513  1.0000
  H   H42       1.0  0.5224249047664388  0.7051157427552043  0.2587470050992664  1.0000
  H   H43       1.0  0.900506291314194  0.39316487208215983  0.6408285274198278  1.0000
  H   H44       1.0  0.25917491830747963  0.35915868955353153  0.7521545842675794  1.0000
  H   H45       1.0  0.5072250482198227  0.2478070996193722  0.6072361427715975  1.0000
  H   H46       1.0  0.09949991459382096  0.6068479944524654  0.35916156054531007  1.0000
  H   H47       1.0  0.7408767836511815  0.6408656839465507  0.24786981307079975  1.0000
  H   H48       1.0  0.4927457693728599  0.7521693118335692  0.392760231580752  1.0000
  H   H49       1.0  0.34599108830656183  0.9799332686031479  0.30088454463828646  1.0000
  H   H50       1.0  0.04479081784251096  0.6993644512366332  0.6790826150746484  1.0000
  H   H51       1.0  0.3654905412780706  0.3204946863799307  0.020356021310561745  1.0000
  H   H52       1.0  0.6540060757902636  0.020055958876731905  0.6990766146202604  1.0000
  H   H53       1.0  0.9552343996201245  0.3006931322819  0.3209735739169589  1.0000
  H   H54       1.0  0.6345024177861945  0.6794900441541929  0.9796415701076671  1.0000
  H   H55       1.0  0.4586525131744636  0.008888688723566  0.30509542203608225  1.0000
  H   H56       1.0  0.15337526320178796  0.6956455774128756  0.7044304858923311  1.0000
  H   H57       1.0  0.44905299619117767  0.2957204276277211  0.9913389934833747  1.0000
  H   H58       1.0  0.5413461232816631  0.9910890331038047  0.694866202996728  1.0000
  H   H59       1.0  0.8466582188224197  0.30441839726947967  0.29563415779852426  1.0000
  H   H60       1.0  0.5509356752345625  0.7042572770077414  0.008645307109361502  1.0000
  C   C1        1.0  0.331514596004773  0.5156608794154778  0.93282842036772  1.0000
  C   C2        1.0  0.3979844059924816  0.06709683128039497  0.5825497216486826  1.0000
  C   C3        1.0  0.8159803988070422  0.41712610212512413  0.48450859440178123  1.0000
  C   C4        1.0  0.6684712144218494  0.4843353449320206  0.06718525780354416  1.0000
  C   C5        1.0  0.6019964002924781  0.9328840769520498  0.4174150854220571  1.0000
  C   C6        1.0  0.18403487974715918  0.5829001664566107  0.5155271710841802  1.0000
  C   C7        1.0  0.23295730499498296  0.5217112829760923  0.8899214687574217  1.0000
  C   C8        1.0  0.3424286762514797  0.1099775155501561  0.6314211685627811  1.0000
  C   C9        1.0  0.7112623021327948  0.36829664433994935  0.4785152193915749  1.0000
  C   C10       1.0  0.7670309369397758  0.4782798355693246  0.11007992274722507  1.0000
  C   C11       1.0  0.657563796181769  0.89000786353364  0.36855946872615436  1.0000
  C   C12       1.0  0.28875023500401636  0.6317213179930191  0.521511854199133  1.0000
  C   C13       1.0  0.1377048770848505  0.4494295394500797  0.8455636416964438  1.0000
  C   C14       1.0  0.2916742621689963  0.1543679929937412  0.6035394947872987  1.0000
  C   C15       1.0  0.6884275537941918  0.3962106109894847  0.5508066594735866  1.0000
  C   C16       1.0  0.8622834438149173  0.5505545498455505  0.15443386356895425  1.0000
  C   C17       1.0  0.7083407938018665  0.8456365642584203  0.39645644995492546  1.0000
  C   C18       1.0  0.3115597770803262  0.6037958385438175  0.44921250193196033  1.0000
  C   C19       1.0  0.04529784052301263  0.45025754557364905  0.7983071785037766  1.0000
  C   C20       1.0  0.24677317565473086  0.20176034519165847  0.6517067882117901  1.0000
  C   C21       1.0  0.5951111988370458  0.34817658339549956  0.5499969386973619  1.0000
  C   C22       1.0  0.9546911013501785  0.5497278241973335  0.20168721751369384  1.0000
  C   C23       1.0  0.7532677451353322  0.798257001133635  0.34830145555953607  1.0000
  C   C24       1.0  0.40487464679582524  0.6518183679217131  0.4500071378826362  1.0000
  C   C25       1.0  0.04970874510659938  0.5259990276347252  0.7977026707704482  1.0000
  C   C26       1.0  0.2518820273598408  0.2024707128796308  0.728101616563066  1.0000
  C   C27       1.0  0.5236136086938857  0.2718837781632645  0.47429913106577715  1.0000
  C   C28       1.0  0.9502837890709371  0.4739863445459775  0.20229028152657244  1.0000
  C   C29       1.0  0.7481353158448272  0.7975210593286235  0.27189711153910406  1.0000
  C   C30       1.0  0.4763936838826056  0.728106717328849  0.5256885764240239  1.0000
  C   C31       1.0  0.14391565684967839  0.5990310823075049  0.8437525916528088  1.0000
  C   C32       1.0  0.2998643307894754  0.15636321526180552  0.7550401630615299  1.0000
  C   C33       1.0  0.5445930271897765  0.2449180219701859  0.40125090835392296  1.0000
  C   C34       1.0  0.8560826494432305  0.4009600423248401  0.15624593539186546  1.0000
  C   C35       1.0  0.7001473670875458  0.8436202521314089  0.24494503124824973  1.0000
  C   C36       1.0  0.4554367344871794  0.7550827000184485  0.5987565041541885  1.0000
  C   C37       1.0  0.2357726406048571  0.5972108798258519  0.889651122382418  1.0000
  C   C38       1.0  0.34555537346202675  0.11030574033639341  0.7071841631429623  1.0000
  C   C39       1.0  0.6383497954977599  0.2926378332799047  0.4030428461307879  1.0000
  C   C40       1.0  0.7642155940825076  0.4027744882026171  0.11034581120670592  1.0000
  C   C41       1.0  0.6544543234699561  0.8896809214835174  0.292802465576905  1.0000
  C   C42       1.0  0.3616841721681682  0.7073769441573107  0.5969812080069374  1.0000
  C   C43       1.0  0.9474223322704063  0.3714989266198289  0.7472934719205355  1.0000
  C   C44       1.0  0.2001185404737171  0.2528758727976523  0.6240709665129742  1.0000
  C   C45       1.0  0.5759411840097286  0.3758629275429258  0.6286952591727301  1.0000
  C   C46       1.0  0.0525628532345408  0.6284877281781718  0.2526862685222325  1.0000
  C   C47       1.0  0.7999266537259899  0.7471542523443232  0.375950742518306  1.0000
  C   C48       1.0  0.42402010935489903  0.6241160364310048  0.371301369585666  1.0000
  C   C49       1.0  0.9212432561419561  0.31482581613419575  0.777875743526785  1.0000
  C   C50       1.0  0.14372328143785046  0.22238902726181217  0.5368871528053631  1.0000
  C   C51       1.0  0.6064703789017472  0.4630669035265456  0.685222067786498  1.0000
  C   C52       1.0  0.07871746254234321  0.6851308009245756  0.22207431986726095  1.0000
  C   C53       1.0  0.8563155440997647  0.7776513162038798  0.4631459999079014  1.0000
  C   C54       1.0  0.3934833084582081  0.5369069455570356  0.3147704931165975  1.0000
  C   C55       1.0  0.8303268476829969  0.23967659575109931  0.7288412204539867  1.0000
  C   C56       1.0  0.10207597648972212  0.27146423942463127  0.5107760514804768  1.0000
  C   C57       1.0  0.5906180904586266  0.4891791626879893  0.7602839603760289  1.0000
  C   C58       1.0  0.16963946563009813  0.7602870626967259  0.2710956412168954  1.0000
  C   C59       1.0  0.8979663505355759  0.7285901574469946  0.4892768158691894  1.0000
  C   C60       1.0  0.4093320099660502  0.5107946833855976  0.23971111511779242  1.0000
  C   C61       1.0  0.7632763954784708  0.2196564060844963  0.6480224909136683  1.0000
  C   C62       1.0  0.11571470967962938  0.35223666872829534  0.5715410593177382  1.0000
  C   C63       1.0  0.543548482836357  0.4284531355307238  0.7804526850277682  1.0000
  C   C64       1.0  0.23670025240720355  0.780336659826496  0.35191698134958943  1.0000
  C   C65       1.0  0.8843509150506109  0.6478254046192333  0.4285199455635791  1.0000
  C   C66       1.0  0.45642102189806627  0.5715277433208997  0.21955540036508836  1.0000
  C   C67       1.0  0.7887997448224267  0.2756391342199365  0.6169570651240548  1.0000
  C   C68       1.0  0.17190423220249326  0.38320548994018816  0.6585619115595025  1.0000
  C   C69       1.0  0.5130810300197339  0.34141947863243877  0.7246035362095355  1.0000
  C   C70       1.0  0.21119885001914443  0.7243673488960668  0.3830113218675065  1.0000
  C   C71       1.0  0.8281661725150613  0.6168431679470742  0.34148819438534156  1.0000
  C   C72       1.0  0.48689349293504597  0.6585556534960446  0.2753973204499687  1.0000
  C   C73       1.0  0.8798719047435525  0.3507231870126403  0.6660554148814982  1.0000
  C   C74       1.0  0.2136897358758389  0.33405819362793204  0.6845187809946296  1.0000
  C   C75       1.0  0.5291215687647579  0.3154491833607906  0.6495908645379559  1.0000
  C   C76       1.0  0.12013174129758407  0.649290317441704  0.3339349695017121  1.0000
  C   C77       1.0  0.7863692629430473  0.6659706543747602  0.3155115065405737  1.0000
  C   C78       1.0  0.470843118939193  0.6845221097837211  0.3504086818238719  1.0000
  C   C79       1.0  0.6657361372581788  0.13965608239719524  0.5949382906103082  1.0000
  C   C80       1.0  0.0712444391091793  0.40534656414922676  0.5445188561221741  1.0000
  C   C81       1.0  0.5262168855879353  0.4554791387554503  0.8606421829946955  1.0000
  C   C82       1.0  0.3342328716021967  0.8603376236424155  0.4049935401861617  1.0000
  C   C83       1.0  0.9288064839046302  0.5947091104555329  0.45554207545615827  1.0000
  C   C84       1.0  0.47375927087248476  0.5445049368246444  0.13937008292671044  1.0000
  O   O1        1.0  0.40846016820623277  0.031162150109679508  0.3216727216052392  1.0000
  O   O2        1.0  0.08637041439696705  0.678755136458456  0.7097867280656232  1.0000
  O   O3        1.0  0.376553102618317  0.2900211982556513  0.9690960120359692  1.0000
  O   O4        1.0  0.591539876446255  0.9688213272203329  0.6782856090241227  1.0000
  O   O5        1.0  0.9136675424926397  0.3213235385622398  0.29028470338631257  1.0000
  O   O6        1.0  0.623442699684027  0.7099750402824085  0.030900344926706604  1.0000
  O   O7        1.0  0.32260668126527053  0.442781948272881  0.9251542756748921  1.0000
  O   O8        1.0  0.3971796199576475  0.07481022297704952  0.5174068798237812  1.0000
  O   O9        1.0  0.8800633812386138  0.48226914087589284  0.5573465548337923  1.0000
  O   O10       1.0  0.6773614182232207  0.5572104287278916  0.07486672982206233  1.0000
  O   O11       1.0  0.6028039871117555  0.9251777157726621  0.48256183646714135  1.0000
  O   O12       1.0  0.11992638060372224  0.5177552082245923  0.4426722617807783  1.0000
  O   O13       1.0  0.4175764549466621  0.5827263706873537  0.9725139804796187  1.0000
  O   O14       1.0  0.44416334433928023  0.027153112708909105  0.6096701656037666  1.0000
  O   O15       1.0  0.8348807096284789  0.38971115189045247  0.4174471716952652  1.0000
  O   O16       1.0  0.5824214484347081  0.4172609109016819  0.02749790156280338  1.0000
  O   O17       1.0  0.5558176021560682  0.9728252416594714  0.3902893595979009  1.0000
  O   O18       1.0  0.1651424642109873  0.6103093715357489  0.5825808526031437  1.0000
  O   O19       1.0  0.6518365045536498  0.0848412996923358  0.620275718185809  1.0000
  O   O20       1.0  0.03204378523456342  0.37970422846793644  0.4644145869286405  1.0000
  O   O21       1.0  0.5672809401052205  0.5356114592530759  0.9151138586770174  1.0000
  O   O22       1.0  0.34812079489858416  0.9151492094266162  0.37964827767833514  1.0000
  O   O23       1.0  0.9680121667377295  0.6203456982131358  0.5356412576568772  1.0000
  O   O24       1.0  0.43269080511240093  0.4643636602028139  0.08490732153664741  1.0000
  O   O25       1.0  0.6020112513809722  0.1309986747111651  0.5271059381394994  1.0000
  O   O26       1.0  0.07556328752566094  0.47312154981986515  0.6037549461829741  1.0000
  O   O27       1.0  0.4713582200698454  0.39616436424016405  0.8692541870151447  1.0000
  O   O28       1.0  0.3979668552083169  0.8690046232887241  0.47282670234996255  1.0000
  O   O29       1.0  0.9244689695065206  0.526915587613182  0.396290624490888  1.0000
  O   O30       1.0  0.5286076528984296  0.6038107652864042  0.1307444589610327  1.0000
