data_image0
_chemical_formula_structural       Cd4H28C12N4Cl8O8
_chemical_formula_sum              "Cd4 H28 C12 N4 Cl8 O8"
_cell_length_a       6.982363007002543
_cell_length_b       8.265849542004647
_cell_length_c       12.448765312006714
_cell_angle_alpha    90.00011940802739
_cell_angle_beta     90.00005281375165
_cell_angle_gamma    89.99997829071653

_space_group_name_H-M_alt    "P 1"
_space_group_IT_number       1

loop_
  _space_group_symop_operation_xyz
  'x, y, z'

loop_
  _atom_site_type_symbol
  _atom_site_label
  _atom_site_symmetry_multiplicity
  _atom_site_fract_x
  _atom_site_fract_y
  _atom_site_fract_z
  _atom_site_occupancy
  Cd  Cd1       1.0  0.18476982384352436  0.24999760303473567  0.22344089230913508  1.0000
  Cd  Cd2       1.0  0.6847710502728149  0.24999758669718375  0.2765580367354588  1.0000
  Cd  Cd3       1.0  0.31523568928025014  0.749998988126592  0.7234434976342925  1.0000
  Cd  Cd4       1.0  0.8152283226292528  0.750001391380998  0.7765582321807969  1.0000
  H   H1        1.0  0.9284650998853723  0.35536051672886526  0.6283007358296615  1.0000
  H   H2        1.0  0.42845963037996887  0.355363414221884  0.8716933180701786  1.0000
  H   H3        1.0  0.928460839378481  0.14464654339506217  0.6283021954399715  1.0000
  H   H4        1.0  0.5715413444224852  0.8553422947584296  0.1283123797288823  1.0000
  H   H5        1.0  0.0715316144045417  0.6446481560519145  0.3716911590337233  1.0000
  H   H6        1.0  0.5715399482732978  0.6446355801985676  0.1283090195904748  1.0000
  H   H7        1.0  0.07153301055234351  0.8553621293925461  0.3716937158846747  1.0000
  H   H8        1.0  0.4284539376914581  0.1446518604711144  0.8716875480488754  1.0000
  H   H9        1.0  0.24551722890856814  0.3564168681238798  0.6690024506730268  1.0000
  H   H10       1.0  0.7455113140701717  0.35641944086914645  0.8309994692082299  1.0000
  H   H11       1.0  0.24551440094422364  0.14357970104644116  0.6690014989255247  1.0000
  H   H12       1.0  0.25448393164703736  0.8564167206226613  0.1689990004415378  1.0000
  H   H13       1.0  0.7544866462840859  0.6435772870977133  0.3309934606461056  1.0000
  H   H14       1.0  0.2544768071440232  0.6435759241588174  0.1690004585670692  1.0000
  H   H15       1.0  0.7544851777059595  0.856431391335285  0.3309952156959639  1.0000
  H   H16       1.0  0.7455070539268506  0.14358106400124632  0.8310025339217972  1.0000
  H   H17       1.0  0.4929850255091638  0.2500004837371463  0.558872693089647  1.0000
  H   H18       1.0  0.9929791503865318  0.2500021895540813  0.9411309127376626  1.0000
  H   H19       1.0  0.007018996085811602  0.749996804857908  0.0588658018747239  1.0000
  H   H20       1.0  0.5070102566027473  0.7500021400664141  0.4411240215239546  1.0000
  H   H21       1.0  0.34093331796142234  0.34859884566708405  0.47928086287242877  1.0000
  H   H22       1.0  0.8409287234093555  0.348604081819211  0.0207231672366888  1.0000
  H   H23       1.0  0.34093478386248693  0.15140072444165753  0.47927992203511843  1.0000
  H   H24       1.0  0.15907082152091337  0.8485978730056448  0.9792744882177047  1.0000
  H   H25       1.0  0.6590777181321317  0.6513940997660868  0.5207214747892834  1.0000
  H   H26       1.0  0.15906942306278896  0.6513961223897765  0.9792735473765433  1.0000
  H   H27       1.0  0.6590776844083667  0.8486091581517743  0.5207240222240941  1.0000
  H   H28       1.0  0.8409258927712532  0.15140354100187642  0.020723029688227302  1.0000
  C   C1        1.0  0.9347953251998649  0.24999905373827866  0.4736226749680554  1.0000
  C   C2        1.0  0.4347610875678215  0.2500020859678074  0.02638532044881  1.0000
  C   C3        1.0  0.5652298980063366  0.7499932790608457  0.9736154106203257  1.0000
  C   C4        1.0  0.06523146487374022  0.7500011504937946  0.5263925153862132  1.0000
  C   C5        1.0  0.9975763846860137  0.25000164302205263  0.5906198488447316  1.0000
  C   C6        1.0  0.4975480138930593  0.25000586765057164  0.9093885809573763  1.0000
  C   C7        1.0  0.5024401073215544  0.749987077783388  0.0906113468162388  1.0000
  C   C8        1.0  0.0024489732067892005  0.7500046101965694  0.40939614480561204  1.0000
  C   C9        1.0  0.2122147589203963  0.2499994248771814  0.6201147819289545  1.0000
  C   C10       1.0  0.7121888111928032  0.24999973022620745  0.8798821390769547  1.0000
  C   C11       1.0  0.28780074220150453  0.7499944250044737  0.1201177886981668  1.0000
  C   C12       1.0  0.7877991415298027  0.7500044087171889  0.3798803261090313  1.0000
  N   N1        1.0  0.3540850520849191  0.24999925679878748  0.5301894633107622  1.0000
  N   N2        1.0  0.8540734585858093  0.2500022617091632  0.969811604767969  1.0000
  N   N3        1.0  0.14592468788624302  0.749996732700318  0.030183503259387102  1.0000
  N   N4        1.0  0.6459130943883128  0.7500021572184539  0.4698144809359519  1.0000
  Cl  Cl1       1.0  0.41260384711831233  0.4687060144891151  0.3163620114356291  1.0000
  Cl  Cl2       1.0  0.9125978791397249  0.46870328927425237  0.1836406456094721  1.0000
  Cl  Cl3       1.0  0.41260248973726027  0.031293020021976814  0.3163633129249561  1.0000
  Cl  Cl4       1.0  0.0873987603553488  0.9687050702219301  0.8163595872648272  1.0000
  Cl  Cl5       1.0  0.5873942993541167  0.5312941897223737  0.6836363097626332  1.0000
  Cl  Cl6       1.0  0.08739740297336601  0.5312932855455446  0.816356872292424  1.0000
  Cl  Cl7       1.0  0.5873956567362414  0.9687059744000098  0.6836398280275588  1.0000
  Cl  Cl8       1.0  0.9125979539372296  0.03129392419158711  0.18363793063941364  1.0000
  O   O1        1.0  0.05942117376454092  0.25000032282049034  0.40033869916658193  1.0000
  O   O2        1.0  0.5594366582015766  0.24999733616522948  0.0996689507113544  1.0000
  O   O3        1.0  0.4405557595509962  0.750001658246639  0.9003269606058808  1.0000
  O   O4        1.0  0.9405655152701657  0.7500010912052772  0.5996692615374357  1.0000
  O   O5        1.0  0.7534784815635974  0.24999906299990482  0.4565044280090547  1.0000
  O   O6        1.0  0.25345141099947455  0.24999972888281968  0.0434744819634858  1.0000
  O   O7        1.0  0.7465381423947338  0.7499992655421153  0.9565294622775795  1.0000
  O   O8        1.0  0.24654830850443696  0.7500023509829036  0.543481040522984  1.0000
