data_image0
_chemical_formula_structural       Ag2H6C6N8O4
_chemical_formula_sum              "Ag2 H6 C6 N8 O4"
_cell_length_a       5.257138381461467
_cell_length_b       7.507733570064408
_cell_length_c       8.265367414978913
_cell_angle_alpha    110.26095923171329
_cell_angle_beta     102.38357481841096
_cell_angle_gamma    104.05607390147661

_space_group_name_H-M_alt    "P 1"
_space_group_IT_number       1

loop_
  _space_group_symop_operation_xyz
  'x, y, z'

loop_
  _atom_site_type_symbol
  _atom_site_label
  _atom_site_symmetry_multiplicity
  _atom_site_fract_x
  _atom_site_fract_y
  _atom_site_fract_z
  _atom_site_occupancy
  Ag  Ag1       1.0  0.6030764671304281  0.8298834213936814  0.9613671999747951  1.0000
  Ag  Ag2       1.0  0.39693062340383983  0.17011824333194167  0.038632158855712376  1.0000
  H   H1        1.0  0.1418793924846398  0.179671186699089  0.5882949123737973  1.0000
  H   H2        1.0  0.8581197588596934  0.820325941996614  0.4117032563161445  1.0000
  H   H3        1.0  0.19418551896829672  0.41154761385853766  0.5630109023880436  1.0000
  H   H4        1.0  0.8058144073385733  0.5884510315601401  0.4369890557763227  1.0000
  H   H5        1.0  0.7701327864899739  0.08976123155493808  0.7518539144094731  1.0000
  H   H6        1.0  0.2298760795285231  0.9102434801555429  0.24815389593862844  1.0000
  C   C1        1.0  0.8340766574667029  0.16814197469703626  0.356246822049151  1.0000
  C   C2        1.0  0.16592153131740858  0.8318612111364415  0.6437543872546385  1.0000
  C   C3        1.0  0.037827311163567856  0.27711691966742075  0.5526617557262625  1.0000
  C   C4        1.0  0.9621733337160518  0.7228832390895047  0.44733877377036174  1.0000
  C   C5        1.0  0.773014814093429  0.24028257398208538  0.7678176501480253  1.0000
  C   C6        1.0  0.22698388416569049  0.7597175849748723  0.2321826479199345  1.0000
  N   N1        1.0  0.9009908414024251  0.34324465612498745  0.6857660661054226  1.0000
  N   N2        1.0  0.09901375310797512  0.6567555056166015  0.314236144390712  1.0000
  N   N3        1.0  0.8655573264059625  0.5237131803918513  0.7350196849251347  1.0000
  N   N4        1.0  0.13444254351112045  0.4762854616420995  0.2649790550970578  1.0000
  N   N5        1.0  0.7226685020877143  0.5297762339874623  0.8461310767805089  1.0000
  N   N6        1.0  0.2773293648190815  0.4702224048617936  0.1538662136708311  1.0000
  N   N7        1.0  0.6605812235227545  0.35511272833831947  0.8698544801497975  1.0000
  N   N8        1.0  0.33941813691931333  0.6448889405721588  0.13014517110822513  1.0000
  O   O1        1.0  0.9034771975181074  0.0395795353044761  0.24541458540588224  1.0000
  O   O2        1.0  0.09651898825571673  0.9604236473443064  0.7545851743270616  1.0000
  O   O3        1.0  0.6218395449630094  0.21822474522663524  0.3245094418796556  1.0000
  O   O4        1.0  0.37816013735637427  0.7817814706680647  0.6754941282308167  1.0000
