data_image0
_chemical_formula_structural       Zn2H22C22N6O10
_chemical_formula_sum              "Zn2 H22 C22 N6 O10"
_cell_length_a       9.06282159306835
_cell_length_b       9.761593677119643
_cell_length_c       10.704262729903325
_cell_angle_alpha    92.34273348284222
_cell_angle_beta     102.95652186158021
_cell_angle_gamma    101.00187059528487

_space_group_name_H-M_alt    "P 1"
_space_group_IT_number       1

loop_
  _space_group_symop_operation_xyz
  'x, y, z'

loop_
  _atom_site_type_symbol
  _atom_site_label
  _atom_site_symmetry_multiplicity
  _atom_site_fract_x
  _atom_site_fract_y
  _atom_site_fract_z
  _atom_site_occupancy
  Zn  Zn1       1.0  0.5322649860264761  0.6622501409951981  0.51102452091434  1.0000
  Zn  Zn2       1.0  0.4921196119768537  0.35585181253191683  0.498767119989047  1.0000
  H   H1        1.0  0.5970926054522322  0.32997313635300424  0.14606634553972236  1.0000
  H   H2        1.0  0.6848496773003632  0.1567784951522526  0.04063639154273348  1.0000
  H   H3        1.0  0.22819551349188322  0.6926867256496865  0.9882313887449214  1.0000
  H   H4        1.0  0.1181264370169686  0.48374340008391664  0.1183507583802736  1.0000
  H   H5        1.0  0.07546310787022041  0.654514240995077  0.1262930545545018  1.0000
  H   H6        1.0  0.22333712735778727  0.6116473118644451  0.2475036965943005  1.0000
  H   H7        1.0  0.8003851457014336  0.9811649236292653  0.4014554421435719  1.0000
  H   H8        1.0  0.6250354225991401  0.9820577959003104  0.19051840578629956  1.0000
  H   H9        1.0  0.5345594166324332  0.8075327360709892  0.2115968149404921  1.0000
  H   H10       1.0  0.7296166074896818  0.8431294305700662  0.1983958431927064  1.0000
  H   H11       1.0  0.2882199207083858  0.20431699713807214  0.6161877489287945  1.0000
  H   H12       1.0  0.3658029598554435  0.6482048297195889  0.8499149722533872  1.0000
  H   H13       1.0  0.12321439382731815  0.9715249574884054  0.6824078801235344  1.0000
  H   H14       1.0  0.21630606026248958  0.11641898598450241  0.7980067515168088  1.0000
  H   H15       1.0  0.30632607290701935  0.971185525257624  0.7866280249395387  1.0000
  H   H16       1.0  0.6259511364129865  0.16634710927723262  0.37908472629509044  1.0000
  H   H17       1.0  0.36722879153315807  0.841513108504465  0.6326282081097077  1.0000
  H   H18       1.0  0.8632485807249991  0.30856856069032546  0.3332371266022846  1.0000
  H   H19       1.0  0.0536003881468616  0.7728514589393783  0.5333603793100323  1.0000
  H   H20       1.0  0.6793684703652331  0.32812102551176997  0.8250215800973989  1.0000
  H   H21       1.0  0.8402150305672791  0.3058975649159237  0.08490729961449256  1.0000
  H   H22       1.0  0.8261102019561833  0.1897957856236374  0.9481501910262722  1.0000
  C   C1        1.0  0.5403559326558778  0.5194330345439583  0.7451168269213255  1.0000
  C   C2        1.0  0.4180675892133934  0.5800431688930985  0.9169586577294736  1.0000
  C   C3        1.0  0.4541577720840877  0.48190624385622977  0.12056536141484739  1.0000
  C   C4        1.0  0.5149468401090758  0.5017122285380609  0.8756175213188157  1.0000
  C   C5        1.0  0.5693624719314556  0.09357836866624332  0.43657155111976215  1.0000
  C   C6        1.0  0.42566057152356507  0.9163671181151046  0.5777088264942875  1.0000
  C   C7        1.0  0.5941051504899519  0.9575088515076831  0.4408401422795123  1.0000
  C   C8        1.0  0.4045272115374771  0.05739773238713039  0.576094263902938  1.0000
  C   C9        1.0  0.9406595679886464  0.3033614629916883  0.4290331153445591  1.0000
  C   C10       1.0  0.0675901597373709  0.6836026300821629  0.5936789576675849  1.0000
  C   C11       1.0  0.7584304731505894  0.24013864128629342  0.002098506765406675  1.0000
  C   C12       1.0  0.454139720748138  0.4821160166023546  0.26000956522833  1.0000
  C   C13       1.0  0.1694864114304337  0.596477178332222  0.1441137308880016  1.0000
  C   C14       1.0  0.643322855701875  0.8852874163783822  0.23695643074578498  1.0000
  C   C15       1.0  0.23582672840119298  0.037583303001135  0.7309643758376865  1.0000
  C   C16       1.0  0.2087911747737294  0.46789990937372034  0.50006656771329  1.0000
  C   C17       1.0  0.8043587827808736  0.5285956201544691  0.5175768007140888  1.0000
  C   C18       1.0  0.03700668501873851  0.44155804912212204  0.4912388116801906  1.0000
  C   C19       1.0  0.9744275753529337  0.5440984613186403  0.5325527876127794  1.0000
  C   C20       1.0  0.5788033033581428  0.4038204963136067  0.9561744401051512  1.0000
  C   C21       1.0  0.3818351295161904  0.5711272291835243  0.03714223041802  1.0000
  C   C22       1.0  0.5470073241459161  0.39892389819491564  0.07883818116268768  1.0000
  N   N1        1.0  0.5179359622640618  0.8702641170195021  0.5119366164773353  1.0000
  N   N2        1.0  0.4800252378282579  0.1440388627800218  0.5033255522433819  1.0000
  N   N3        1.0  0.6697384525323711  0.3213410288681544  0.9175409634415032  1.0000
  N   N4        1.0  0.2790468711988723  0.6502507550767972  0.0676232811150541  1.0000
  N   N5        1.0  0.6979998393327734  0.9090263394148723  0.3781723174289695  1.0000
  N   N6        1.0  0.3148137746618787  0.11018390573620708  0.6415211255582776  1.0000
  O   O1        1.0  0.515721868181089  0.6308594134869452  0.6931045660691453  1.0000
  O   O2        1.0  0.14697785554595552  0.7014178324697299  0.7039459969077058  1.0000
  O   O3        1.0  0.42525709771226167  0.36489088169058453  0.3071087832746997  1.0000
  O   O4        1.0  0.5828742056040426  0.4196771369737107  0.6883217231985341  1.0000
  O   O5        1.0  0.49255642144846223  0.6019390447412861  0.3234655005964484  1.0000
  O   O6        1.0  0.2705411208607345  0.5886286378402092  0.4781529751084221  1.0000
  O   O7        1.0  0.7205454547860981  0.4083720798080607  0.47554040721943375  1.0000
  O   O8        1.0  0.2746892745082121  0.36479507038878023  0.5265131285031899  1.0000
  O   O9        1.0  0.7604107578602067  0.6390471695163029  0.5471891325677447  1.0000
  O   O10       1.0  0.9534481292733686  0.19106380640663903  0.47302243453663106  1.0000
