data_image0
_chemical_formula_structural       La2H26C38S2N4O16
_chemical_formula_sum              "La2 H26 C38 S2 N4 O16"
_cell_length_a       8.521873526419244
_cell_length_b       10.75654259301116
_cell_length_c       11.20330327751872
_cell_angle_alpha    79.95518834876563
_cell_angle_beta     71.83829070527754
_cell_angle_gamma    88.84154292006839

_space_group_name_H-M_alt    "P 1"
_space_group_IT_number       1

loop_
  _space_group_symop_operation_xyz
  'x, y, z'

loop_
  _atom_site_type_symbol
  _atom_site_label
  _atom_site_symmetry_multiplicity
  _atom_site_fract_x
  _atom_site_fract_y
  _atom_site_fract_z
  _atom_site_occupancy
  La  La1       1.0  0.164838614589506  0.5804027712413172  0.1996445950905184  1.0000
  La  La2       1.0  0.8351542873058121  0.41959800140001857  0.800356281951494  1.0000
  H   H1        1.0  0.4653283376321724  0.43092661681788513  0.287732283949751  1.0000
  H   H2        1.0  0.5346721078170872  0.5690750920878572  0.7122691956303343  1.0000
  H   H3        1.0  0.3093513740527171  0.43023392438583846  0.4061735167759934  1.0000
  H   H4        1.0  0.6906515703340403  0.5697677816855559  0.5938282199824344  1.0000
  H   H5        1.0  0.39206411538962277  0.8482943268864817  0.9847193055103176  1.0000
  H   H6        1.0  0.6079361720213966  0.15171021978667204  0.015272813883989008  1.0000
  H   H7        1.0  0.40260706204831104  0.0858600486345864  0.9271938141948155  1.0000
  H   H8        1.0  0.5973910883444519  0.9141463872893357  0.07280567790270703  1.0000
  H   H9        1.0  0.1658907499786793  0.20532061091676468  0.043470098438525916  1.0000
  H   H10       1.0  0.8341098704240224  0.7946792053355339  0.9565396870109025  1.0000
  H   H11       1.0  0.8820389876038134  0.1994868596487009  0.20271971382764795  1.0000
  H   H12       1.0  0.11796010888761539  0.80051012527764  0.7972864660857226  1.0000
  H   H13       1.0  0.6374412408279397  0.07513684545084941  0.35228830888036106  1.0000
  H   H14       1.0  0.36255881377451976  0.9248563602012041  0.6477155769917361  1.0000
  H   H15       1.0  0.48730902847879065  0.863150238788286  0.4483051021310374  1.0000
  H   H16       1.0  0.5126926007805251  0.1368486335316348  0.5516992263277984  1.0000
  H   H17       1.0  0.4851535253825361  0.6313941098633933  0.4581042379321474  1.0000
  H   H18       1.0  0.5148477976059311  0.36860098477266945  0.5418972252364825  1.0000
  H   H19       1.0  0.743548331690242  0.5310333057525793  0.3375450577139745  1.0000
  H   H20       1.0  0.25645415329025667  0.4689627337930347  0.662452381109162  1.0000
  H   H21       1.0  0.22809332520390063  0.2805224796557866  0.3039637483663427  1.0000
  H   H22       1.0  0.7719069243726153  0.7194782862149935  0.6960334736132198  1.0000
  H   H23       1.0  0.39227327402200984  0.0923220763081645  0.25845001091201425  1.0000
  H   H24       1.0  0.6077284188939416  0.9076786858931881  0.7415530942334384  1.0000
  H   H25       1.0  0.27600301128293847  0.8789291123703508  0.36844384415618253  1.0000
  H   H26       1.0  0.7239960504794068  0.12107259951182671  0.6315535228970078  1.0000
  C   C1        1.0  0.28784218075932  0.9035293950691353  0.028702810616742677  1.0000
  C   C2        1.0  0.7121632496538695  0.09647325362836769  0.9712972436840914  1.0000
  C   C3        1.0  0.29387308746304086  0.0363421725285278  0.9980613429084714  1.0000
  C   C4        1.0  0.7061261532568608  0.9636595372746368  0.0019413360616910079  1.0000
  C   C5        1.0  0.16201254677985594  0.1022824281249655  0.06065864727177231  1.0000
  C   C6        1.0  0.837988001059259  0.8977183342808034  0.9393474279027314  1.0000
  C   C7        1.0  0.021205718222475398  0.034578476852445306  0.1493925563722627  1.0000
  C   C8        1.0  0.9787996872672833  0.965419445582221  0.8506145401497563  1.0000
  C   C9        1.0  0.8797988665511127  0.096515771645322  0.21745243098301606  1.0000
  C   C10       1.0  0.12020272887781398  0.9034812104466641  0.7825540061086897  1.0000
  C   C11       1.0  0.7443751430420137  0.027582812707620998  0.2998266044966158  1.0000
  C   C12       1.0  0.25562649912836827  0.9724151141518358  0.7001796635981493  1.0000
  C   C13       1.0  0.7381245228720202  0.8926140146468458  0.3177145962269776  1.0000
  C   C14       1.0  0.2618769830781318  0.10738296848465012  0.682289184906253  1.0000
  C   C15       1.0  0.5968458786486792  0.818243405597194  0.39582005133500797  1.0000
  C   C16       1.0  0.40315433309332593  0.1817535794712271  0.6041822732298101  1.0000
  C   C17       1.0  0.5959925652857122  0.6886993379147768  0.4028764170373976  1.0000
  C   C18       1.0  0.4040150070485566  0.3112966949226248  0.5971241921008997  1.0000
  C   C19       1.0  0.7390684855635782  0.6331620760249237  0.33448091651120393  1.0000
  C   C20       1.0  0.2609318534917194  0.3668386888063607  0.6655189614268409  1.0000
  C   C21       1.0  0.8775264031659232  0.8280117527018546  0.25281083918457625  1.0000
  C   C22       1.0  0.12247762264103561  0.1719880632836777  0.7471891508581763  1.0000
  C   C23       1.0  0.0237060384746002  0.9002744880628056  0.1703476414647653  1.0000
  C   C24       1.0  0.9762968253403271  0.09972438301318928  0.8296563729234877  1.0000
  C   C25       1.0  0.537056715424768  0.5686112229513398  0.9901001208861828  1.0000
  C   C26       1.0  0.4629173836834325  0.43138200916965996  0.009909475148532547  1.0000
  C   C27       1.0  0.9436523059444253  0.4501984829634722  0.05448740035725316  1.0000
  C   C28       1.0  0.056354430689268015  0.5498098355203993  0.9455051286548724  1.0000
  C   C29       1.0  0.0244142493337733  0.17559247307212897  0.4480347784172097  1.0000
  C   C30       1.0  0.9755871154933188  0.8244082929407311  0.5519585882137933  1.0000
  C   C31       1.0  0.17887956969322968  0.1881212467223179  0.35786728971554277  1.0000
  C   C32       1.0  0.8211181043780725  0.8118785775618489  0.6421289587631308  1.0000
  C   C33       1.0  0.27097252249056675  0.08056999021572148  0.3309261198173274  1.0000
  C   C34       1.0  0.7290290212940888  0.9194307737181334  0.6690725587306474  1.0000
  C   C35       1.0  0.20649290491781608  0.9618248888227966  0.392383256116439  1.0000
  C   C36       1.0  0.7935047054968435  0.038173045579945594  0.6076142156756177  1.0000
  C   C37       1.0  0.9528229099013075  0.054575583786949315  0.5150297046892831  1.0000
  C   C38       1.0  0.047175845590196296  0.9454223504113699  0.48496479707371526  1.0000
  S   S1        1.0  0.9102226362784903  0.3144099734259953  0.47317475633522593  1.0000
  S   S2        1.0  0.08977989054062621  0.6855917374964092  0.5268145859502839  1.0000
  N   N1        1.0  0.15842628210715048  0.836834669294177  0.11351379099519215  1.0000
  N   N2        1.0  0.8415763132714388  0.16316420490032604  0.8864822555176133  1.0000
  N   N3        1.0  0.8764002295717076  0.7001664649164  0.2630863224790119  1.0000
  N   N4        1.0  0.12360250202711139  0.29983335300606484  0.7369122109953281  1.0000
  O   O1        1.0  0.8464757607140639  0.3822371174226476  0.025313818330729976  1.0000
  O   O2        1.0  0.1535319509458617  0.6177683669009113  0.9746753623236729  1.0000
  O   O3        1.0  0.6731806222164208  0.5967202729221839  0.9027021006583953  1.0000
  O   O4        1.0  0.3268023315690555  0.4032748386402645  0.09730850016637052  1.0000
  O   O5        1.0  0.9582570738054129  0.44436067665321827  0.16426313087323766  1.0000
  O   O6        1.0  0.0417446351270243  0.5556476478458592  0.8357279984627085  1.0000
  O   O7        1.0  0.454909019973357  0.6409581786654144  0.06317320395640992  1.0000
  O   O8        1.0  0.5450716258445567  0.35904260537567734  0.9368334697498569  1.0000
  O   O9        1.0  0.3766920446435408  0.483329600850297  0.3275699200812027  1.0000
  O   O10       1.0  0.6233109166584114  0.5166730503350578  0.6724307623607898  1.0000
  O   O11       1.0  0.028969805407371  0.4198920943751433  0.4016791795275623  1.0000
  O   O12       1.0  0.9710264253244886  0.5801077335784656  0.598311185785228  1.0000
  O   O13       1.0  0.7683261824773381  0.3061060363153132  0.4287958273411405  1.0000
  O   O14       1.0  0.23167155525060681  0.6938956778502929  0.5711991978241429  1.0000
  O   O15       1.0  0.861400356915965  0.3133315477368512  0.6123572813816693  1.0000
  O   O16       1.0  0.13860248908507336  0.6866729954089408  0.38763686582996837  1.0000
