data_image0
_chemical_formula_structural       Zn2H20C26N4O14
_chemical_formula_sum              "Zn2 H20 C26 N4 O14"
_cell_length_a       8.024030827631286
_cell_length_b       9.210585056438365
_cell_length_c       10.326585339099118
_cell_angle_alpha    74.46611813590798
_cell_angle_beta     88.76939928866925
_cell_angle_gamma    76.76319549660562

_space_group_name_H-M_alt    "P 1"
_space_group_IT_number       1

loop_
  _space_group_symop_operation_xyz
  'x, y, z'

loop_
  _atom_site_type_symbol
  _atom_site_label
  _atom_site_symmetry_multiplicity
  _atom_site_fract_x
  _atom_site_fract_y
  _atom_site_fract_z
  _atom_site_occupancy
  Zn  Zn1       1.0  0.511465458053003  0.77379411970977  0.6168590901290399  1.0000
  Zn  Zn2       1.0  0.48853842813887405  0.22619532895098626  0.3831393028794352  1.0000
  H   H1        1.0  0.49922557438848975  0.5517720778767559  0.8047759327139659  1.0000
  H   H2        1.0  0.5007826804196611  0.4482198690340625  0.19522948917943242  1.0000
  H   H3        1.0  0.48730315508434796  0.4698957192020998  0.6806734265096707  1.0000
  H   H4        1.0  0.5126976240434401  0.5301007506772849  0.3193290835459379  1.0000
  H   H5        1.0  0.5286089264092625  0.7105919663104174  0.13532992005774253  1.0000
  H   H6        1.0  0.4713868519521968  0.28940430703139713  0.8646640291878996  1.0000
  H   H7        1.0  0.19171544048339942  0.06996045964644541  0.8405378764407913  1.0000
  H   H8        1.0  0.808260524015381  0.9300216830003479  0.1594648772885067  1.0000
  H   H9        1.0  0.17210128012913378  0.07338948832259008  0.257447590594893  1.0000
  H   H10       1.0  0.8279118917831171  0.9266164402453826  0.7425522857842852  1.0000
  H   H11       1.0  0.8182609043502469  0.5525400473531263  0.7696114929063214  1.0000
  H   H12       1.0  0.18175759946433362  0.4474508554029342  0.23039300465995896  1.0000
  H   H13       1.0  0.12725173153285854  0.4681721520073481  0.7263992919294111  1.0000
  H   H14       1.0  0.8727654339574541  0.5318418909819658  0.27359362362985706  1.0000
  H   H15       1.0  0.24319427535289873  0.6078157410992446  0.5138791356337933  1.0000
  H   H16       1.0  0.7568039063545913  0.3922179170724435  0.48611604604597863  1.0000
  H   H17       1.0  0.04289451511195358  0.8340515830250512  0.3549562463545399  1.0000
  H   H18       1.0  0.9570875760429869  0.16596797803963176  0.6450466838882036  1.0000
  H   H19       1.0  0.737867798034394  0.905872162833255  0.41255429030744745  1.0000
  H   H20       1.0  0.2621162134267152  0.09412645831530143  0.5874509419083225  1.0000
  C   C1        1.0  0.4226194581347897  0.807650131495322  0.35602700963735867  1.0000
  C   C2        1.0  0.5773810111109654  0.19234280363783537  0.6439734874983716  1.0000
  C   C3        1.0  0.35677173164190634  0.8825529941779068  0.21341635884537175  1.0000
  C   C4        1.0  0.6432256368056954  0.11743285396605782  0.786581137968831  1.0000
  C   C5        1.0  0.4258921581947208  0.8150414111532528  0.11198306387971975  1.0000
  C   C6        1.0  0.5740971244465102  0.18494664215551643  0.8880130834241982  1.0000
  C   C7        1.0  0.3684521931772054  0.8814469348007636  0.977855050082894  1.0000
  C   C8        1.0  0.6315290247657402  0.11854341178779043  0.022145535990596  1.0000
  C   C9        1.0  0.4479569420250158  0.8049307157922314  0.8726008497401667  1.0000
  C   C10       1.0  0.5520310948221548  0.19505730673943592  0.1273943632528969  1.0000
  C   C11       1.0  0.23855129380364565  0.0166096217383753  0.944237667667295  1.0000
  C   C12       1.0  0.7614283816192825  0.9833819257013733  0.055766524056032565  1.0000
  C   C13       1.0  0.16879337617842788  0.08128292768736152  0.046508112018692316  1.0000
  C   C14       1.0  0.831198995790949  0.9187168761843271  0.9534908354941365  1.0000
  C   C15       1.0  0.2267949523951884  0.018178928962044007  0.1804854075700106  1.0000
  C   C16       1.0  0.7732073657346062  0.9818163253803226  0.8195125321224452  1.0000
  C   C17       1.0  0.8731908705855532  0.6111173406598454  0.6786354064072527  1.0000
  C   C18       1.0  0.12682232426672616  0.38887926076066764  0.3213648701971437  1.0000
  C   C19       1.0  0.045505457323230275  0.5648441910835021  0.6537913485997394  1.0000
  C   C20       1.0  0.9545104694090373  0.4351698505003584  0.3462025620752982  1.0000
  C   C21       1.0  0.1094075241690717  0.6438019258168952  0.5362222033968109  1.0000
  C   C22       1.0  0.890598455486803  0.3562213729275143  0.4637754091259154  1.0000
  C   C23       1.0  0.9988806732439245  0.7688257170502555  0.44808275219610044  1.0000
  C   C24       1.0  0.0011172716897150025  0.23119057719812738  0.5519216287480475  1.0000
  C   C25       1.0  0.8282932666615612  0.8092668559563382  0.47894030750960326  1.0000
  C   C26       1.0  0.17170130016999247  0.19073424109787146  0.5210650485856192  1.0000
  N   N1        1.0  0.027299832680519415  0.22058569067459644  0.011437232486514393  1.0000
  N   N2        1.0  0.9727096194396053  0.7794202189911987  0.9885646645266561  1.0000
  N   N3        1.0  0.7662868499558186  0.7306805851930421  0.5921071047589878  1.0000
  N   N4        1.0  0.23370772482773114  0.26931583360160977  0.4078974867355356  1.0000
  O   O1        1.0  0.39098744924466916  0.8910473375827196  0.43991680120996074  1.0000
  O   O2        1.0  0.6090012293906214  0.10894313492516972  0.5600855318754014  1.0000
  O   O3        1.0  0.4019582814485149  0.8819602241034731  0.7491432156296157  1.0000
  O   O4        1.0  0.5980359368028586  0.11803717666039401  0.2508495156993078  1.0000
  O   O5        1.0  0.5048756251994321  0.6679874660244922  0.38941032914105034  1.0000
  O   O6        1.0  0.4951453085651067  0.33201266388912404  0.6105850249752932  1.0000
  O   O7        1.0  0.5517218986475639  0.6756258228591251  0.9092334789026282  1.0000
  O   O8        1.0  0.44827141458380765  0.3243610764668432  0.09075996665984581  1.0000
  O   O9        1.0  0.45848810781789956  0.5674084836846305  0.7114836909922388  1.0000
  O   O10       1.0  0.5415108294618777  0.432585696357208  0.28852330593326064  1.0000
  O   O11       1.0  0.9600652952715477  0.2720963565920798  0.1039496093558512  1.0000
  O   O12       1.0  0.03997639959182922  0.7279285816843953  0.8960478026030219  1.0000
  O   O13       1.0  0.981722561241199  0.2770133208686758  0.8904961551442413  1.0000
  O   O14       1.0  0.018273244348385807  0.7229877775909798  0.10950820583521191  1.0000
