data_image0
_chemical_formula_structural       Cu3H4C10O10
_chemical_formula_sum              "Cu3 H4 C10 O10"
_cell_length_a       5.030344180676709
_cell_length_b       5.862708033252865
_cell_length_c       9.698840271878947
_cell_angle_alpha    98.36829573175072
_cell_angle_beta     91.28494401247227
_cell_angle_gamma    95.4039875953327

_space_group_name_H-M_alt    "P 1"
_space_group_IT_number       1

loop_
  _space_group_symop_operation_xyz
  'x, y, z'

loop_
  _atom_site_type_symbol
  _atom_site_label
  _atom_site_symmetry_multiplicity
  _atom_site_fract_x
  _atom_site_fract_y
  _atom_site_fract_z
  _atom_site_occupancy
  Cu  Cu1       1.0  0.9999997575842414  0.49999949869673094  7.430709629982141e-07  1.0000
  Cu  Cu2       1.0  0.18570456489224096  0.0411314228217137  0.12542878315450418  1.0000
  Cu  Cu3       1.0  0.8142958751255519  0.9588675460702871  0.8745715475621123  1.0000
  H   H1        1.0  0.22178194280743216  0.8301819953603699  0.5484785099588123  1.0000
  H   H2        1.0  0.7782184826791723  0.1698169652125401  0.45152285087210225  1.0000
  H   H3        1.0  0.7167898901590634  0.7913843354334703  0.09362265959354228  1.0000
  H   H4        1.0  0.2832125545022421  0.20861465768676618  0.906376672644491  1.0000
  C   C1        1.0  0.3529928578500403  0.7466473446646374  0.27728074580355866  1.0000
  C   C2        1.0  0.6470079682546697  0.2533551056391374  0.7227178434140669  1.0000
  C   C3        1.0  0.6762342367044454  0.3564727671247567  0.22040488473233205  1.0000
  C   C4        1.0  0.323764584756738  0.6435296589507828  0.7795947029638766  1.0000
  C   C5        1.0  0.4258995604653891  0.6200243149974868  0.3928324727533407  1.0000
  C   C6        1.0  0.5741008940835854  0.3799746622135983  0.6071668278489851  1.0000
  C   C7        1.0  0.5815440265838775  0.43224910746167206  0.3641180399404503  1.0000
  C   C8        1.0  0.4184546163650397  0.567751586227061  0.6358813883909631  1.0000
  C   C9        1.0  0.34436681075045084  0.6858764302028535  0.5284786671383584  1.0000
  C   C10       1.0  0.6556316536861859  0.31412253109908056  0.47152060182826006  1.0000
  O   O1        1.0  0.2151384491876129  0.9208419473907627  0.3034852651529931  1.0000
  O   O2        1.0  0.7848641449236029  0.079158761478098  0.6965162866784239  1.0000
  O   O3        1.0  0.43213562385656706  0.6786182910119365  0.15611194996977668  1.0000
  O   O4        1.0  0.5678655302103195  0.3213876074272619  0.8438890182060347  1.0000
  O   O5        1.0  0.9068728049899735  0.4462534851720791  0.19254697586720937  1.0000
  O   O6        1.0  0.09312601647121  0.5537489409034534  0.8074526118289994  1.0000
  O   O7        1.0  0.5479928024487677  0.19357996522562357  0.13763420633683407  1.0000
  O   O8        1.0  0.45200585503133084  0.8064207367822005  0.8623641918802816  1.0000
  O   O9        1.0  0.8852116732700283  0.8128576716055421  0.04184842937599597  1.0000
  O   O10       1.0  0.11478879581013501  0.18714131392463426  0.9581498411120322  1.0000
