data_image0
_chemical_formula_structural       Zn2H28C36Br6N6O8
_chemical_formula_sum              "Zn2 H28 C36 Br6 N6 O8"
_cell_length_a       8.780328736132153
_cell_length_b       16.457118437428267
_cell_length_c       16.895877850845856
_cell_angle_alpha    85.94679594305856
_cell_angle_beta     89.83143854879806
_cell_angle_gamma    77.41761655148954

_space_group_name_H-M_alt    "P 1"
_space_group_IT_number       1

loop_
  _space_group_symop_operation_xyz
  'x, y, z'

loop_
  _atom_site_type_symbol
  _atom_site_label
  _atom_site_symmetry_multiplicity
  _atom_site_fract_x
  _atom_site_fract_y
  _atom_site_fract_z
  _atom_site_occupancy
  Zn  Zn1       1.0  0.4748077424666732  0.5966434313956839  0.5038146793173794  1.0000
  Zn  Zn2       1.0  0.5210968373853148  0.40326994045019404  0.5014446799082677  1.0000
  H   H1        1.0  0.698718598775841  0.4551179523466899  0.1182264170195069  1.0000
  H   H2        1.0  0.017423188368027802  0.4340215851553566  0.7725905550694776  1.0000
  H   H3        1.0  0.057094864228233205  0.37736229428847423  0.6861927584374853  1.0000
  H   H4        1.0  0.889563304132288  0.31168642013602715  0.7823436807679086  1.0000
  H   H5        1.0  0.7954928335152471  0.34431612479388457  0.6893595045348775  1.0000
  H   H6        1.0  0.009480007508571572  0.5368796201010752  0.186858693573825  1.0000
  H   H7        1.0  0.08801247006321941  0.4821214633626951  0.2773392960536682  1.0000
  H   H8        1.0  0.9296250179038595  0.5694839302606525  0.2792107264971619  1.0000
  H   H9        1.0  0.1734226773554895  0.6125647688259831  0.3158504816689174  1.0000
  H   H10       1.0  0.10402865844437069  0.6628102311576143  0.2229307916071903  1.0000
  H   H11       1.0  0.7972522291849774  0.7845693183695982  0.3573848689920212  1.0000
  H   H12       1.0  0.3413729218821474  0.5523269017770145  0.8885256746529535  1.0000
  H   H13       1.0  0.8369749188655293  0.6810206690975349  0.4027877691254885  1.0000
  H   H14       1.0  0.7966711922845349  0.6991835551523875  0.2990179511525852  1.0000
  H   H15       1.0  0.5634160445974955  0.6680179123591545  0.37168865338801277  1.0000
  H   H16       1.0  0.5231862603225464  0.7686500103964204  0.32324264395664665  1.0000
  H   H17       1.0  0.5019709061285694  0.26601486190971013  0.6996995014548162  1.0000
  H   H18       1.0  0.3059943613939922  0.2831917430425292  0.7323704869806134  1.0000
  H   H19       1.0  0.3997956290350545  0.1830034479138405  0.7032590301929389  1.0000
  H   H20       1.0  0.3155441370560723  0.34579439732615924  0.5938519093101888  1.0000
  H   H21       1.0  0.21313509773676742  0.26485945871056765  0.5969070834735035  1.0000
  H   H22       1.0  0.6733486466840831  0.44851298936333  0.26671187755471937  1.0000
  H   H23       1.0  0.340958153489467  0.5441488004426062  0.7403377640095243  1.0000
  H   H24       1.0  0.5871676477474995  0.8870027343887583  0.40215326354273634  1.0000
  H   H25       1.0  0.3661332148067657  0.11703388659847039  0.578793052230111  1.0000
  H   H26       1.0  0.6985206968445539  0.11010861653494429  0.390170688471386  1.0000
  H   H27       1.0  0.40461609623361033  0.8783859504305555  0.638453512111738  1.0000
  H   H28       1.0  0.9147136357272246  0.4724007740648161  0.6824115570309814  1.0000
  C   C1        1.0  0.43744462935610784  0.5135034762636224  0.3529005242884295  1.0000
  C   C2        1.0  0.4431410941478191  0.8487968975364524  0.5841936995504113  1.0000
  C   C3        1.0  0.6166326650685435  0.22758040471309474  0.44333964092449907  1.0000
  C   C4        1.0  0.438876831909397  0.7658017247471208  0.5753212508445671  1.0000
  C   C5        1.0  0.7879737010011424  0.4902717788492339  0.48357807186629026  1.0000
  C   C6        1.0  0.20326249739145644  0.5352083884304478  0.5270906797220292  1.0000
  C   C7        1.0  0.961077500656458  0.48613128533546757  0.4868125556469991  1.0000
  C   C8        1.0  0.030948495198941838  0.5380682496629561  0.5247014304324225  1.0000
  C   C9        1.0  0.4370655786772488  0.5206738851653155  0.2635283823275572  1.0000
  C   C10       1.0  0.5701246249036132  0.46376883272890973  0.7396013131107891  1.0000
  C   C11       1.0  0.30839813852255554  0.5651906169626953  0.21700811655774294  1.0000
  C   C12       1.0  0.5589394269889069  0.46325981899904894  0.6508669037320516  1.0000
  C   C13       1.0  0.7014667931429841  0.4185256066044189  0.7835863303189612  1.0000
  C   C14       1.0  0.32767544393099984  0.5685462508172634  0.1342508483540854  1.0000
  C   C15       1.0  0.6992660384723736  0.42634571380550307  0.8659308658461526  1.0000
  C   C16       1.0  0.4657129997280052  0.5277411934851344  0.09829362779548487  1.0000
  C   C17       1.0  0.5712338404692048  0.4748110323251283  0.9039284800627029  1.0000
  C   C18       1.0  0.5917410369051553  0.4850448805508237  0.1468365887627314  1.0000
  C   C19       1.0  0.44090791496087434  0.5170163973160058  0.8579002293740527  1.0000
  C   C20       1.0  0.5768222246996758  0.4817163568184667  0.2283658493034508  1.0000
  C   C21       1.0  0.4415840404277418  0.5120217118940787  0.7766378855853941  1.0000
  C   C22       1.0  0.8384171376605422  0.3667495077003977  0.7428156506225959  1.0000
  C   C23       1.0  0.4339756213985381  0.2325845677400054  0.544175330933939  1.0000
  C   C24       1.0  0.9643179264527078  0.4155581248884986  0.7198374906166691  1.0000
  C   C25       1.0  0.15406072013708183  0.6017322336817372  0.2537656762354387  1.0000
  C   C26       1.0  0.03846934115654934  0.5441595197896164  0.24872935266311197  1.0000
  C   C27       1.0  0.5914396695446841  0.7294985520765279  0.37211581795656207  1.0000
  C   C28       1.0  0.7661721780343316  0.7233633869793011  0.35722733911399723  1.0000
  C   C29       1.0  0.32950897093925147  0.2783193056303759  0.6047969758342616  1.0000
  C   C30       1.0  0.3884896655544523  0.2504601243761257  0.690104120774393  1.0000
  C   C31       1.0  0.5387901415407371  0.7696185496320566  0.4476524077703132  1.0000
  C   C32       1.0  0.4382718583587675  0.14780411150969996  0.5397059213785482  1.0000
  C   C33       1.0  0.5454498148396  0.8530804676936653  0.4522871261418544  1.0000
  C   C34       1.0  0.5339980113704854  0.1025894387962651  0.4846088569347983  1.0000
  C   C35       1.0  0.49680591173769534  0.8933521963910567  0.5208571594962662  1.0000
  C   C36       1.0  0.6239175760144775  0.14337204722864524  0.4342527167421863  1.0000
  Br  Br1       1.0  0.07451491257173612  0.39632392990469606  0.4306447198031122  1.0000
  Br  Br2       1.0  0.9113128864484564  0.6249589224429003  0.5823796914291606  1.0000
  Br  Br3       1.0  0.8765083875139866  0.37202791779873207  0.9296358812659804  1.0000
  Br  Br4       1.0  0.1593851650153084  0.6269159586831492  0.06633628872052809  1.0000
  Br  Br5       1.0  0.7501556448269112  0.27860241712275524  0.3785513559475859  1.0000
  Br  Br6       1.0  0.36287584958861174  0.7091004187450307  0.6625123970629402  1.0000
  N   N1        1.0  0.4704371215606998  0.5313733318105848  0.014965574958623088  1.0000
  N   N2        1.0  0.5735578370242962  0.47441680460217844  0.9872002108297905  1.0000
  N   N3        1.0  0.524250336306487  0.2724913671382367  0.49573621395590806  1.0000
  N   N4        1.0  0.48469752059719456  0.7258615876642479  0.509528462631067  1.0000
  N   N5        1.0  0.5443014191578827  0.0168052080053727  0.4740529892854113  1.0000
  N   N6        1.0  0.4933342980906872  0.9784582886645126  0.5320940744535533  1.0000
  O   O1        1.0  0.4077318568270699  0.5806737840263594  0.3882901606984532  1.0000
  O   O2        1.0  0.5567242374997364  0.39426584239507173  0.6218672261881792  1.0000
  O   O3        1.0  0.4760449454529622  0.43952613948999186  0.3852437479957941  1.0000
  O   O4        1.0  0.5475919939948356  0.5335321275688117  0.6124470441579604  1.0000
  O   O5        1.0  0.7013968327889941  0.561880165619968  0.46710114857413026  1.0000
  O   O6        1.0  0.2920844407350672  0.4635579023951166  0.5269440825400267  1.0000
  O   O7        1.0  0.7468057729958205  0.4217585972908325  0.4970998528051708  1.0000
  O   O8        1.0  0.2443398239494955  0.604482208728392  0.5283770511971609  1.0000
