data_image0
_chemical_formula_structural       Zn2H18C38N2O16
_chemical_formula_sum              "Zn2 H18 C38 N2 O16"
_cell_length_a       9.434467956654105
_cell_length_b       10.891689989659563
_cell_length_c       16.10430192204951
_cell_angle_alpha    89.27350430476477
_cell_angle_beta     87.68879053418438
_cell_angle_gamma    90.20327546018046

_space_group_name_H-M_alt    "P 1"
_space_group_IT_number       1

loop_
  _space_group_symop_operation_xyz
  'x, y, z'

loop_
  _atom_site_type_symbol
  _atom_site_label
  _atom_site_symmetry_multiplicity
  _atom_site_fract_x
  _atom_site_fract_y
  _atom_site_fract_z
  _atom_site_occupancy
  Zn  Zn1       1.0  0.6432056589097215  0.5054496406189912  0.504261553187817  1.0000
  Zn  Zn2       1.0  0.35679850322112827  0.4945623487096782  0.4957388003410657  1.0000
  H   H1        1.0  0.2553390552381103  0.73174893342388  0.0485534143849122  1.0000
  H   H2        1.0  0.744668467963848  0.2682288636083  0.9513768554696893  1.0000
  H   H3        1.0  0.5883605343201666  0.6861607118801202  0.9295024305475437  1.0000
  H   H4        1.0  0.4116277475947356  0.3138108266941018  0.0704976652424492  1.0000
  H   H5        1.0  0.1407940239696686  0.44897489188647904  0.0406559991783766  1.0000
  H   H6        1.0  0.8591827060565935  0.5510278601925194  0.9593403859642677  1.0000
  H   H7        1.0  0.3502773432554421  0.0912854350424652  0.6095753959441764  1.0000
  H   H8        1.0  0.64973159502226  0.90872365877577  0.39044105808603286  1.0000
  H   H9        1.0  0.6382704053189556  0.9829369959606495  0.6948059328931322  1.0000
  H   H10       1.0  0.36175552538330896  0.017062064569906  0.3052097297466219  1.0000
  H   H11       1.0  0.7489605051168198  0.05844298490541181  0.5193727794122933  1.0000
  H   H12       1.0  0.25104747399344524  0.9415661358744883  0.48064058104500856  1.0000
  H   H13       1.0  0.9137723317143128  0.6934653632312971  0.5551286871522833  1.0000
  H   H14       1.0  0.0862269323255518  0.3065504028938548  0.4448592902572769  1.0000
  H   H15       1.0  0.2122905648320383  0.6619362836082487  0.35771490725442584  1.0000
  H   H16       1.0  0.787717224555358  0.33808044329455816  0.6422717179848119  1.0000
  H   H17       1.0  0.8939010583112434  0.4800553514327532  0.3664858398300339  1.0000
  H   H18       1.0  0.10610140948260487  0.5199530867291742  0.6335015066659082  1.0000
  C   C1        1.0  0.4825081414084806  0.7388588995388689  0.5044480894173446  1.0000
  C   C2        1.0  0.5174808278904167  0.26114925949379847  0.4955630271888367  1.0000
  C   C3        1.0  0.41595133606442414  0.04973292046825861  0.5600806421209867  1.0000
  C   C4        1.0  0.5840544002603565  0.9502752376558445  0.4399364766622965  1.0000
  C   C5        1.0  0.5147494432563847  0.12464653607541012  0.4973028694709214  1.0000
  C   C6        1.0  0.48527334436379727  0.8753607890515768  0.5027115562515405  1.0000
  C   C7        1.0  0.6384479155401904  0.0327914614405671  0.5106703234516985  1.0000
  C   C8        1.0  0.3615555360169367  0.967222149017424  0.48935177005197517  1.0000
  C   C9        1.0  0.051916606249598395  0.5915074878312226  0.4511857859043786  1.0000
  C   C10       1.0  0.94808484110456  0.40850279521161076  0.5488003235697504  1.0000
  C   C11       1.0  0.9583299835394143  0.6078500109521913  0.5313154038599279  1.0000
  C   C12       1.0  0.0416714632143922  0.39216302664309666  0.4686706943343778  1.0000
  C   C13       1.0  0.948349270030519  0.4874093843070779  0.4248391635405823  1.0000
  C   C14       1.0  0.051654237893323816  0.5125999696760886  0.5751487873403534  1.0000
  C   C15       1.0  0.5224845745277023  0.5094119941863653  0.3361063744938377  1.0000
  C   C16       1.0  0.47751960829405254  0.49059816492369623  0.6638933651979286  1.0000
  C   C17       1.0  0.5503020022578512  0.6021877240918911  0.9610454755476496  1.0000
  C   C18       1.0  0.4496863206386337  0.3977819904133996  0.038953385048245096  1.0000
  C   C19       1.0  0.4323203302728089  0.5989460457651249  0.03305603886826699  1.0000
  C   C20       1.0  0.5676722168173356  0.40101449589604954  0.9669434278358151  1.0000
  C   C21       1.0  0.5340071516898064  0.5102144378572718  0.24652056942581874  1.0000
  C   C22       1.0  0.4659917312299058  0.48978101137254276  0.7534792964852386  1.0000
  C   C23       1.0  0.6437808365109704  0.5114407603805873  0.011333838457126393  1.0000
  C   C24       1.0  0.3562160523143731  0.48852992720173205  0.9886624272544607  1.0000
  C   C25       1.0  0.5260491299460882  0.5054523215117681  0.08397407512122608  1.0000
  C   C26       1.0  0.4739326857901461  0.49452375451416947  0.9160291879263196  1.0000
  C   C27       1.0  0.53936792296885  0.5097090808742664  0.17093952550145267  1.0000
  C   C28       1.0  0.4606203573451139  0.49026980317316327  0.8290605402090276  1.0000
  C   C29       1.0  0.5419410453249114  0.9560380976529144  0.574705503949744  1.0000
  C   C30       1.0  0.45806053047987655  0.04396639718625289  0.4253091972935366  1.0000
  C   C31       1.0  0.3653289852255667  0.711359407114017  0.06800938374718157  1.0000
  C   C32       1.0  0.6346439966980171  0.2886095045967991  0.9319722807936657  1.0000
  C   C33       1.0  0.19983128205758766  0.4810470495159009  0.9827138994393394  1.0000
  C   C34       1.0  0.8001613375901684  0.5189529986624849  0.01728292015936719  1.0000
  C   C35       1.0  0.5777316156387187  0.9143015177932412  0.6588557666451746  1.0000
  C   C36       1.0  0.4222984346019558  0.0857030300911816  0.3411635487286872  1.0000
  C   C37       1.0  0.1162052780440916  0.6891971858237369  0.3951492509592498  1.0000
  C   C38       1.0  0.8837982885504659  0.310822286634142  0.6048367944913762  1.0000
  N   N1        1.0  0.8572562443430272  0.5058056577942621  0.5050301451336381  1.0000
  N   N2        1.0  0.14275154664530734  0.49420372363534437  0.49495651018511916  1.0000
  O   O1        1.0  0.6037744839354533  0.6879810057941924  0.5069878756145555  1.0000
  O   O2        1.0  0.39622527478770314  0.3120244919008713  0.4930175279380293  1.0000
  O   O3        1.0  0.36362694515965904  0.683998473491542  0.5009455344186831  1.0000
  O   O4        1.0  0.6363749129134605  0.3160143711005787  0.4990604339872747  1.0000
  O   O5        1.0  0.6372964023270383  0.5090578757038742  0.37485195866023696  1.0000
  O   O6        1.0  0.36272370649507485  0.4909688736720952  0.6251468938148788  1.0000
  O   O7        1.0  0.39675109124368657  0.5099086440308583  0.3682767811502998  1.0000
  O   O8        1.0  0.6032666590524585  0.49008956026668216  0.6317296705909355  1.0000
  O   O9        1.0  0.42685749100377995  0.7788155473412672  0.11486256880693449  1.0000
  O   O10       1.0  0.5730666289080872  0.2211427495569397  0.8851545276269661  1.0000
  O   O11       1.0  0.13613963865685014  0.5094167635487994  0.9205884395528939  1.0000
  O   O12       1.0  0.8638549347040368  0.4906071157935514  0.0794132267191969  1.0000
  O   O13       1.0  0.5427981033726966  0.814897018619959  0.6898312741743808  1.0000
  O   O14       1.0  0.4572406572329585  0.18509752717948655  0.3101811419355158  1.0000
  O   O15       1.0  0.0613663831975941  0.7903257677979526  0.3898889512236465  1.0000
  O   O16       1.0  0.938628659250149  0.20968723477735549  0.6100984689569486  1.0000
