data_image0
_chemical_formula_structural       La2Cu3H30C42N6O30
_chemical_formula_sum              "La2 Cu3 H30 C42 N6 O30"
_cell_length_a       9.947124561666822
_cell_length_b       11.762295544800551
_cell_length_c       13.197322285965923
_cell_angle_alpha    107.34795898619905
_cell_angle_beta     94.20682186717218
_cell_angle_gamma    99.30469403271826

_space_group_name_H-M_alt    "P 1"
_space_group_IT_number       1

loop_
  _space_group_symop_operation_xyz
  'x, y, z'

loop_
  _atom_site_type_symbol
  _atom_site_label
  _atom_site_symmetry_multiplicity
  _atom_site_fract_x
  _atom_site_fract_y
  _atom_site_fract_z
  _atom_site_occupancy
  La  La1       1.0  0.1984402299266962  0.9629178305585315  0.9605503063623928  1.0000
  La  La2       1.0  0.8015604494507613  0.037079709961418  0.03945050025075862  1.0000
  Cu  Cu1       1.0  0.4999999829356554  0.500002391085836  0.9999993379003412  1.0000
  Cu  Cu2       1.0  0.3973635815564194  0.09652507573138541  0.5893013041096253  1.0000
  Cu  Cu3       1.0  0.6026383098572552  0.9034733862250022  0.4107013229690963  1.0000
  H   H1        1.0  0.1199427064493364  0.8530733797142458  0.7380674346804809  1.0000
  H   H2        1.0  0.8800575876831829  0.14693140401212185  0.261932937111709  1.0000
  H   H3        1.0  0.2734435253512261  0.885442361872265  0.7278102488481722  1.0000
  H   H4        1.0  0.726554947957652  0.1145588152921917  0.2721906096756612  1.0000
  H   H5        1.0  0.3728398021458901  0.13758500181843658  0.17962555048449502  1.0000
  H   H6        1.0  0.6271651201317069  0.8624179597421245  0.8203761296093575  1.0000
  H   H7        1.0  0.47148084998649137  0.14106847204443798  0.08841477898156572  1.0000
  H   H8        1.0  0.5285226577692939  0.8589326793476743  0.911586356538848  1.0000
  H   H9        1.0  0.2988966664467014  0.3194180677169882  0.7446878255926991  1.0000
  H   H10       1.0  0.701106431015411  0.6805812304933028  0.255309779795212  1.0000
  H   H11       1.0  0.3191598703945147  0.34113955104540844  0.634312468833663  1.0000
  H   H12       1.0  0.680844834544537  0.6588579404624753  0.3656862786579539  1.0000
  H   H13       1.0  0.8568599029255354  0.6819061814806202  0.7326786436930277  1.0000
  H   H14       1.0  0.1431395746114887  0.3180949526704637  0.2673192292717275  1.0000
  H   H15       1.0  0.6338958995260029  0.5395058749166708  0.6455135066603503  1.0000
  H   H16       1.0  0.36610497767988903  0.4604924880821883  0.35448070238346924  1.0000
  H   H17       1.0  0.48474877515134546  0.4532940727249795  0.7620614488051985  1.0000
  H   H18       1.0  0.5152496935003725  0.5467070381863904  0.23793408804144883  1.0000
  H   H19       1.0  0.8492795033658138  0.34761637040024596  0.9273644525237685  1.0000
  H   H20       1.0  0.15071615508706773  0.6523857582832662  0.07263876510797472  1.0000
  H   H21       1.0  0.8768364191863683  0.3544611911360178  0.7422200390899859  1.0000
  H   H22       1.0  0.12316427371341379  0.6455409117751428  0.2577834555383305  1.0000
  H   H23       1.0  0.6783858444869679  0.24885529220292565  0.594477553884083  1.0000
  H   H24       1.0  0.3216158437757953  0.7511422715567303  0.40552558884718337  1.0000
  H   H25       1.0  0.9231456450269705  0.8419762843105546  0.27543854630594217  1.0000
  H   H26       1.0  0.0768588682875802  0.15802484299763364  0.7245611241345955  1.0000
  H   H27       1.0  0.9498463684389904  0.7865017404368116  0.4421496970334998  1.0000
  H   H28       1.0  0.05015592661526821  0.21349848005412758  0.5578488577817495  1.0000
  H   H29       1.0  0.15988460687474063  0.893979094643612  0.5787080521929511  1.0000
  H   H30       1.0  0.840119091174934  0.1060184020187407  0.4212906398993468  1.0000
  C   C1        1.0  0.7367977371027195  0.6195710487589706  0.948003906974165  1.0000
  C   C2        1.0  0.26320134499358255  0.38043281353095176  0.05199464435244751  1.0000
  C   C3        1.0  0.8257943022656917  0.6709084503428713  0.8896564474927472  1.0000
  C   C4        1.0  0.174201964974614  0.32909636346610677  0.11034446294177509  1.0000
  C   C5        1.0  0.7899884129679079  0.6404147005364607  0.7790016086149691  1.0000
  C   C6        1.0  0.21001468449420463  0.3595845976738233  0.2209959967729347  1.0000
  C   C7        1.0  0.6665553905135297  0.5619355103921109  0.7308641198213977  1.0000
  C   C8        1.0  0.33344208210990434  0.4380701302060358  0.269131008682713  1.0000
  C   C9        1.0  0.5829079717740271  0.5143180470943918  0.7942359150236342  1.0000
  C   C10       1.0  0.4170913121425671  0.48568669446280677  0.2057606001712387  1.0000
  C   C11       1.0  0.7606522879086697  0.6502481606105448  0.06803075578429944  1.0000
  C   C12       1.0  0.2393441682949131  0.34975297953921825  0.9319661907429051  1.0000
  C   C13       1.0  0.9514575361323805  0.7665616525172607  0.9403668090895109  1.0000
  C   C14       1.0  0.04854476224841871  0.23343861529731663  0.059635546923729486  1.0000
  C   C15       1.0  0.5443306060314866  0.1763212662915947  0.7935676899795182  1.0000
  C   C16       1.0  0.4556718819778922  0.8236753373284956  0.20643146236600526  1.0000
  C   C17       1.0  0.6446472757581602  0.23856057593194885  0.8808369007150886  1.0000
  C   C18       1.0  0.3553489819516642  0.7614397322741765  0.11916588314184652  1.0000
  C   C19       1.0  0.7671706620932425  0.3020189900859407  0.861429392377005  1.0000
  C   C20       1.0  0.23282518864945706  0.6979795122619947  0.13857366254541154  1.0000
  C   C21       1.0  0.7827457328502375  0.305466142007127  0.7586264767926991  1.0000
  C   C22       1.0  0.2172545388947853  0.6945295831899044  0.24137384064633247  1.0000
  C   C23       1.0  0.6751738675489278  0.2462311644938353  0.676178084720732  1.0000
  C   C24       1.0  0.3248268118285296  0.7537663760261142  0.3238227218924196  1.0000
  C   C25       1.0  0.4121706953824925  0.09625451071963201  0.7976779089819247  1.0000
  C   C26       1.0  0.5878287732893668  0.9037421272933273  0.20232259764484442  1.0000
  C   C27       1.0  0.6230114504192628  0.2472702448606228  0.9950052834939029  1.0000
  C   C28       1.0  0.3769839900297711  0.7527264043054842  0.004994241296003605  1.0000
  C   C29       1.0  0.22528467142377903  0.030236350992510097  0.3972024372489287  1.0000
  C   C30       1.0  0.7747164149208031  0.9697629953856295  0.6027980982987345  1.0000
  C   C31       1.0  0.11191682541659284  0.9757411320781416  0.3186933782760732  1.0000
  C   C32       1.0  0.8880834591854447  0.024259146045373804  0.6813088669385294  1.0000
  C   C33       1.0  0.01123336967160077  0.887712131284694  0.3362142836388387  1.0000
  C   C34       1.0  0.9887695259702199  0.11228628765832133  0.6637853578808048  1.0000
  C   C35       1.0  0.027425496781930347  0.8553268211040859  0.4287540328104172  1.0000
  C   C36       1.0  0.9725784050839651  0.14467158321972556  0.5712449038689442  1.0000
  C   C37       1.0  0.1423389826540458  0.9135816179932873  0.5038517398728359  1.0000
  C   C38       1.0  0.8576631105799207  0.08641772323038312  0.4961488510741461  1.0000
  C   C39       1.0  0.34278294459410563  0.12751556449020282  0.39240685572904965  1.0000
  C   C40       1.0  0.6572161401634276  0.8724883356586374  0.6075947365559529  1.0000
  C   C41       1.0  0.0922716927553964  0.0017098433899108  0.2137417284313941  1.0000
  C   C42       1.0  0.9077318156656915  0.9982913174669291  0.7862601673286207  1.0000
  N   N1        1.0  0.6189626601484619  0.5420020709962401  0.8996297295502984  1.0000
  N   N2        1.0  0.38103742750660524  0.4580017672097654  0.10036735669643798  1.0000
  N   N3        1.0  0.5608472357940713  0.18186864947677608  0.6938692094098471  1.0000
  N   N4        1.0  0.439152626987898  0.8181252414678825  0.30612909837586955  1.0000
  N   N5        1.0  0.2373615311271707  0.9988433218196918  0.4875404463601214  1.0000
  N   N6        1.0  0.762641975963298  0.0011578201076929008  0.5124599289206984  1.0000
  O   O1        1.0  0.6536232994151021  0.6174989205221023  0.11137828676780259  1.0000
  O   O2        1.0  0.3463699424998978  0.3825058424971955  0.888617135791577  1.0000
  O   O3        1.0  0.2091569303903  0.8312289117085855  0.7541716315028353  1.0000
  O   O4        1.0  0.7908405360292007  0.16877227061034722  0.2458291716216863  1.0000
  O   O5        1.0  0.8751387224097654  0.7044712956882009  0.11776954067146049  1.0000
  O   O6        1.0  0.124857724263336  0.2955253388587167  0.882229279278164  1.0000
  O   O7        1.0  0.3753826637911074  0.12144758358478919  0.1022152966641983  1.0000
  O   O8        1.0  0.6246200402262048  0.8785544711585233  0.8977852678043662  1.0000
  O   O9        1.0  0.9324449931134922  0.8744000551067258  0.985138599714169  1.0000
  O   O10       1.0  0.06755670734098368  0.12560205211469366  0.014865710553067396  1.0000
  O   O11       1.0  0.28557283679484874  0.27874562738638536  0.6656553031676539  1.0000
  O   O12       1.0  0.7144320712951142  0.7212527623182295  0.33434292867142557  1.0000
  O   O13       1.0  0.06880362585942378  0.7422865779054033  0.9265630385676076  1.0000
  O   O14       1.0  0.931194834592439  0.2577100463325621  0.07343589218064749  1.0000
  O   O15       1.0  0.3726674070541022  0.0919772553124787  0.8844249912260906  1.0000
  O   O16       1.0  0.6273383081008744  0.9080202783645746  0.11557761286283609  1.0000
  O   O17       1.0  0.3449337608470913  0.0313769629543614  0.7051263568242447  1.0000
  O   O18       1.0  0.6550661147918929  0.9686214809167879  0.2948738787370502  1.0000
  O   O19       1.0  0.6269645179000278  0.1530843133521458  0.024984353596593702  1.0000
  O   O20       1.0  0.3730329363277606  0.8469123255050236  0.9750152819919506  1.0000
  O   O21       1.0  0.604596773796139  0.3471984558824844  0.05199597485417942  1.0000
  O   O22       1.0  0.3954020942881584  0.6527999836784061  0.9480034450682027  1.0000
  O   O23       1.0  0.4413754870347121  0.16060284068394987  0.4718322142723324  1.0000
  O   O24       1.0  0.5586195708306079  0.8394010895474862  0.5281699166550098  1.0000
  O   O25       1.0  0.3403316951592501  0.1713526332739761  0.31759645650113544  1.0000
  O   O26       1.0  0.6596665865251268  0.8286521796907919  0.6824053249716188  1.0000
  O   O27       1.0  0.9942520142622513  0.0557200312568327  0.20153608082928542  1.0000
  O   O28       1.0  0.005749481045391725  0.9442811493736727  0.7984664643716997  1.0000
  O   O29       1.0  0.16830220754954436  0.960116129126902  0.14526399966783285  1.0000
  O   O30       1.0  0.8316984826890064  0.0398859359253549  0.8547364540020937  1.0000
