data_image0
_chemical_formula_structural       Al4H34C62O28
_chemical_formula_sum              "Al4 H34 C62 O28"
_cell_length_a       6.676700836641396
_cell_length_b       19.628647680209703
_cell_length_c       24.660809216281056
_cell_angle_alpha    89.63553186006783
_cell_angle_beta     91.4906551349426
_cell_angle_gamma    87.1849614244969

_space_group_name_H-M_alt    "P 1"
_space_group_IT_number       1

loop_
  _space_group_symop_operation_xyz
  'x, y, z'

loop_
  _atom_site_type_symbol
  _atom_site_label
  _atom_site_symmetry_multiplicity
  _atom_site_fract_x
  _atom_site_fract_y
  _atom_site_fract_z
  _atom_site_occupancy
  Al  Al1       1.0  0.24186032715256542  0.24984437480731705  0.7497753519941384  1.0000
  Al  Al2       1.0  0.7566570238579544  0.7494692067512219  0.2507810024056951  1.0000
  Al  Al3       1.0  0.7424769945146324  0.2506464583404835  0.7516671552061425  1.0000
  Al  Al4       1.0  0.25710375670838204  0.7476567951005535  0.24927109274319287  1.0000
  H   H1        1.0  0.7971624243578148  0.4032823151902676  0.4726295954717301  1.0000
  H   H2        1.0  0.2013286078193062  0.5955734364738207  0.5277940799639964  1.0000
  H   H3        1.0  0.1696572755810521  0.43760515759336027  0.42751953101477375  1.0000
  H   H4        1.0  0.8288900533973732  0.5613423506407997  0.5729664263252445  1.0000
  H   H5        1.0  0.7144999022862706  0.4926793718517927  0.9362579635769491  1.0000
  H   H6        1.0  0.2927296061995719  0.5043722314179321  0.0658102591083178  1.0000
  H   H7        1.0  0.7649666151322094  0.9873404891699095  0.43239239249419364  1.0000
  H   H8        1.0  0.23253750591877062  0.011133979287627901  0.5682269886068951  1.0000
  H   H9        1.0  0.8200907424988416  0.048847354682315804  0.9752947707474675  1.0000
  H   H10       1.0  0.17971027291665823  0.9463344630414808  0.023666627215384  1.0000
  H   H11       1.0  0.5921769486158797  0.6067847714124568  0.4658968003376387  1.0000
  H   H12       1.0  0.4045527987788234  0.39202142066250906  0.5361605395504512  1.0000
  H   H13       1.0  0.6545754207811925  0.6243005793815185  0.0458351330480014  1.0000
  H   H14       1.0  0.48071766014817296  0.4255235647770235  0.023563829027622798  1.0000
  H   H15       1.0  0.952765890746669  0.066145538723724  0.4708374027338706  1.0000
  H   H16       1.0  0.04433414370539175  0.9324142301073264  0.5295726033200125  1.0000
  H   H17       1.0  0.009233284685365124  0.9705620962674004  0.1304898429777168  1.0000
  H   H18       1.0  0.7565912809792081  0.0033914938529023006  0.1344672998115541  1.0000
  H   H19       1.0  0.08924692452221453  0.0709929959110696  0.0725022364534738  1.0000
  H   H20       1.0  0.8408220464855918  0.10508387589368338  0.0781854644273849  1.0000
  H   H21       1.0  0.8929403553234749  0.1135071078977603  0.18020961170056887  1.0000
  H   H22       1.0  0.07052202610605462  0.16028658073354043  0.1450844152296469  1.0000
  H   H23       1.0  0.142765217850723  0.0794843718884763  0.1740772054548287  1.0000
  H   H24       1.0  0.17278408558799196  0.9312107123383555  0.8928244170966622  1.0000
  H   H25       1.0  0.2720554481216126  0.0036416623075937  0.8601388720971386  1.0000
  H   H26       1.0  0.8278685091537099  0.9870382769703382  0.8833576403443787  1.0000
  H   H27       1.0  0.926173839604509  0.0579114010655601  0.850520811964664  1.0000
  H   H28       1.0  0.044553534776312624  0.9809628433851855  0.7742271722324645  1.0000
  H   H29       1.0  0.7824208565551984  0.9771478600567601  0.7829386783167749  1.0000
  H   H30       1.0  0.9474504975535254  0.9097735636896048  0.8078038196732819  1.0000
  H   H31       1.0  0.4776853589490386  0.3380243109779641  0.7371913685939688  1.0000
  H   H32       1.0  0.5235319142427031  0.6649878497620136  0.2734721692389144  1.0000
  H   H33       1.0  0.9976221817390822  0.16760443399957836  0.726181862190586  1.0000
  H   H34       1.0  0.0029334290163162873  0.831427564232975  0.2738907571266651  1.0000
  C   C1        1.0  0.4973406198496662  0.170833745609734  0.6750754135413999  1.0000
  C   C2        1.0  0.5031447558303981  0.828361572498373  0.3252402843383919  1.0000
  C   C3        1.0  0.5109157147431773  0.16886625892042417  0.8237836139619219  1.0000
  C   C4        1.0  0.4846528918011615  0.8296425898886783  0.177124796601376  1.0000
  C   C5        1.0  0.9925336408275102  0.3274192303175241  0.8257604645244995  1.0000
  C   C6        1.0  0.003535363562370706  0.6716477995580377  0.17494485152182193  1.0000
  C   C7        1.0  0.9703960837686196  0.33279986614618906  0.6764405663450788  1.0000
  C   C8        1.0  0.030030448960367606  0.6660102419094756  0.324161291447929  1.0000
  C   C9        1.0  0.0912324669098794  0.4640790922379948  0.4601359680812465  1.0000
  C   C10       1.0  0.9070686124224993  0.5347708376964491  0.5403659793346449  1.0000
  C   C11       1.0  0.8875336185931673  0.4458311894902707  0.4846714575300552  1.0000
  C   C12       1.0  0.11076809126787171  0.553036095915388  0.5158040552892089  1.0000
  C   C13       1.0  0.9627506665509458  0.3764478595066336  0.6291575545636618  1.0000
  C   C14       1.0  0.03505003362062102  0.6222748848247407  0.37126978462249843  1.0000
  C   C15       1.0  0.186189773538004  0.47698851003859494  0.5179380486556724  1.0000
  C   C16       1.0  0.8120405008906317  0.5218909294777916  0.4826186065477955  1.0000
  C   C17       1.0  0.9771363371493679  0.456647434349108  0.5436818147219213  1.0000
  C   C18       1.0  0.02109635070298312  0.5421943423066438  0.456816626154307  1.0000
  C   C19       1.0  0.9631758875302339  0.41341631502133686  0.5893302709182748  1.0000
  C   C20       1.0  0.0346530075641596  0.58533881092486  0.4111201599946597  1.0000
  C   C21       1.0  0.8422471745751495  0.4947446652967713  0.9645334568077146  1.0000
  C   C22       1.0  0.1653977292168989  0.5015093856906461  0.0374639501104923  1.0000
  C   C23       1.0  0.012926149204005805  0.45135771453158924  0.9571518351847742  1.0000
  C   C24       1.0  0.9953044824846986  0.5451923890756802  0.044676477091186904  1.0000
  C   C25       1.0  0.1772929507681908  0.45542111555891296  0.9948434644826135  1.0000
  C   C26       1.0  0.8314423469929509  0.5412137625279173  0.007124144422419901  1.0000
  C   C27       1.0  0.01403783379037552  0.4066294874009627  0.9124615369949112  1.0000
  C   C28       1.0  0.9930089747743054  0.5906515447416254  0.0889673692741653  1.0000
  C   C29       1.0  0.002245506202413605  0.6278194692040415  0.1282285913458452  1.0000
  C   C30       1.0  0.9964008892794709  0.3709990274796482  0.8725515747198287  1.0000
  C   C31       1.0  0.6470610389235251  0.9928958321975044  0.4621159232127567  1.0000
  C   C32       1.0  0.35037259906501117  0.0056378113951610015  0.5384684127060098  1.0000
  C   C33       1.0  0.47989358128179316  0.9524316227111171  0.45650126548734704  1.0000
  C   C34       1.0  0.5173887479585559  0.0461979789041322  0.544049532980118  1.0000
  C   C35       1.0  0.329004327497799  0.9596241999030541  0.496037568023759  1.0000
  C   C36       1.0  0.6682710632071293  0.0390070089031411  0.5044908891303379  1.0000
  C   C37       1.0  0.4725585758404237  0.9075363138134381  0.4120764756026603  1.0000
  C   C38       1.0  0.5247881251879393  0.0912733944910116  0.5883375351362616  1.0000
  C   C39       1.0  0.5075473302155444  0.12736853754479682  0.6280988030606025  1.0000
  C   C40       1.0  0.4909438755471455  0.8717039760323503  0.37219331539645134  1.0000
  C   C41       1.0  0.6762689866311861  0.9847468278034555  0.0315500182898631  1.0000
  C   C42       1.0  0.3243672010895082  0.0099426904362119  0.9673247998659562  1.0000
  C   C43       1.0  0.49388792162413625  0.9559591898740794  0.0461760486497553  1.0000
  C   C44       1.0  0.5046135766983681  0.04103149904278069  0.9539397957057076  1.0000
  C   C45       1.0  0.3199082785460022  0.9688218096563973  0.013290106831391302  1.0000
  C   C46       1.0  0.6794386945347738  0.027223933527508792  0.9863077460690873  1.0000
  C   C47       1.0  0.4878778526077171  0.9128096002308652  0.092016262373285  1.0000
  C   C48       1.0  0.5088103782709581  0.08577437409972788  0.9090280961045991  1.0000
  C   C49       1.0  0.5129730086779674  0.12436211314778228  0.8702548741995031  1.0000
  C   C50       1.0  0.48211545624397445  0.8751397228582292  0.1313529606620349  1.0000
  C   C51       1.0  0.6190989507956887  0.5506078815566156  0.4603442384795216  1.0000
  C   C52       1.0  0.37939000679912743  0.44847403648415013  0.5401943848127502  1.0000
  C   C53       1.0  0.6478529818191063  0.5859611414954458  0.0128223462647341  1.0000
  C   C54       1.0  0.36790223374022457  0.41385133617396963  0.9909292817268918  1.0000
  C   C55       1.0  0.8539793071902511  0.07726742114611082  0.5060769308610347  1.0000
  C   C56       1.0  0.14311450688015986  0.9214539777266142  0.4943148799823192  1.0000
  C   C57       1.0  0.8914530393125518  0.0026260786242814998  0.109506437827136  1.0000
  C   C58       1.0  0.9607909895944717  0.074289471141455  0.0996126446012369  1.0000
  C   C59       1.0  0.0198517355252648  0.10879095281879358  0.1526738761878832  1.0000
  C   C60       1.0  0.1485375220021865  0.9865078606128961  0.8848847336166016  1.0000
  C   C61       1.0  0.9472901448897277  0.0024449385065991986  0.8566409665127351  1.0000
  C   C62       1.0  0.9299980275058388  0.9654749293833336  0.8024630413365798  1.0000
  O   O1        1.0  0.6789419701344671  0.18884938569311058  0.808290685582456  1.0000
  O   O2        1.0  0.31855411950871126  0.8059124184112888  0.19050680625056768  1.0000
  O   O3        1.0  0.32291038490379986  0.18961805545281857  0.6904672875574817  1.0000
  O   O4        1.0  0.6781833378059758  0.8078548980443757  0.3113763190520871  1.0000
  O   O5        1.0  0.14534500001666828  0.3170106225145659  0.6960960730272207  1.0000
  O   O6        1.0  0.8571288236808315  0.6801003703213058  0.3024072207429995  1.0000
  O   O7        1.0  0.3394224769603725  0.18324344812130283  0.801572196438407  1.0000
  O   O8        1.0  0.6546950366285884  0.8173297521529289  0.20088463175098784  1.0000
  O   O9        1.0  0.16240920395724606  0.3080677394294256  0.8076983878270951  1.0000
  O   O10       1.0  0.8328421765040802  0.6941617304995448  0.19040831694455557  1.0000
  O   O11       1.0  0.6651883622520814  0.18522361360268036  0.6965816409276115  1.0000
  O   O12       1.0  0.33647153143191133  0.8155876805259437  0.3021321083904951  1.0000
  O   O13       1.0  0.4859166330382862  0.2909488317764258  0.749439142016513  1.0000
  O   O14       1.0  0.5140294362436109  0.7068234188682964  0.252164510205219  1.0000
  O   O15       1.0  0.8214348916978623  0.31291074259436863  0.80638048773514  1.0000
  O   O16       1.0  0.17361591305091653  0.6828849728527047  0.1966304125423619  1.0000
  O   O17       1.0  0.803669349147242  0.314582024890683  0.6942499741425223  1.0000
  O   O18       1.0  0.19750741599023774  0.6861508349112314  0.3082528325945261  1.0000
  O   O19       1.0  0.9972302590851498  0.20872316862161713  0.7478032475882159  1.0000
  O   O20       1.0  0.0022548086572485074  0.7899446842135943  0.2527156519524496  1.0000
  O   O21       1.0  0.4960753784726534  0.5172493109680545  0.4357499737928022  1.0000
  O   O22       1.0  0.5046530888037211  0.48247939612971885  0.5632517030640543  1.0000
  O   O23       1.0  0.4963995217826564  0.5816201754094693  0.9840465110400415  1.0000
  O   O24       1.0  0.4060326523920922  0.37112336268138085  0.9564987194604484  1.0000
  O   O25       1.0  0.9033466661481385  0.11674253354693319  0.5415299155139763  1.0000
  O   O26       1.0  0.09368730208479555  0.882226719626466  0.45867356771054807  1.0000
  O   O27       1.0  0.8520678002378689  0.9669158331484338  0.05932517226225539  1.0000
  O   O28       1.0  0.15130402052736264  0.021514062063289402  0.9366592027192554  1.0000
