data_image0
_chemical_formula_structural       Zn4H24C36N20Cl4
_chemical_formula_sum              "Zn4 H24 C36 N20 Cl4"
_cell_length_a       8.915177587384543
_cell_length_b       11.181427320071
_cell_length_c       11.31912245719106
_cell_angle_alpha    95.10684491111262
_cell_angle_beta     108.19473349365674
_cell_angle_gamma    92.03461131453786

_space_group_name_H-M_alt    "P 1"
_space_group_IT_number       1

loop_
  _space_group_symop_operation_xyz
  'x, y, z'

loop_
  _atom_site_type_symbol
  _atom_site_label
  _atom_site_symmetry_multiplicity
  _atom_site_fract_x
  _atom_site_fract_y
  _atom_site_fract_z
  _atom_site_occupancy
  Zn  Zn1       1.0  0.3103738862583469  0.8053959081930061  0.1485932631897242  1.0000
  Zn  Zn2       1.0  0.6896267771204306  0.1946050764417464  0.851405956472135  1.0000
  Zn  Zn3       1.0  0.3299238247948253  0.31071792660171843  0.3434541307679596  1.0000
  Zn  Zn4       1.0  0.670075655661478  0.6892830721772611  0.6565456799812425  1.0000
  H   H1        1.0  0.06474767314766441  0.8772105639544847  0.8963092918572642  1.0000
  H   H2        1.0  0.9352528943693912  0.12278952468241762  0.10369071264653944  1.0000
  H   H3        1.0  0.0056841038175861275  0.8335491005681348  0.6680224484538614  1.0000
  H   H4        1.0  0.994318727297646  0.1664500714931094  0.3319789247222148  1.0000
  H   H5        1.0  0.14107744553690796  0.9581834246028084  0.5538159541780986  1.0000
  H   H6        1.0  0.8589253887708421  0.0418157436031095  0.4461845359954709  1.0000
  H   H7        1.0  0.3971683673832517  0.1688652167634856  0.9020746729318748  1.0000
  H   H8        1.0  0.6028345564011913  0.8311348551509355  0.09792679840475674  1.0000
  H   H9        1.0  0.1954005028491181  0.8210066233215088  0.3731600759546581  1.0000
  H   H10       1.0  0.8045999719987336  0.17899256546221654  0.6268398303885903  1.0000
  H   H11       1.0  0.9783626775793123  0.7212480646036924  0.4329935966996885  1.0000
  H   H12       1.0  0.021637794076014006  0.2787511280353598  0.5670071926460736  1.0000
  H   H13       1.0  0.7990105531586735  0.5479735938343567  0.05478164239663388  1.0000
  H   H14       1.0  0.2009899248816964  0.452025591094042  0.9452173809441078  1.0000
  H   H15       1.0  0.02200456538756873  0.6556912158839127  0.009270632311029195  1.0000
  H   H16       1.0  0.9779938280079888  0.3443106930371442  0.9907289846835782  1.0000
  H   H17       1.0  0.5622696798648832  0.5770394367570475  0.10182711655426152  1.0000
  H   H18       1.0  0.4377307981754869  0.42295974817135124  0.8981719067864732  1.0000
  H   H19       1.0  0.35925691561672585  0.45234915920119073  0.1522832394417222  1.0000
  H   H20       1.0  0.6407423858862059  0.5476500321607887  0.8477146089813489  1.0000
  H   H21       1.0  0.885897498060416  0.5238046350328034  0.46530654353953343  1.0000
  H   H22       1.0  0.1141005246583191  0.47619367447555294  0.5346926808128458  1.0000
  H   H23       1.0  0.6714347889410701  0.3977759261391681  0.4988955151064474  1.0000
  H   H24       1.0  0.3285622393861161  0.6022241933644495  0.5011036136518854  1.0000
  C   C1        1.0  0.2358403837506415  0.025702299616817498  0.9132188363386291  1.0000
  C   C2        1.0  0.7641613603038379  0.974297782586511  0.08678234308284515  1.0000
  C   C3        1.0  0.12593305488376672  0.9309849386677059  0.8475692433226741  1.0000
  C   C4        1.0  0.8740685965015159  0.0690142436824459  0.15243183793824502  1.0000
  C   C5        1.0  0.0924091350767569  0.9064543522709271  0.7185316516916558  1.0000
  C   C6        1.0  0.9075937024235187  0.09354481207967072  0.2814679554793997  1.0000
  C   C7        1.0  0.1682148553312004  0.9755544621294518  0.6548802416712363  1.0000
  C   C8        1.0  0.831789155513988  0.024444699642891997  0.3451214234199967  1.0000
  C   C9        1.0  0.280164973580078  0.06965048336173399  0.7203426115839947  1.0000
  C   C10       1.0  0.7198378639201974  0.9303486809888567  0.2796569955870609  1.0000
  C   C11       1.0  0.3133265185944722  0.0946254726730871  0.849516455534996  1.0000
  C   C12       1.0  0.6866763125207668  0.9053736993881644  0.15048491764108007  1.0000
  C   C13       1.0  0.2686770901979472  0.05917986710578301  0.047258337388456105  1.0000
  C   C14       1.0  0.7313236562724724  0.9408220289481194  0.9527436294414856  1.0000
  C   C15       1.0  0.3536443678423494  0.14487324007920682  0.6517228961580132  1.0000
  C   C16       1.0  0.6463573730196189  0.8551268459794418  0.3482791662659751  1.0000
  C   C17       1.0  0.10479914553491916  0.7597272370509958  0.3057388106879628  1.0000
  C   C18       1.0  0.8952001527754945  0.2402719581663035  0.694259920737615  1.0000
  C   C19       1.0  0.9847824383182057  0.7033203509103885  0.3385206388996025  1.0000
  C   C20       1.0  0.015216863184726008  0.29667884045159104  0.6614772095234686  1.0000
  C   C21       1.0  0.871044223875053  0.6253439518350135  0.24802673370094652  1.0000
  C   C22       1.0  0.1289563436420025  0.3746561368018888  0.7519732708028644  1.0000
  C   C23       1.0  0.8821292285962911  0.6102424952400796  0.1269141499063906  1.0000
  C   C24       1.0  0.11787251545819542  0.38975758696324897  0.873087029515084  1.0000
  C   C25       1.0  0.006939613592024316  0.6682291580571444  0.1015737438954787  1.0000
  C   C26       1.0  0.9930586008501622  0.3317709434469123  0.8984239107729908  1.0000
  C   C27       1.0  0.7450686492641908  0.5573633818224979  0.2775354066551756  1.0000
  C   C28       1.0  0.2549295619854703  0.4426367235368859  0.7224631310158003  1.0000
  C   C29       1.0  0.593708983585742  0.5369675936515464  0.1898270408661205  1.0000
  C   C30       1.0  0.40629041058640064  0.46303249756361  0.8101709057175058  1.0000
  C   C31       1.0  0.4789639577154219  0.4684288468248924  0.21750421359887182  1.0000
  C   C32       1.0  0.5210353374024663  0.5315703522477407  0.7824954008292198  1.0000
  C   C33       1.0  0.7726322145069348  0.5083742535277482  0.39161386312357394  1.0000
  C   C34       1.0  0.22736590407352247  0.49162495197845857  0.6083845763868467  1.0000
  C   C35       1.0  0.6530130485462847  0.43838847686367877  0.4117594538140636  1.0000
  C   C36       1.0  0.34698643191001827  0.5616125219153005  0.5882403569351453  1.0000
  N   N1        1.0  0.289285719044905  0.983186558191541  0.1374000573580858  1.0000
  N   N2        1.0  0.710714937948836  0.016814434153865007  0.8626009283087869  1.0000
  N   N3        1.0  0.3176461363161494  0.051113894781074996  0.24679242442805102  1.0000
  N   N4        1.0  0.6823557962692633  0.9488879832732735  0.7532080683120342  1.0000
  N   N5        1.0  0.3135899672450364  0.16370543684491423  0.22142223002953904  1.0000
  N   N6        1.0  0.6864118726711794  0.8362955413562572  0.7785781645499839  1.0000
  N   N7        1.0  0.2837263390387577  0.1733174530797044  0.0990161593171095  1.0000
  N   N8        1.0  0.7162753155390432  0.8266817254151204  0.900984038941303  1.0000
  N   N9        1.0  0.5018073257902033  0.2002191075631004  0.693731320776209  1.0000
  N   N10       1.0  0.49819333439605634  0.7997818809269788  0.30626878188815715  1.0000
  N   N11       1.0  0.5184906657163991  0.2630705294457131  0.6027466051214178  1.0000
  N   N12       1.0  0.48151017661574974  0.7369322626060463  0.39725457686657256  1.0000
  N   N13       1.0  0.3841139125408546  0.24524333672741963  0.5099771875415016  1.0000
  N   N14       1.0  0.615885657392127  0.7547585657600635  0.4900236043707766  1.0000
  N   N15       1.0  0.2785871047370279  0.1726199735410319  0.5360943706642232  1.0000
  N   N16       1.0  0.7214111959893258  0.8273810355268552  0.463905148169829  1.0000
  N   N17       1.0  0.11776211272242423  0.7407995857537627  0.1899657417069136  1.0000
  N   N18       1.0  0.8822372750646748  0.25920051317203985  0.810033970881733  1.0000
  N   N19       1.0  0.5083218224348371  0.4180169856599961  0.32561438160226436  1.0000
  N   N20       1.0  0.49167638881483106  0.5819831196993874  0.6743841560687188  1.0000
  Cl  Cl1       1.0  0.3266940522943571  0.6971269337726937  0.9802707849020751  1.0000
  Cl  Cl2       1.0  0.6733104314744196  0.3028767156995471  0.01972872198442132  1.0000
  Cl  Cl3       1.0  0.1055264916397434  0.3999614247086853  0.28372559018442445  1.0000
  Cl  Cl4       1.0  0.894468973510584  0.6000351210924322  0.7162763860265503  1.0000
