data_image0
_chemical_formula_structural       Mg2H40C28S4N4O20
_chemical_formula_sum              "Mg2 H40 C28 S4 N4 O20"
_cell_length_a       6.265723617267518
_cell_length_b       11.493860172957808
_cell_length_c       13.021358698030282
_cell_angle_alpha    90.00024180457214
_cell_angle_beta     89.99994239748774
_cell_angle_gamma    93.27152623003263

_space_group_name_H-M_alt    "P 1"
_space_group_IT_number       1

loop_
  _space_group_symop_operation_xyz
  'x, y, z'

loop_
  _atom_site_type_symbol
  _atom_site_label
  _atom_site_symmetry_multiplicity
  _atom_site_fract_x
  _atom_site_fract_y
  _atom_site_fract_z
  _atom_site_occupancy
  Mg  Mg1       1.0  0.5000008588233769  0.4999997525342721  1.5666945145999994e-06  1.0000
  Mg  Mg2       1.0  5.841698253810732e-07  0.9999972318536194  0.5000011306755139  1.0000
  H   H1        1.0  0.450880433313138  0.27188473360973836  0.1727112448200074  1.0000
  H   H2        1.0  0.049127857002417806  0.22811791278564902  0.6727036351362158  1.0000
  H   H3        1.0  0.5491283321749806  0.7281154196535271  0.8272881487129451  1.0000
  H   H4        1.0  0.950869468733039  0.7718796175703985  0.32728654276659325  1.0000
  H   H5        1.0  0.0790722432358137  0.030405966081708896  0.23742226483339118  1.0000
  H   H6        1.0  0.420927790853341  0.46959524000343583  0.7374207369555562  1.0000
  H   H7        1.0  0.9209256164559038  0.9695967929980824  0.7625802005831728  1.0000
  H   H8        1.0  0.579064568556035  0.530400543809968  0.2625755846973803  1.0000
  H   H9        1.0  0.10654074649728071  0.17330985813792676  0.20967656960709039  1.0000
  H   H10       1.0  0.3934644737813712  0.3266947050597793  0.7096768310815376  1.0000
  H   H11       1.0  0.8934650937487519  0.8266929070422863  0.7903266637764899  1.0000
  H   H12       1.0  0.6065282415992286  0.673304564568227  0.2903271702678935  1.0000
  H   H13       1.0  0.34956279805273743  0.8983765014514661  0.18278280611875175  1.0000
  H   H14       1.0  0.1504437803318623  0.601627458610402  0.6827838934841848  1.0000
  H   H15       1.0  0.6504475635469406  0.10162365302969083  0.81721581944479  1.0000
  H   H16       1.0  0.8495486680653954  0.3983691966722204  0.3172208758294985  1.0000
  H   H17       1.0  0.0695182313821334  0.12909161561209  0.010952995260098  1.0000
  H   H18       1.0  0.43047168371764843  0.3709154733053309  0.5109672250735499  1.0000
  H   H19       1.0  0.93047856617747  0.8709163709002894  0.9890318068790759  1.0000
  H   H20       1.0  0.5695118109735232  0.6290872748025008  0.4890375442536408  1.0000
  H   H21       1.0  0.6849224436868439  0.8779320320708877  0.09215158886475189  1.0000
  H   H22       1.0  0.8150800612929103  0.6220732148394249  0.5921549730139829  1.0000
  H   H23       1.0  0.31508144447467157  0.1220672460823167  0.9078470366987899  1.0000
  H   H24       1.0  0.18491442818602616  0.3779277989101146  0.40785056427625915  1.0000
  H   H25       1.0  0.8081700658237522  0.6680833752946429  0.038113030298056585  1.0000
  H   H26       1.0  0.6918354459668449  0.8319190019346295  0.5381126444229452  1.0000
  H   H27       1.0  0.1918348012710922  0.33192548880935396  0.9618902030970486  1.0000
  H   H28       1.0  0.30816817520842216  0.1680776618823572  0.4618905889499202  1.0000
  H   H29       1.0  0.6768842490153729  0.6335306192081731  0.1364353042922914  1.0000
  H   H30       1.0  0.823117477167088  0.8664678673398143  0.6364372841115367  1.0000
  H   H31       1.0  0.32312283136461417  0.36646866139545864  0.8635679290845385  1.0000
  H   H32       1.0  0.1768833967557555  0.1335331512885887  0.3635682531771066  1.0000
  H   H33       1.0  0.7936773662689306  0.42001392409414967  0.8884186191901262  1.0000
  H   H34       1.0  0.7063244361468932  0.0799879833781532  0.3884164266099432  1.0000
  H   H35       1.0  0.20632102738600366  0.5799940636874014  0.11158691811202459  1.0000
  H   H36       1.0  0.29368060315315603  0.9200069387530693  0.6115837348832827  1.0000
  H   H37       1.0  0.811114326789678  0.5555025451096399  0.8628961830709795  1.0000
  H   H38       1.0  0.6888841323242119  0.944499633555587  0.3628938110261116  1.0000
  H   H39       1.0  0.18888397787100078  0.4445045712228364  0.13710935422958667  1.0000
  H   H40       1.0  0.31111948885278917  0.055497030255899915  0.6371071184397152  1.0000
  C   C1        1.0  0.6931239945816118  0.17319146063654506  0.10258851882034749  1.0000
  C   C2        1.0  0.8068754030300481  0.3268125668036532  0.6025957359540256  1.0000
  C   C3        1.0  0.3068766123706439  0.8268069436061792  0.8974008911142375  1.0000
  C   C4        1.0  0.19311704537068414  0.6731840884679772  0.39740442554557365  1.0000
  C   C5        1.0  0.37458508943068125  0.0869952068839766  0.18466435989127206  1.0000
  C   C6        1.0  0.12542495693539024  0.4130092406655594  0.6846650751632167  1.0000
  C   C7        1.0  0.6254222579384461  0.9130066880467209  0.8153304258311705  1.0000
  C   C8        1.0  0.8745704167039535  0.5869848027001228  0.31533585429983185  1.0000
  C   C9        1.0  0.5025718750937925  0.18526360463145866  0.1555554118990656  1.0000
  C   C10       1.0  0.9974402114615728  0.31474068519658976  0.6555532730330141  1.0000
  C   C11       1.0  0.49743538328166187  0.8147374188483455  0.8444386058527725  1.0000
  C   C12       1.0  0.0025556071519474885  0.6852577154052993  0.34444381659290707  1.0000
  C   C13       1.0  0.44626465210955507  0.9764337250005609  0.16133431953637967  1.0000
  C   C14       1.0  0.05374195865135079  0.5235701327494838  0.661334398914377  1.0000
  C   C15       1.0  0.5537395030382015  0.02356816748887521  0.838659698217846  1.0000
  C   C16       1.0  0.94625669620131  0.4764247845138597  0.3386703703945314  1.0000
  C   C17       1.0  0.7683495526743371  0.0627499235238744  0.07677071344316028  1.0000
  C   C18       1.0  0.7316498839124533  0.4372539807516419  0.5767722329548162  1.0000
  C   C19       1.0  0.23165593159931325  0.9372493558453955  0.9232263761819579  1.0000
  C   C20       1.0  0.2683334327913656  0.5627470244543745  0.4232310004311727  1.0000
  C   C21       1.0  0.9668851361865053  0.0501497154817798  0.020339509160692194  1.0000
  C   C22       1.0  0.5331127894701809  0.44985391839532707  0.5203404070354266  1.0000
  C   C23       1.0  0.033119196948604226  0.9498539199094653  0.979656044534735  1.0000
  C   C24       1.0  0.46687079422046207  0.550149701145088  0.47965745057223325  1.0000
  C   C25       1.0  0.6373881790412241  0.9655653974686589  0.10943797734505266  1.0000
  C   C26       1.0  0.8626077374098459  0.534438184130984  0.6094456214177553  1.0000
  C   C27       1.0  0.3626156201312441  0.0344330092189935  0.890553736495775  1.0000
  C   C28       1.0  0.1373816967522288  0.46556021161584493  0.39056145180694557  1.0000
  S   S1        1.0  0.8383179307802139  0.30563113962411853  0.07101675304873108  1.0000
  S   S2        1.0  0.6616844397311895  0.1943701252969632  0.571018177669117  1.0000
  S   S3        1.0  0.1616832101294534  0.6943724933386833  0.9289834084615831  1.0000
  S   S4        1.0  0.3383111118972479  0.8056256609650349  0.4289819838280947  1.0000
  N   N1        1.0  0.18198892156548396  0.10229076730647789  0.2364278519975399  1.0000
  N   N2        1.0  0.3180161693405523  0.39771305204116214  0.7364261100487607  1.0000
  N   N3        1.0  0.8180168296903505  0.8977111264118347  0.763570005601359  1.0000
  N   N4        1.0  0.6819795602769715  0.602284477117145  0.2635732834826142  1.0000
  O   O1        1.0  0.6970097577556729  0.40067104916005297  0.09335871879647326  1.0000
  O   O2        1.0  0.8029958602497941  0.09933119621434376  0.5933574171248209  1.0000
  O   O3        1.0  0.3029828686289378  0.5993273490243779  0.9066475864584118  1.0000
  O   O4        1.0  0.19701130912676487  0.9006689558310369  0.4066427443775423  1.0000
  O   O5        1.0  0.899371945481249  0.3025098353284791  0.9612456449797049  1.0000
  O   O6        1.0  0.6006399466318655  0.1974985269885181  0.4612424040214618  1.0000
  O   O7        1.0  0.10064152512885727  0.6975051350157813  0.03875682045551088  1.0000
  O   O8        1.0  0.39935524901896713  0.8024937734790216  0.5387585254384105  1.0000
  O   O9        1.0  0.6602434263185372  0.6479286203078516  0.05999553928281639  1.0000
  O   O10       1.0  0.8397601003527981  0.8520703742869526  0.5599959215702056  1.0000
  O   O11       1.0  0.33976374305628804  0.35207153174302164  0.9400069261265924  1.0000
  O   O12       1.0  0.16024210269999625  0.1479280312084583  0.4400073118062266  1.0000
  O   O13       1.0  0.7082132781365545  0.48827182953283454  0.8753917084600855  1.0000
  O   O14       1.0  0.7917884549464631  0.011729144358575602  0.3753922924460013  1.0000
  O   O15       1.0  0.2917849375333433  0.511734415339582  0.12460922102480507  1.0000
  O   O16       1.0  0.20821835845308098  0.9882675218905136  0.6246078690500027  1.0000
  O   O17       1.0  0.0290823564861427  0.31202141534792827  0.13813285215216095  1.0000
  O   O18       1.0  0.47091623136348204  0.18797931591114295  0.638133329815062  1.0000
  O   O19       1.0  0.9709154142124775  0.6879804722791293  0.8618680773247858  1.0000
  O   O20       1.0  0.5290788752954114  0.8120121130999961  0.36186452776716027  1.0000
