data_image0
_chemical_formula_structural       Ag2P2H32C38S2N2O6F6
_chemical_formula_sum              "Ag2 P2 H32 C38 S2 N2 O6 F6"
_cell_length_a       8.577899567321882
_cell_length_b       11.090701523871612
_cell_length_c       11.311380226873222
_cell_angle_alpha    88.01112758395884
_cell_angle_beta     83.81437866441358
_cell_angle_gamma    70.1656653909823

_space_group_name_H-M_alt    "P 1"
_space_group_IT_number       1

loop_
  _space_group_symop_operation_xyz
  'x, y, z'

loop_
  _atom_site_type_symbol
  _atom_site_label
  _atom_site_symmetry_multiplicity
  _atom_site_fract_x
  _atom_site_fract_y
  _atom_site_fract_z
  _atom_site_occupancy
  Ag  Ag1       1.0  0.28432408891404726  0.559064018779445  0.5981248779477752  1.0000
  Ag  Ag2       1.0  0.7156759271210617  0.4409342344256829  0.4018760558454062  1.0000
  P   P1        1.0  0.16582528013208267  0.760686868098105  0.6853801605457833  1.0000
  P   P2        1.0  0.8341755077326737  0.23931233753395284  0.3146224421320412  1.0000
  H   H1        1.0  0.9240436193551245  0.9448338865416448  0.6404114265718733  1.0000
  H   H2        1.0  0.07595604774058978  0.055162457890190794  0.35959048918713415  1.0000
  H   H3        1.0  0.07568583018511524  0.8909219125783991  0.5134001574742371  1.0000
  H   H4        1.0  0.9243130099906197  0.1090763481190891  0.4866008752201127  1.0000
  H   H5        1.0  0.04326320837187569  0.7598215278509811  0.3682013237955957  1.0000
  H   H6        1.0  0.9567399938461919  0.24017479553294405  0.6318020627144136  1.0000
  H   H7        1.0  0.9123255845940931  0.6075438201433485  0.3035844345859005  1.0000
  H   H8        1.0  0.08767919374099618  0.3924515351143468  0.6964162015098554  1.0000
  H   H9        1.0  0.6491173342877729  0.617502769143286  0.6345685776205414  1.0000
  H   H10       1.0  0.35088273683767557  0.38249261536925877  0.36543157035265494  1.0000
  H   H11       1.0  0.7639525149700074  0.7739074685943664  0.7112442856199622  1.0000
  H   H12       1.0  0.23604873955903116  0.22608790985498925  0.2887575309065796  1.0000
  H   H13       1.0  0.06536790568086556  0.566925868440663  0.8225541898973675  1.0000
  H   H14       1.0  0.9346320741244225  0.43307525702997657  0.17745194835209332  1.0000
  H   H15       1.0  0.8676322627277244  0.5805068529527943  0.004921899075163999  1.0000
  H   H16       1.0  0.13236205767885412  0.4195019525651702  0.9950809047180018  1.0000
  H   H17       1.0  0.7390025860362144  0.7857253974929749  0.1148417336340728  1.0000
  H   H18       1.0  0.26098735346752716  0.21428534176563122  0.8851542977071462  1.0000
  H   H19       1.0  0.800966024446012  0.9806755842378224  0.039782516926344165  1.0000
  H   H20       1.0  0.19903061373042158  0.0193331998641568  0.9602121355191501  1.0000
  H   H21       1.0  0.9885931929628027  0.9699684140504132  0.8551914896535281  1.0000
  H   H22       1.0  0.011410629411109598  0.030034591285172493  0.1448054163812529  1.0000
  H   H23       1.0  0.24577310822881038  0.9813321027483184  0.5589960398610573  1.0000
  H   H24       1.0  0.75422056561721  0.0186700158158999  0.44100705831652937  1.0000
  H   H25       1.0  0.4260038602125674  0.10130351006387169  0.608490271919095  1.0000
  H   H26       1.0  0.5739957178438856  0.8986956966292822  0.39150447611457656  1.0000
  H   H27       1.0  0.5795214880706964  0.04553935111868409  0.7869623608305217  1.0000
  H   H28       1.0  0.42048313481848953  0.9544617329491558  0.2130292421781164  1.0000
  H   H29       1.0  0.554970648567803  0.8642470761165414  0.9172753181165021  1.0000
  H   H30       1.0  0.44503669384005207  0.1357559053127986  0.08271952376024672  1.0000
  H   H31       1.0  0.374396721308237  0.7439020374683666  0.8692411105052358  1.0000
  H   H32       1.0  0.6256102872486338  0.2560990380460169  0.13075824824638002  1.0000
  C   C1        1.0  0.00728026324603092  0.8605296247709189  0.589489338834433  1.0000
  C   C2        1.0  0.9927217555684462  0.13946670467619532  0.41051237912223126  1.0000
  C   C3        1.0  0.9169002690714121  0.7785803604885759  0.5462285054401691  1.0000
  C   C4        1.0  0.08310334472059816  0.22141500440523035  0.4537748807385428  1.0000
  C   C5        1.0  0.9554984225681052  0.7312402415279635  0.4296730592573681  1.0000
  C   C6        1.0  0.04450400782031488  0.2687551294290316  0.5703286583679984  1.0000
  C   C7        1.0  0.8839433372413266  0.645480450352423  0.3938183908893649  1.0000
  C   C8        1.0  0.11605709036773248  0.35451684436258546  0.6061825425725189  1.0000
  C   C9        1.0  0.7363547690715179  0.6519518520102635  0.5780605885750489  1.0000
  C   C10       1.0  0.2636456547654333  0.3480454419901591  0.42193946115957454  1.0000
  C   C11       1.0  0.8015548104991622  0.7392301443676886  0.6204004893186764  1.0000
  C   C12       1.0  0.19844844303713674  0.2607633096090751  0.3796012276440877  1.0000
  C   C13       1.0  0.040127756961972114  0.7669189619658567  0.8272482651429628  1.0000
  C   C14       1.0  0.9598726193288485  0.2330812021563205  0.17275433786615926  1.0000
  C   C15       1.0  0.006489054439427323  0.6574436731525566  0.8706320580569483  1.0000
  C   C16       1.0  0.9935042040605564  0.3425594031871952  0.12937015672467575  1.0000
  C   C17       1.0  0.8972940851923  0.6649057152068776  0.9733404172945656  1.0000
  C   C18       1.0  0.10269829884156677  0.3351021475202742  0.026663467696906203  1.0000
  C   C19       1.0  0.8245291775888217  0.7806614627050193  0.035027294463304826  1.0000
  C   C20       1.0  0.1754627096039485  0.21935022148814917  0.964970306861382  1.0000
  C   C21       1.0  0.859170764125729  0.8898540953445673  0.9926318517307354  1.0000
  C   C22       1.0  0.14082511730946115  0.11015373918883138  0.0073646667391500074  1.0000
  C   C23       1.0  0.9650233535540449  0.8836363916161575  0.8887828457248333  1.0000
  C   C24       1.0  0.034976886151376584  0.11636950488908582  0.1112151428334585  1.0000
  C   C25       1.0  0.2945349603632934  0.8558445068596539  0.7123457551152582  1.0000
  C   C26       1.0  0.7054642438402468  0.1441556654694622  0.28765783052229216  1.0000
  C   C27       1.0  0.31199963836129285  0.9552796622854273  0.6380772213575839  1.0000
  C   C28       1.0  0.6879979670926133  0.0447214738824186  0.36192381233067294  1.0000
  C   C29       1.0  0.41460929061011603  0.022837742612693997  0.6654850693545313  1.0000
  C   C30       1.0  0.5853891115869629  0.9771614715728203  0.33450977758030837  1.0000
  C   C31       1.0  0.5008323965527381  0.991538947214451  0.7663043652363514  1.0000
  C   C32       1.0  0.4991722376527503  0.0084621389971389  0.23368988895406065  1.0000
  C   C33       1.0  0.4866733279334169  0.8904050536477469  0.8390581096238706  1.0000
  C   C34       1.0  0.5133336142168047  0.10959888841546218  0.1609393837659496  1.0000
  C   C35       1.0  0.3851456549602261  0.8223363153317322  0.8120189916467595  1.0000
  C   C36       1.0  0.6148581862741976  0.17766669357677503  0.1879823330243156  1.0000
  C   C37       1.0  0.6633275208454493  0.37945721464473786  0.8359718959910367  1.0000
  C   C38       1.0  0.3366697945315024  0.6205391447718184  0.16403021757032124  1.0000
  S   S1        1.0  0.5887673401616028  0.3165118103836448  0.7099623525813571  1.0000
  S   S2        1.0  0.4112310771238795  0.6834874066602056  0.2900360292625166  1.0000
  N   N1        1.0  0.7781733762241387  0.603906739565069  0.46689300705187264  1.0000
  N   N2        1.0  0.2218278707606984  0.39608863745512196  0.5331070420201485  1.0000
  O   O1        1.0  0.5808143523166008  0.41609459124045156  0.6183905991068599  1.0000
  O   O2        1.0  0.41918519705423307  0.5839074891473786  0.3816111208376043  1.0000
  O   O3        1.0  0.7177641462715768  0.19345265766141748  0.6807365940187112  1.0000
  O   O4        1.0  0.2822366227326681  0.806546544397719  0.3192615900228192  1.0000
  O   O5        1.0  0.4274335605924904  0.31245351329453536  0.7601886457629875  1.0000
  O   O6        1.0  0.5725656609803592  0.6875437831961548  0.23980531678199674  1.0000
  F   F1        1.0  0.8126156462210685  0.3959153795295194  0.8047054180090426  1.0000
  F   F2        1.0  0.18738733987088796  0.6040733019834619  0.19530268119037691  1.0000
  F   F3        1.0  0.6821555095074032  0.297131083937856  0.9293041922933227  1.0000
  F   F4        1.0  0.3178312193630076  0.702865342195352  0.07069792765132382  1.0000
  F   F5        1.0  0.552311464539109  0.4948254323065837  0.8729206522584081  1.0000
  F   F6        1.0  0.44769048409662565  0.5051737629747706  0.12707831660920732  1.0000
