data_image0
_chemical_formula_structural       Cu2H28C20S2N4O12
_chemical_formula_sum              "Cu2 H28 C20 S2 N4 O12"
_cell_length_a       7.139587572150875
_cell_length_b       10.689635215286858
_cell_length_c       10.689693973662553
_cell_angle_alpha    91.99099980258278
_cell_angle_beta     100.9231806098419
_cell_angle_gamma    100.92253082262052

_space_group_name_H-M_alt    "P 1"
_space_group_IT_number       1

loop_
  _space_group_symop_operation_xyz
  'x, y, z'

loop_
  _atom_site_type_symbol
  _atom_site_label
  _atom_site_symmetry_multiplicity
  _atom_site_fract_x
  _atom_site_fract_y
  _atom_site_fract_z
  _atom_site_occupancy
  Cu  Cu1       1.0  0.7499962069654129  0.3183078621131513  0.6816881859687882  1.0000
  Cu  Cu2       1.0  0.2500139089756885  0.6816905596027211  0.3183205988839646  1.0000
  H   H1        1.0  0.7956427038781724  0.5517175441818053  0.6172313402082779  1.0000
  H   H2        1.0  0.7043592901276056  0.3827709610852991  0.448280733630348  1.0000
  H   H3        1.0  0.20435357860760914  0.44827789085881153  0.3827710899572665  1.0000
  H   H4        1.0  0.29564815734288163  0.617223614589477  0.5517229315774016  1.0000
  H   H5        1.0  0.5988662010057907  0.5092388673737035  0.6690420465228327  1.0000
  H   H6        1.0  0.9011380875062256  0.33096064589479823  0.49075986913402403  1.0000
  H   H7        1.0  0.40114431995002053  0.4907566822560839  0.3309601309746668  1.0000
  H   H8        1.0  0.09885859357729025  0.6690366864977475  0.509237996289194  1.0000
  H   H9        1.0  0.0455983551411094  0.2872442542705187  0.8967493103150304  1.0000
  H   H10       1.0  0.4544079806174252  0.1032514053021956  0.7127660270111988  1.0000
  H   H11       1.0  0.9544211107328096  0.712777111803021  0.1032594908300268  1.0000
  H   H12       1.0  0.545611004767565  0.8967632861106837  0.2872424789481585  1.0000
  H   H13       1.0  0.10270525928437019  0.31332696832287604  0.1371113547274376  1.0000
  H   H14       1.0  0.397290048571385  0.8628872443615305  0.6866843932022206  1.0000
  H   H15       1.0  0.8972940725662896  0.686694219485517  0.8628914142386677  1.0000
  H   H16       1.0  0.6027115739505716  0.13712728488275164  0.313315588371502  1.0000
  H   H17       1.0  0.8393279974455294  0.3738421209664295  0.23861763953659218  1.0000
  H   H18       1.0  0.6606622295007298  0.7613795747275632  0.6261628032302015  1.0000
  H   H19       1.0  0.16066499266852222  0.6261618606301697  0.7613837898298427  1.0000
  H   H20       1.0  0.339313190150385  0.23861852527468133  0.3738298719563105  1.0000
  H   H21       1.0  0.5293083776771894  0.39952266695787136  0.09835266829016831  1.0000
  H   H22       1.0  0.9706799830423022  0.9016402269381416  0.6004725412612261  1.0000
  H   H23       1.0  0.4706817658023965  0.6004717517954532  0.9016443507419963  1.0000
  H   H24       1.0  0.029302413533024194  0.09834744674207488  0.399519613394105  1.0000
  H   H25       1.0  0.4936927007680438  0.3670427323850589  0.8597786394168877  1.0000
  H   H26       1.0  0.006295582801264696  0.14021407092423027  0.6329469204026665  1.0000
  H   H27       1.0  0.5063080324821385  0.6329489139090542  0.140218544769624  1.0000
  H   H28       1.0  0.9937081650621092  0.8597785440777483  0.36704689786354544  1.0000
  C   C1        1.0  0.9348495745785143  0.3093891626094774  0.9465587890741602  1.0000
  C   C2        1.0  0.56514283093383  0.0534372574909341  0.6906157904407948  1.0000
  C   C3        1.0  0.06515368373010232  0.6906253969834496  0.053447928788969506  1.0000
  C   C4        1.0  0.43486577492932094  0.9465620759933132  0.309381627988813  1.0000
  C   C5        1.0  0.9648059932634039  0.32412797589179115  0.079066281196198  1.0000
  C   C6        1.0  0.5351886512192721  0.9209387680497941  0.6758878166332707  1.0000
  C   C7        1.0  0.03519760477081491  0.6758884758059196  0.9209339937145558  1.0000
  C   C8        1.0  0.4648105613396608  0.07907670820356569  0.3241175398536384  1.0000
  C   C9        1.0  0.8187925901695575  0.35746798599981827  0.135537639662104  1.0000
  C   C10       1.0  0.6811911704117718  0.8644543008450398  0.6425394206497828  1.0000
  C   C11       1.0  0.18120033620286338  0.6425464608483792  0.8644576101662835  1.0000
  C   C12       1.0  0.3187900644488479  0.1355447865851929  0.3574483355147819  1.0000
  C   C13       1.0  0.6460261152923152  0.3729977816773911  0.057298717731136206  1.0000
  C   C14       1.0  0.8539627605277074  0.9426984045827423  0.62699942071508  1.0000
  C   C15       1.0  0.35396454452924786  0.6269985449221522  0.9426974929788301  1.0000
  C   C16       1.0  0.14602406910854165  0.0573054897257279  0.3729872718591025  1.0000
  C   C17       1.0  0.6256977997335583  0.35645552922223794  0.92537912038906  1.0000
  C   C18       1.0  0.8742919891517855  0.07461286573176548  0.6435379710068717  1.0000
  C   C19       1.0  0.37430639763521606  0.6435380567560782  0.07462039789874099  1.0000
  C   C20       1.0  0.12569766742188196  0.9253796477989128  0.3564607954525272  1.0000
  S   S1        1.0  0.250001733090393  0.3761409807120302  0.623852557818793  1.0000
  S   S2        1.0  0.750002773020455  0.6238487936867543  0.376145922352528  1.0000
  N   N1        1.0  0.7685272149681167  0.3259673290216369  0.8715099125425994  1.0000
  N   N2        1.0  0.7314670591352055  0.12848589962697327  0.6740301709430412  1.0000
  N   N3        1.0  0.23148216574460173  0.6740387053590027  0.1284971921230138  1.0000
  N   N4        1.0  0.26853880500376437  0.8715134203843032  0.325970678798285  1.0000
  O   O1        1.0  0.3811291294341927  0.28408059968763405  0.6390554254624945  1.0000
  O   O2        1.0  0.11890013106210516  0.3609141961304089  0.715913457496505  1.0000
  O   O3        1.0  0.6188846560047594  0.715912101823335  0.36094046978816857  1.0000
  O   O4        1.0  0.8811086396848322  0.6390651410969498  0.2840888725603818  1.0000
  O   O5        1.0  0.12851901829289858  0.3584063493223368  0.48947606084876577  1.0000
  O   O6        1.0  0.3714802475647545  0.5105190938624133  0.6415891194926289  1.0000
  O   O7        1.0  0.8714941609484086  0.6415787354109527  0.5105241693499281  1.0000
  O   O8        1.0  0.6285039844326902  0.4894733979694764  0.3584183878002563  1.0000
  O   O9        1.0  0.741792020184171  0.5051652711640388  0.687035051155128  1.0000
  O   O10       1.0  0.7582181642680297  0.3129696932333346  0.4948359364360186  1.0000
  O   O11       1.0  0.2582128701429625  0.4948302384019386  0.3129692934406521  1.0000
  O   O12       1.0  0.24178353482952986  0.6870248318833417  0.5051661394498907  1.0000
