data_image0
_chemical_formula_structural       Cd8H32C48Se16N32
_chemical_formula_sum              "Cd8 H32 C48 Se16 N32"
_cell_length_a       8.674749282282571
_cell_length_b       9.372526068793965
_cell_length_c       29.2877
_cell_angle_alpha    89.00116861288629
_cell_angle_beta     87.8412418423625
_cell_angle_gamma    62.433620209836434

_space_group_name_H-M_alt    "P 1"
_space_group_IT_number       1

loop_
  _space_group_symop_operation_xyz
  'x, y, z'

loop_
  _atom_site_type_symbol
  _atom_site_label
  _atom_site_symmetry_multiplicity
  _atom_site_fract_x
  _atom_site_fract_y
  _atom_site_fract_z
  _atom_site_occupancy
  Cd  Cd1       1.0  0.8210874506127227  0.3359843220055154  0.6275543510996968  1.0000
  Cd  Cd2       1.0  0.8429182336598869  0.335972286157002  0.8724588137450624  1.0000
  Cd  Cd3       1.0  0.1789110367078592  0.6640177624830912  0.372445415140831  1.0000
  Cd  Cd4       1.0  0.15707568929801866  0.6640273911619018  0.1275423826098887  1.0000
  Cd  Cd5       1.0  0.5000004199066835  0.0  0.4999999099550081  1.0000
  Cd  Cd6       1.0  0.5000009717033436  1.2035848513e-06  0.9999998970843507  1.0000
  Cd  Cd7       1.0  0.5161737628332331  0.9676184304785096  0.7499984992327599  1.0000
  Cd  Cd8       1.0  0.4838276834564894  0.032380043255543  0.2500002298162087  1.0000
  H   H1        1.0  0.7239853259943274  0.657313794861139  0.5605402162860003  1.0000
  H   H2        1.0  0.618617540589085  0.6573438844824224  0.9394708113240354  1.0000
  H   H3        1.0  0.27601491670915834  0.34268708604261616  0.4394591956435505  1.0000
  H   H4        1.0  0.3813850092939645  0.3426569964213327  0.0605299406252016  1.0000
  H   H5        1.0  0.2326173810512701  0.8307070428842704  0.5071107052926749  1.0000
  H   H6        1.0  0.936453671471973  0.8309561849484978  0.992863435252076  1.0000
  H   H7        1.0  0.7673811062693119  0.1692950416043288  0.4928897438283856  1.0000
  H   H8        1.0  0.06355008199732029  0.1690422887855476  0.007135950936053299  1.0000
  H   H9        1.0  0.17549935833488206  0.6328280646455227  0.5561993682438597  1.0000
  H   H10       1.0  0.1915240331865249  0.6329592553943186  0.943812334195961  1.0000
  H   H11       1.0  0.8245025897550563  0.367174019843084  0.4438017251456614  1.0000
  H   H12       1.0  0.8084774131031977  0.367039218339734  0.056186394853014604  1.0000
  H   H13       1.0  0.4116940741942514  0.4568398876829035  0.6097902317804582  1.0000
  H   H14       1.0  0.13140325734958222  0.45687840239814637  0.8902404868757686  1.0000
  H   H15       1.0  0.5883073220990199  0.5431609932208517  0.39021019159920195  1.0000
  H   H16       1.0  0.8685940763812213  0.5431236820904601  0.1097575850341244  1.0000
  H   H17       1.0  0.176911334855923  0.20521362432280904  0.6893208874475222  1.0000
  H   H18       1.0  0.6178500668715756  0.2052509354531935  0.8106814094163256  1.0000
  H   H19       1.0  0.8230866006679919  0.794787256580946  0.3106788916636702  1.0000
  H   H20       1.0  0.3821525330079326  0.794747538280852  0.18931867252301518  1.0000
  H   H21       1.0  0.36254829018142953  0.7261046870393528  0.7273367137733899  1.0000
  H   H22       1.0  0.9113145146745366  0.7261552376031091  0.7726497341062029  1.0000
  H   H23       1.0  0.6374444291902392  0.2738973974492538  0.2726637997010926  1.0000
  H   H24       1.0  0.088686379818526  0.2738420325460922  0.227350373574474  1.0000
  H   H25       1.0  0.13576604948215729  0.7052092504352743  0.6797190598471801  1.0000
  H   H26       1.0  0.1590131426405109  0.7052393400565578  0.8202619753885755  1.0000
  H   H27       1.0  0.8642278234792897  0.2947928340533252  0.32028144075661663  1.0000
  H   H28       1.0  0.8409871500594334  0.29475913367748763  0.179737790851874  1.0000
  H   H29       1.0  0.9269925391440026  0.958922529927591  0.6384055628185905  1.0000
  H   H30       1.0  0.1140756242865282  0.9589261406821448  0.8615925049735225  1.0000
  H   H31       1.0  0.0730071017663576  0.0410795545610085  0.36159453199152125  1.0000
  H   H32       1.0  0.8859235148236239  0.0410723330519005  0.1384079570181314  1.0000
  C   C1        1.0  0.8247170303409773  0.6700766086247256  0.6769487833838213  1.0000
  C   C2        1.0  0.5051966838471601  0.6700585548519555  0.8230446193724248  1.0000
  C   C3        1.0  0.17528581952080918  0.32990982926081347  0.3230499971476064  1.0000
  C   C4        1.0  0.49480240526654024  0.3299423260517997  0.17695582974860002  1.0000
  C   C5        1.0  0.5510808228056021  0.2768184978834468  0.7059236100859678  1.0000
  C   C6        1.0  0.17207832810720453  0.2768088692046361  0.7940782389346949  1.0000
  C   C7        1.0  0.4489182663080981  0.7231823830203012  0.2940764975948015  1.0000
  C   C8        1.0  0.827927180744986  0.7231884009445579  0.2059238659048219  1.0000
  C   C9        1.0  0.0455830772502424  0.2160230198726723  0.5222049110285027  1.0000
  C   C10       1.0  0.7384387299716052  0.2160037625150508  0.9778194580548671  1.0000
  C   C11       1.0  0.9544188708396959  0.7839790646159344  0.47779481659997464  1.0000
  C   C12       1.0  0.26156447170102143  0.7839935076341504  0.022181989645496  1.0000
  C   C13       1.0  0.57297777845951  0.1560387580516931  0.5978477993100739  1.0000
  C   C14       1.0  0.27092294229271374  0.1561795774792998  0.902186068999413  1.0000
  C   C15       1.0  0.4270210606719118  0.8439741587005685  0.40215053681622953  1.0000
  C   C16       1.0  0.7290659145023001  0.8438140819153404  0.0978138516891462  1.0000
  C   C17       1.0  0.600485900581546  0.6525439880952888  0.5596994056492477  1.0000
  C   C18       1.0  0.7468729870226127  0.6525993529984504  0.9403095859662541  1.0000
  C   C19       1.0  0.3995142921254811  0.3474592999781692  0.44030067629020664  1.0000
  C   C20       1.0  0.2531295628604369  0.3474015279053049  0.0596904831024503  1.0000
  C   C21       1.0  0.3292652225306441  0.7465848868697191  0.5301972881985719  1.0000
  C   C22       1.0  0.9239758264887283  0.7467569995034609  0.9697958660790887  1.0000
  C   C23       1.0  0.6707356219659601  0.2534147904491846  0.4698024651712203  1.0000
  C   C24       1.0  0.07602732518744659  0.2532426778154431  0.0302035201090689  1.0000
  C   C25       1.0  0.2981467657430628  0.6381021734640839  0.5571240371482561  1.0000
  C   C26       1.0  0.06360561983656514  0.6382225319492179  0.9428893984819311  1.0000
  C   C27       1.0  0.7018546305502084  0.36189870743967123  0.4428763862313971  1.0000
  C   C28       1.0  0.9363975318396098  0.3617771453696861  0.0571089633854385  1.0000
  C   C29       1.0  0.4280436536204349  0.5408308529486587  0.5863471112142022  1.0000
  C   C30       1.0  0.031045663769362  0.5408801999275636  0.9136762284117169  1.0000
  C   C31       1.0  0.571957140879711  0.4591712315399405  0.41365297072521656  1.0000
  C   C32       1.0  0.9689563343170277  0.459119477391333  0.0863224877665942  1.0000
  C   C33       1.0  0.16675435061166874  0.09361242256735378  0.6874485169473346  1.0000
  C   C34       1.0  0.7396044689886877  0.0936437157734886  0.8125545347746836  1.0000
  C   C35       1.0  0.8332429831191277  0.9063896619212457  0.3125516036041418  1.0000
  C   C36       1.0  0.2603947201179295  0.9063523507908541  0.1874459400876063  1.0000
  C   C37       1.0  0.2685265861329782  0.8286116016580962  0.7082886225063802  1.0000
  C   C38       1.0  0.9028282322966561  0.8286525235430418  0.7917064305518053  1.0000
  C   C39       1.0  0.7314707975942767  0.17138807566080763  0.2917115109157251  1.0000
  C   C40       1.0  0.09717266219640659  0.1713447466061595  0.2082933356886159  1.0000
  C   C41       1.0  0.14381937631357297  0.8173978015981829  0.6822811888225502  1.0000
  C   C42       1.0  0.03876596912259346  0.8174266876346152  0.8177074277263329  1.0000
  C   C43       1.0  0.856176252030778  0.1826030793055722  0.31771895747026946  1.0000
  C   C44       1.0  0.9612360789602477  0.182570582514586  0.1822923256433953  1.0000
  C   C45       1.0  0.030169330884533132  0.9552852965068509  0.6593640093376933  1.0000
  C   C46       1.0  0.014532623189282407  0.9553033502796211  0.8406300896078633  1.0000
  C   C47       1.0  0.9698297582291671  0.0447155843969043  0.340635756902806  1.0000
  C   C48       1.0  0.9854665159208764  0.0446951234544315  0.15937037238379756  1.0000
  Se  Se1       1.0  0.9932206609067576  0.5222005630348008  0.6403163129350915  1.0000
  Se  Se2       1.0  0.48457533915467393  0.5221957486953954  0.8596851358586619  1.0000
  Se  Se3       1.0  0.006785549731468243  0.4777906891901367  0.3596830861235532  1.0000
  Se  Se4       1.0  0.5154249535452706  0.4778027250386501  0.1403153132623061  1.0000
  Se  Se5       1.0  0.6269752087810403  0.42529513231418997  0.7091707739629598  1.0000
  Se  Se6       1.0  0.9477161050980172  0.4253384613688382  0.7908482707219164  1.0000
  Se  Se7       1.0  0.37302388033265993  0.5747057485895652  0.2908296751580721  1.0000
  Se  Se8       1.0  0.05228825016439494  0.574658808780363  0.2091531641077609  1.0000
  Se  Se9       1.0  0.15571705725038504  0.12239856145680508  0.46928128169913214  1.0000
  Se  Se10      1.0  0.7219286663944187  0.1224105973053184  0.030752817432464497  1.0000
  Se  Se11      1.0  0.8442797746802031  0.8775999122772473  0.530718523153368  1.0000
  Se  Se12      1.0  0.2780727798953038  0.8775878764287341  0.9692483016983502  1.0000
  Se  Se13      1.0  0.376978444765939  0.14369960615577773  0.5868507499545217  1.0000
  Se  Se14      1.0  0.4791200725598299  0.1441485433053273  0.9132034626204089  1.0000
  Se  Se15      1.0  0.6230275658864669  0.8563012747479704  0.41314893906186967  1.0000
  Se  Se16      1.0  0.5208758557632579  0.8558378945802048  0.0867940293740759  1.0000
  N   N1        1.0  0.7171619676205551  0.7673635757432109  0.7011299342016741  1.0000
  N   N2        1.0  0.5155112608241766  0.7673238574431166  0.7988637570167683  1.0000
  N   N3        1.0  0.28284243763830835  0.23263128723628054  0.2988670747752096  1.0000
  N   N4        1.0  0.484493144434687  0.23267100553637474  0.2011359834822244  1.0000
  N   N5        1.0  0.5026992020946892  0.1782629523316501  0.7046661409926217  1.0000
  N   N6        1.0  0.3189935361505504  0.17820518025878573  0.7953433884667902  1.0000
  N   N7        1.0  0.49729462087029924  0.8217415393266592  0.29533502962107155  1.0000
  N   N8        1.0  0.6810102173187432  0.8217932934752668  0.2046580463629226  1.0000
  N   N9        1.0  0.9692632069470973  0.2748313792938859  0.5565918869617689  1.0000
  N   N10       1.0  0.7559387215016782  0.2747651821270622  0.9434241677797245  1.0000
  N   N11       1.0  0.030733474994121896  0.7251743159492676  0.4434075378385813  1.0000
  N   N12       1.0  0.24406096940514735  0.7252344951918346  0.05657696422180441  1.0000
  N   N13       1.0  0.6985775430294722  0.16993414516039  0.6047909234472968  1.0000
  N   N14       1.0  0.131523511529025  0.1699088698785118  0.8952049040647337  1.0000
  N   N15       1.0  0.3014260604504528  0.8300715500827707  0.3952077412484201  1.0000
  N   N16       1.0  0.868462286303938  0.8300932146100948  0.1047973938351774  1.0000
  N   N17       1.0  0.5807020014972649  0.5453683678382077  0.5867805780517656  1.0000
  N   N18       1.0  0.8738745073229736  0.5453792001018698  0.9132459446164632  1.0000
  N   N19       1.0  0.4192981912097622  0.4546349202352502  0.4132198453279514  1.0000
  N   N20       1.0  0.1261245817907266  0.4546216808018855  0.0867541630643061  1.0000
  N   N21       1.0  0.4789732754832841  0.756203937001608  0.5321475631750374  1.0000
  N   N22       1.0  0.764667267905985  0.7563435528443634  0.9678397613282002  1.0000
  N   N23       1.0  0.5210263654270761  0.2437981474869915  0.4678525316350743  1.0000
  N   N24       1.0  0.23533528197706488  0.2436573280593848  0.0321603077405115  1.0000
  N   N25       1.0  0.041241665783751096  0.0934643816306391  0.6621825295083141  1.0000
  N   N26       1.0  0.8652707610514767  0.0934776210640038  0.8378229509002184  1.0000
  N   N27       1.0  0.9587585769197345  0.9065364992731089  0.33781722386150653  1.0000
  N   N28       1.0  0.1347260708791183  0.9065208526700417  0.16217753683280728  1.0000
  N   N29       1.0  0.2804986408728  0.9662668046904556  0.7106335512358869  1.0000
  N   N30       1.0  0.7532013175905659  0.9663113373299553  0.7893638726339702  1.0000
  N   N31       1.0  0.7194981410613365  0.0337340762132996  0.28936658218624706  1.0000
  N   N32       1.0  0.24680073049228207  0.033685932819246  0.2106362221760278  1.0000
