data_image0
_chemical_formula_structural       Al4H52C72N8O28F8
_chemical_formula_sum              "Al4 H52 C72 N8 O28 F8"
_cell_length_a       6.66156895504434
_cell_length_b       23.179089152822005
_cell_length_c       26.10552889277186
_cell_angle_alpha    100.73642395678435
_cell_angle_beta     89.97832481497213
_cell_angle_gamma    90.14210748997634

_space_group_name_H-M_alt    "P 1"
_space_group_IT_number       1

loop_
  _space_group_symop_operation_xyz
  'x, y, z'

loop_
  _atom_site_type_symbol
  _atom_site_label
  _atom_site_symmetry_multiplicity
  _atom_site_fract_x
  _atom_site_fract_y
  _atom_site_fract_z
  _atom_site_occupancy
  Al  Al1       1.0  0.7640832584690573  0.7509670458491371  0.2509985030031885  1.0000
  Al  Al2       1.0  0.2492723160356149  0.24956676222279842  0.7502702510711785  1.0000
  Al  Al3       1.0  0.26452839613064333  0.7488437974712382  0.249785419107063  1.0000
  Al  Al4       1.0  0.7489262802523202  0.2511843908108418  0.7509988180562814  1.0000
  H   H1        1.0  0.6798821756686451  0.0514529039525939  0.5246154246029135  1.0000
  H   H2        1.0  0.32904413097764257  0.9488261838805627  0.4756760681164494  1.0000
  H   H3        1.0  0.17874588345398482  0.4786099976423586  0.9537920072570856  1.0000
  H   H4        1.0  0.8317971259350119  0.5208402292541691  0.047239586602657396  1.0000
  H   H5        1.0  0.19647568131607332  0.1355860809961342  0.9725820211608392  1.0000
  H   H6        1.0  0.7099035334420308  0.8920569084728454  0.051803467614846  1.0000
  H   H7        1.0  0.7017543306919338  0.36635274459355577  0.5293632767856521  1.0000
  H   H8        1.0  0.20882139835659072  0.6058893926058815  0.44665304218593593  1.0000
  H   H9        1.0  0.8043523413703113  0.9793998653261936  0.3720735060263324  1.0000
  H   H10       1.0  0.6195574287125255  0.03375870479280963  0.39595082627645445  1.0000
  H   H11       1.0  0.3487770488229884  0.9564700818994893  0.3745049753838926  1.0000
  H   H12       1.0  0.4927945728657194  0.9618987360098713  0.318319319975167  1.0000
  H   H13       1.0  0.5345842685889651  0.9025945953724417  0.35154716067273034  1.0000
  H   H14       1.0  0.38788506149411717  0.9660675930947772  0.6043090189695662  1.0000
  H   H15       1.0  0.20459591081935716  0.02071837200190882  0.6283763369711223  1.0000
  H   H16       1.0  0.47730118405713284  0.09697860803043311  0.6468449200974645  1.0000
  H   H17       1.0  0.5151461369930389  0.03879723587210296  0.6821261839102492  1.0000
  H   H18       1.0  0.6612776587923721  0.04213134316033523  0.6257670034178773  1.0000
  H   H19       1.0  0.10919914509943142  0.6232148721003695  0.9885306968411172  1.0000
  H   H20       1.0  0.30647740120318906  0.6420840783212824  0.0352230375739069  1.0000
  H   H21       1.0  0.055629730555978106  0.6563102295153554  0.1081713639810715  1.0000
  H   H22       1.0  0.0002680051659779982  0.7022813677029517  0.06240119986640741  1.0000
  H   H23       1.0  0.8566588824997509  0.6377062414424229  0.06239161835608798  1.0000
  H   H24       1.0  0.7051470410349056  0.3575283669371956  0.9669235156674246  1.0000
  H   H25       1.0  0.9036889402319447  0.3770932789968526  0.013101971929721396  1.0000
  H   H26       1.0  0.1536220512226194  0.3621925382806025  0.9386418207374518  1.0000
  H   H27       1.0  0.012464083668497501  0.2975110205892832  0.9396178876316625  1.0000
  H   H28       1.0  0.9533923602960713  0.34261954463260486  0.8934509055103419  1.0000
  H   H29       1.0  0.45508047857234873  0.060435051975837054  0.8654604725669516  1.0000
  H   H30       1.0  0.5038280327568359  0.052135134440412394  0.9313362199063276  1.0000
  H   H31       1.0  0.4568305915865025  0.9440687037078279  0.9068116208939258  1.0000
  H   H32       1.0  0.23886516232772695  0.9810279894629019  0.8897192163331054  1.0000
  H   H33       1.0  0.41240269167919763  0.9501272862606811  0.8404813801500666  1.0000
  H   H34       1.0  0.4022933299827471  0.9919109620476192  0.17618068417579735  1.0000
  H   H35       1.0  0.25120888162810934  0.0351794934328638  0.140573527848602  1.0000
  H   H36       1.0  0.5501586083587782  0.048934973942024784  0.08539832037798327  1.0000
  H   H37       1.0  0.5947404478498727  0.0780048029474258  0.1526301817261313  1.0000
  H   H38       1.0  0.7023149864175194  0.0094738701837969  0.12346410526376415  1.0000
  H   H39       1.0  0.954730086146583  0.4404570701867883  0.6351863409483441  1.0000
  H   H40       1.0  0.0028029236259997  0.44821696488297397  0.5690944969548042  1.0000
  H   H41       1.0  0.9567024390208374  0.5563266330966313  0.5930928950012699  1.0000
  H   H42       1.0  0.7387965650337024  0.5194105150887864  0.6106924071856312  1.0000
  H   H43       1.0  0.9133347628116725  0.5506807040915404  0.6595646725829523  1.0000
  H   H44       1.0  0.9037160992753286  0.5079308218986895  0.3236095463515625  1.0000
  H   H45       1.0  0.7511498603690541  0.46469855455558223  0.3591445213219585  1.0000
  H   H46       1.0  0.049090842058539905  0.45095539460249506  0.4144780438268256  1.0000
  H   H47       1.0  0.09381330417032532  0.42175972357529906  0.3472825573524005  1.0000
  H   H48       1.0  0.20262767441339244  0.49025997969204127  0.37639023276547323  1.0000
  H   H49       1.0  0.5115638907369658  0.817202621045048  0.23054084264569497  1.0000
  H   H50       1.0  0.5025583686076446  0.17520932745286202  0.7261556914959898  1.0000
  H   H51       1.0  0.010917073192821598  0.679455667636141  0.26492498646663876  1.0000
  H   H52       1.0  0.0033596418856590006  0.3254126669449917  0.7470335204322964  1.0000
  C   C1        1.0  0.5176939767890688  0.6910926333222845  0.3174001197072939  1.0000
  C   C2        1.0  0.4972603974693116  0.3144134259178558  0.6868243853137841  1.0000
  C   C3        1.0  0.012746491092833902  0.8085954242831123  0.18271229820662427  1.0000
  C   C4        1.0  0.0009423489743838001  0.18773917058387476  0.8146237281097513  1.0000
  C   C5        1.0  0.5135090485283343  0.6690756279690362  0.17690300696839498  1.0000
  C   C6        1.0  0.4989773833565608  0.3278600951309443  0.8260747672192464  1.0000
  C   C7        1.0  0.0211169423726574  0.8289671167439464  0.3249647667360023  1.0000
  C   C8        1.0  0.9941983504251724  0.17296120290406242  0.6739022429742507  1.0000
  C   C9        1.0  0.8220285580522954  0.029387647390876733  0.5137815429496726  1.0000
  C   C10       1.0  0.18687061450117426  0.9708742122195771  0.48648344451718367  1.0000
  C   C11       1.0  0.3216696708780021  0.48795929088866785  0.9739241013393352  1.0000
  C   C12       1.0  0.6888567291135602  0.5114712940893112  0.0271043813343184  1.0000
  C   C13       1.0  0.9948704198196129  0.04496334808100503  0.5445088646581269  1.0000
  C   C14       1.0  0.014222746145264899  0.9553877194969684  0.45569173581343136  1.0000
  C   C15       1.0  0.4944667301077744  0.4554234391346412  0.9558103232539636  1.0000
  C   C16       1.0  0.5160279432437634  0.5439483690517477  0.0452813469585678  1.0000
  C   C17       1.0  0.17827791181009195  0.01478472052367864  0.5306101459599404  1.0000
  C   C18       1.0  0.8305429363695043  0.9854206633828184  0.4696572081087851  1.0000
  C   C19       1.0  0.6791406228571618  0.467429861453347  0.9830912169746353  1.0000
  C   C20       1.0  0.3314055192676335  0.5320507759490667  0.017929059768711397  1.0000
  C   C21       1.0  0.98966248449932  0.09079924323449262  0.5883912656113921  1.0000
  C   C22       1.0  0.020732155064365498  0.9099440545428693  0.41149361322926126  1.0000
  C   C23       1.0  0.4892519213800456  0.41186359496027347  0.9102293051520006  1.0000
  C   C24       1.0  0.5219701946648243  0.5869654958482896  0.09124104310998857  1.0000
  C   C25       1.0  0.021173756533130497  0.8716918060198608  0.372551220943933  1.0000
  C   C26       1.0  0.9925167090769521  0.1296463079468566  0.6269072786380789  1.0000
  C   C27       1.0  0.519349411890481  0.6241897489985958  0.1308932719745499  1.0000
  C   C28       1.0  0.49430994136323403  0.3737030582907792  0.8712461433220611  1.0000
  C   C29       1.0  0.11561042227697273  0.1591656769050473  0.8996778837924778  1.0000
  C   C30       1.0  0.8517263316703492  0.850118807690933  0.1086693027528867  1.0000
  C   C31       1.0  0.6184841089277883  0.3431000721689088  0.6023519045678823  1.0000
  C   C32       1.0  0.35181191914558246  0.6481682413247752  0.3899626103967293  1.0000
  C   C33       1.0  0.10321364179370111  0.12533369868327066  0.9378698689353369  1.0000
  C   C34       1.0  0.8440768339364058  0.8894726026527026  0.0750073535597693  1.0000
  C   C35       1.0  0.6069153118931325  0.3764477546007186  0.5637911071000801  1.0000
  C   C36       1.0  0.3436491819057609  0.608964596428045  0.42375556300427053  1.0000
  C   C37       1.0  0.9666289634022789  0.07808850124198592  0.932488536550899  1.0000
  C   C38       1.0  0.0054163632928876  0.9281353545371687  0.0724847059209637  1.0000
  C   C39       1.0  0.4687551639482522  0.42305260363276187  0.5684170041939183  1.0000
  C   C40       1.0  0.506110681527325  0.5710345393910147  0.42679856966808666  1.0000
  C   C41       1.0  0.8458117022137303  0.06509139280743172  0.8872375006974166  1.0000
  C   C42       1.0  0.17859396761506474  0.9243498996779634  0.1028864868669856  1.0000
  C   C43       1.0  0.34553444970831043  0.436013693365453  0.6132359221741481  1.0000
  C   C44       1.0  0.6801614883786584  0.5751966779584734  0.39669690014398634  1.0000
  C   C45       1.0  0.8633399471777637  0.10134973449836343  0.8499245462166698  1.0000
  C   C46       1.0  0.17706490480966863  0.8843813643706683  0.1372769624450072  1.0000
  C   C47       1.0  0.3608622808520039  0.3998342110113171  0.6505946284454751  1.0000
  C   C48       1.0  0.6792225740847044  0.6151426596854107  0.36232194841633  1.0000
  C   C49       1.0  0.9949362571664225  0.14915848996803766  0.8547914217248052  1.0000
  C   C50       1.0  0.015056326472411303  0.8469270103906723  0.1424209245934236  1.0000
  C   C51       1.0  0.4941813090275603  0.35278995619574266  0.646523148174893  1.0000
  C   C52       1.0  0.5170402494009212  0.6520492039976274  0.3570321636205946  1.0000
  C   C53       1.0  0.9829644048690368  0.9728455958056941  0.039756976107419496  1.0000
  C   C54       1.0  0.9566500311016952  0.043582684138961346  0.9741705159005107  1.0000
  C   C55       1.0  0.4839001562233279  0.526624971323244  0.4598415747706497  1.0000
  C   C56       1.0  0.45887760553456053  0.45687512261959995  0.5262690586892447  1.0000
  C   C57       1.0  0.6547501764832547  0.9864331759551632  0.3900440058494752  1.0000
  C   C58       1.0  0.4984417011463904  0.9495263164739497  0.35696451197107837  1.0000
  C   C59       1.0  0.35371770384305284  0.013420840775900403  0.6101942568413108  1.0000
  C   C60       1.0  0.5114520315627901  0.05002104205883035  0.6430338700533511  1.0000
  C   C61       1.0  0.15471484686161574  0.6231387842633964  0.029187930252191994  1.0000
  C   C62       1.0  0.008180294691321402  0.6564504755644903  0.06792133266422698  1.0000
  C   C63       1.0  0.8568046903203312  0.376640666585537  0.9724458522920327  1.0000
  C   C64       1.0  0.0024786209312778994  0.34311364058288507  0.9336758120052621  1.0000
  C   C65       1.0  0.5117918587261627  0.030295436548541967  0.890140412040715  1.0000
  C   C66       1.0  0.3988832585556069  0.9727543143609624  0.8811929866367548  1.0000
  C   C67       1.0  0.38384662834403127  0.006644982388664306  0.1387072627220931  1.0000
  C   C68       1.0  0.5693938169437303  0.037445543853643015  0.12404465229244009  1.0000
  C   C69       1.0  0.011354525315340404  0.4703526398982876  0.6101953381254646  1.0000
  C   C70       1.0  0.8990008123510692  0.527804579073532  0.6189482748075719  1.0000
  C   C71       1.0  0.8844764743429679  0.4931780352032291  0.36105416252068057  1.0000
  C   C72       1.0  0.06910567920162691  0.46234357685349176  0.37581744813773804  1.0000
  N   N1        1.0  0.09390382657617381  0.05524571551504207  0.012929967501442298  1.0000
  N   N2        1.0  0.8199792436720374  0.9691714722362191  0.0084742178739106  1.0000
  N   N3        1.0  0.5970457400636705  0.4452649717648213  0.4877745407222278  1.0000
  N   N4        1.0  0.3200816887112197  0.5299469122464158  0.49085205808490423  1.0000
  N   N5        1.0  0.1013937701889915  0.0214383715013113  0.04810933191313179  1.0000
  N   N6        1.0  0.7991119267240452  0.007015554166542957  0.9771083083916635  1.0000
  N   N7        1.0  0.6038766780695398  0.47853455214710294  0.4521494311399294  1.0000
  N   N8        1.0  0.30013362518839415  0.4925515401240617  0.5226749402311414  1.0000
  O   O1        1.0  0.33993053229232834  0.6882511199719871  0.1919882457792852  1.0000
  O   O2        1.0  0.6713565340635128  0.30865304430471246  0.809907296382697  1.0000
  O   O3        1.0  0.8501330697002702  0.8157160298380148  0.30396298661585763  1.0000
  O   O4        1.0  0.16582228367973073  0.18782059999072936  0.6940366785085742  1.0000
  O   O5        1.0  0.6858331348275543  0.7110886219402698  0.30600928899047364  1.0000
  O   O6        1.0  0.3270179969491309  0.2969204300309656  0.6994842642629493  1.0000
  O   O7        1.0  0.18103798699878842  0.7949405959482262  0.19963966573502734  1.0000
  O   O8        1.0  0.8319771637670287  0.20171160830354043  0.7984661925536116  1.0000
  O   O9        1.0  0.6815396601631251  0.6850679907618229  0.19842735042399076  1.0000
  O   O10       1.0  0.3302802214504369  0.31059355358998897  0.8057923737512382  1.0000
  O   O11       1.0  0.19168776475088833  0.8095027348833811  0.3077748659309875  1.0000
  O   O12       1.0  0.823831827464801  0.19193501904502608  0.6918962644145595  1.0000
  O   O13       1.0  0.8418895790184708  0.7940035413324508  0.1977312674534915  1.0000
  O   O14       1.0  0.17264737033521976  0.20224563469123777  0.8004088349288805  1.0000
  O   O15       1.0  0.3494421806847187  0.6999598789321482  0.2974099030454838  1.0000
  O   O16       1.0  0.6676735298759057  0.30353735372329993  0.7044708008665382  1.0000
  O   O17       1.0  0.5135664790621207  0.7853508313115537  0.24995620275421965  1.0000
  O   O18       1.0  0.49985946397868025  0.2148281781491549  0.7463054158210626  1.0000
  O   O19       1.0  0.0127155138546442  0.7148996676412054  0.2501947773386561  1.0000
  O   O20       1.0  0.0002173153612687998  0.2852433730837589  0.7525973708204248  1.0000
  O   O21       1.0  0.6594435749367451  0.9698396191467467  0.44117399576121835  1.0000
  O   O22       1.0  0.34936323217011284  0.03022769663012783  0.5591959488865399  1.0000
  O   O23       1.0  0.16074176176221042  0.5621237207078023  0.03589632693228849  1.0000
  O   O24       1.0  0.8497023124823928  0.4373762763555931  0.9650561122347127  1.0000
  O   O25       1.0  0.7220051744207724  0.01739958372513684  0.8771740474089924  1.0000
  O   O26       1.0  0.34923295464643905  0.9555117301452541  0.09781042974319828  1.0000
  O   O27       1.0  0.22179409267031502  0.4835349208819935  0.6227948267967705  1.0000
  O   O28       1.0  0.8507413145170164  0.5443434058719632  0.40192645912792807  1.0000
  F   F1        1.0  0.24562929952301  0.20511862356850233  0.9070932032482871  1.0000
  F   F2        1.0  0.6933042837977511  0.8134253406883261  0.10854839441319089  1.0000
  F   F3        1.0  0.7502745822126756  0.2978019269721628  0.5960727967768946  1.0000
  F   F4        1.0  0.1932281528620408  0.6843281721196348  0.3891222641920393  1.0000
  F   F5        1.0  0.749062010866595  0.08730880788305481  0.8065570565795781  1.0000
  F   F6        1.0  0.34259769440525645  0.8846011290613448  0.16733067863465584  1.0000
  F   F7        1.0  0.24251310257700712  0.4130616288752833  0.693368549538974  1.0000
  F   F8        1.0  0.8445027005471532  0.6156066711550352  0.3322482480449267  1.0000
