data_image0
_chemical_formula_structural       Al6H82C91O39
_chemical_formula_sum              "Al6 H82 C91 O39"
_cell_length_a       13.144139850816485
_cell_length_b       13.019451354740962
_cell_length_c       28.34151214716732
_cell_angle_alpha    91.01294739089765
_cell_angle_beta     90.89150582849335
_cell_angle_gamma    59.76962773438179

_space_group_name_H-M_alt    "P 1"
_space_group_IT_number       1

loop_
  _space_group_symop_operation_xyz
  'x, y, z'

loop_
  _atom_site_type_symbol
  _atom_site_label
  _atom_site_symmetry_multiplicity
  _atom_site_fract_x
  _atom_site_fract_y
  _atom_site_fract_z
  _atom_site_occupancy
  Al  Al1       1.0  0.4054646882128239  0.17993549052533098  0.5024457108815027  1.0000
  Al  Al2       1.0  0.6497540161858737  0.9312752723223879  0.5010219469663894  1.0000
  Al  Al3       1.0  0.42591048727724984  0.9233281409695805  0.49980669708568115  1.0000
  Al  Al4       1.0  0.9229982515613173  0.15170394618073144  0.998262822215878  1.0000
  Al  Al5       1.0  0.9165723507797169  0.4019367607142784  0.0017012302372165999  1.0000
  Al  Al6       1.0  0.6860512970692838  0.40635184107330263  0.002679464558738699  1.0000
  H   H1        1.0  0.03517913753934471  0.09777251511491869  0.6953059800982472  1.0000
  H   H2        1.0  0.8900005459123721  0.5419301943387682  0.7066031319271673  1.0000
  H   H3        1.0  0.49710783185260254  0.17075873639627298  0.7132956192980303  1.0000
  H   H4        1.0  0.6591707497217386  0.3322089257731023  0.694176757503534  1.0000
  H   H5        1.0  0.5200959910483648  0.34798462280743775  0.7053050405226243  1.0000
  H   H6        1.0  0.5465268399837342  0.392316533777695  0.7839026815706305  1.0000
  H   H7        1.0  0.6970999828151463  0.3417777393605804  0.7752267564596025  1.0000
  H   H8        1.0  0.8291993186296196  0.15628223487176734  0.7146413057183238  1.0000
  H   H9        1.0  0.7987945339285929  0.018191344758513164  0.7925523672982777  1.0000
  H   H10       1.0  0.6197384590115291  0.03185243691872609  0.7270700550761972  1.0000
  H   H11       1.0  0.5870170310826168  0.09178306571421763  0.8066151058136627  1.0000
  H   H12       1.0  0.0384425233304384  0.08862334970347518  0.778287662345413  1.0000
  H   H13       1.0  0.8542886070620954  0.11646723258974837  0.7956426742844371  1.0000
  H   H14       1.0  0.4834472905606688  0.747280967427045  0.2043719645362998  1.0000
  H   H15       1.0  0.46974328340173344  0.7898353551162245  0.28548849026867634  1.0000
  H   H16       1.0  0.7527234134460415  0.502051148027441  0.30236140890268354  1.0000
  H   H17       1.0  0.5976337523929729  0.5681275157205191  0.29678401407778676  1.0000
  H   H18       1.0  0.6229038292299408  0.5256692048139512  0.21562446567239849  1.0000
  H   H19       1.0  0.7759553558027079  0.47005401059971047  0.22180168552625193  1.0000
  H   H20       1.0  0.7643365844051715  0.779678808529731  0.2866835220428854  1.0000
  H   H21       1.0  0.8479349095827331  0.6226733968418687  0.28955981785580315  1.0000
  H   H22       1.0  0.7488860942739421  0.7723335115513236  0.2053065528631137  1.0000
  H   H23       1.0  0.9375900468969149  0.24271414752851686  0.7763656385386141  1.0000
  H   H24       1.0  0.5047979717161581  0.6947907870316214  0.7815213018048153  1.0000
  H   H25       1.0  0.5356955059539743  0.8779596578070821  0.2776331255480499  1.0000
  H   H26       1.0  0.5405180001542293  0.843573328112889  0.19689794775771932  1.0000
  H   H27       1.0  0.2809209935571388  0.24050264879419098  0.2029825644075132  1.0000
  H   H28       1.0  0.2555760788330588  0.2675266679529218  0.2844604790394456  1.0000
  H   H29       1.0  0.0039198338588591  0.2032513797489273  0.28382951218063107  1.0000
  H   H30       1.0  0.3157309001294877  0.9745723334737091  0.26953835139415355  1.0000
  H   H31       1.0  0.5883664583938852  0.5384665758395427  0.703602868342159  1.0000
  H   H32       1.0  0.2287850311028592  0.976539815430968  0.19619597601560199  1.0000
  H   H33       1.0  0.3656179541567823  0.1160239125145139  0.28820336381882333  1.0000
  H   H34       1.0  0.25462370140662216  0.25347158539108944  0.7150915779543467  1.0000
  H   H35       1.0  0.3543730438671489  0.08363802071903595  0.207036439383927  1.0000
  H   H36       1.0  0.0829335320791813  0.06166506172699119  0.2172077273234549  1.0000
  H   H37       1.0  0.7947427832486724  0.9741807004852774  0.27940831448184156  1.0000
  H   H38       1.0  0.6981098098318982  0.29087549273670976  0.3018177252402268  1.0000
  H   H39       1.0  0.8199947441610788  0.14545431600823405  0.3061253301636313  1.0000
  H   H40       1.0  0.8484975445226439  0.13202335299034454  0.22458833162741598  1.0000
  H   H41       1.0  0.8103389941133018  0.4040910921103205  0.7492511261420276  1.0000
  H   H42       1.0  0.7452772963711285  0.2835160496832144  0.22209093369899338  1.0000
  H   H43       1.0  0.4734895305739427  0.20256979455573548  0.27663683770268926  1.0000
  H   H44       1.0  0.4900223726272657  0.32322380128222516  0.29608848909052193  1.0000
  H   H45       1.0  0.1706710795430553  0.33137943364536687  0.789078159107042  1.0000
  H   H46       1.0  0.4764664493410465  0.2670615386721239  0.20039773589413556  1.0000
  H   H47       1.0  0.654072513335457  0.9862466665135939  0.2806765983616372  1.0000
  H   H48       1.0  0.5368346312841936  0.35481332554675055  0.21981618526118044  1.0000
  H   H49       1.0  0.2478641250411897  0.011610666161566034  0.8041320017493446  1.0000
  H   H50       1.0  0.2532028606029897  0.9731226594259395  0.7224496694673446  1.0000
  H   H51       1.0  0.9737081641710149  0.2540452669575899  0.6956656903770123  1.0000
  H   H52       1.0  0.9879013852185992  0.5885106727094466  0.7746785185914504  1.0000
  H   H53       1.0  0.9308867770749816  0.5771982812755069  0.8306032166749091  1.0000
  H   H54       1.0  0.9644249466673216  0.692870913139423  0.8214941523704765  1.0000
  H   H55       1.0  0.1183198864518218  0.35336613257082655  0.6561304122843836  1.0000
  H   H56       1.0  0.34685513943856716  0.0327618413143469  0.7187925233240905  1.0000
  H   H57       1.0  0.7741179339937787  0.9106306917104232  0.6838201939726858  1.0000
  H   H58       1.0  0.8188033907055543  0.8860169952332266  0.7447747819646365  1.0000
  H   H59       1.0  0.9247952155166246  0.8136800447979764  0.6993765300655993  1.0000
  H   H60       1.0  0.6162526287881746  0.8954153986242944  0.8060548613784064  1.0000
  H   H61       1.0  0.48413624200995303  0.8869558794054622  0.8023640124682955  1.0000
  H   H62       1.0  0.4860288083783147  0.01241360477462914  0.7787122739880914  1.0000
  H   H63       1.0  0.8884832626772691  0.5930085137226089  0.17317590704555388  1.0000
  H   H64       1.0  0.0896183514443578  0.4405386228308005  0.3002777571101732  1.0000
  H   H65       1.0  0.13559259021627673  0.34598063412195046  0.3512183894799463  1.0000
  H   H66       1.0  0.995589123882489  0.4784475024041655  0.3505806898005659  1.0000
  H   H67       1.0  0.3077746498826883  0.1051225503836122  0.7974066942128673  1.0000
  H   H68       1.0  0.9916716273353288  0.44802826993856826  0.2249249032617371  1.0000
  H   H69       1.0  0.9516855793170579  0.29687167474215653  0.175516888664113  1.0000
  H   H70       1.0  0.0111511052420283  0.027002785611188098  0.2795971029290314  1.0000
  H   H71       1.0  0.048750849594824806  0.05956141637376788  0.3371484755663943  1.0000
  H   H72       1.0  0.0723126805443428  0.9147530189377305  0.32374803054142376  1.0000
  H   H73       1.0  0.9313275446991156  0.9336647732476991  0.22631092313245196  1.0000
  H   H74       1.0  0.8992938819824305  0.0014187250819190107  0.16887790204842193  1.0000
  H   H75       1.0  0.9525351435480262  0.8459402127192843  0.17439017066099177  1.0000
  H   H76       1.0  0.6362501445352606  0.9868657893799763  0.1333629821613158  1.0000
  H   H77       1.0  0.5197655834882653  0.13769327885462004  0.1414102326144615  1.0000
  H   H78       1.0  0.026972133082487904  0.3794400842956875  0.7670782535328655  1.0000
  H   H79       1.0  0.4927124270575759  0.01824501180733061  0.15077384321438098  1.0000
  H   H80       1.0  0.48241757532034063  0.2396513385551345  0.7915549701805701  1.0000
  H   H81       1.0  0.3215534657261898  0.37584757092670873  0.4763179614645877  1.0000
  H   H82       1.0  0.0217912240468507  0.9555878138331833  0.024892259340333598  1.0000
  C   C1        1.0  0.6133995600117998  0.10221899541335235  0.5683266304500803  1.0000
  C   C2        1.0  0.6627709582111336  0.69117488880044  0.6500492799031716  1.0000
  C   C3        1.0  0.25930127945974846  0.052775170080231255  0.7303378601387394  1.0000
  C   C4        1.0  0.6133622516041086  0.7853127185926  0.5648130524815612  1.0000
  C   C5        1.0  0.0417932608361369  0.17112198628578307  0.7118216918859802  1.0000
  C   C6        1.0  0.026444266750296205  0.17351173825788624  0.7658135682318631  1.0000
  C   C7        1.0  0.0775621687949908  0.22406309787893974  0.883468881468751  1.0000
  C   C8        1.0  0.16323273970775892  0.15689423748627007  0.7010196585594102  1.0000
  C   C9        1.0  0.2412438603772813  0.08518743298218823  0.783373694839078  1.0000
  C   C10       1.0  0.11857098811251629  0.19661840214371298  0.7910883686376663  1.0000
  C   C11       1.0  0.11753446398482481  0.30381222102769806  0.7679639312008889  1.0000
  C   C12       1.0  0.6437431816563475  0.7269188859278232  0.6095727711215843  1.0000
  C   C13       1.0  0.1627740440640508  0.27247454572650304  0.7170851832615598  1.0000
  C   C14       1.0  0.0952615858564698  0.21520384160733388  0.8412309190993738  1.0000
  C   C15       1.0  0.1926546798327209  0.1351248252237838  0.651448988249392  1.0000
  C   C16       1.0  0.28361574026006053  0.09259007251788633  0.5658906119092038  1.0000
  C   C17       1.0  0.2253108097228846  0.1176429576969937  0.6107025940073499  1.0000
  C   C18       1.0  0.5834098971725652  0.12784746228280852  0.731136007216861  1.0000
  C   C19       1.0  0.6132326061423683  0.2996836787746489  0.7160668797147663  1.0000
  C   C20       1.0  0.6281656772383217  0.31883312114958773  0.7691801449256417  1.0000
  C   C21       1.0  0.6743481137047597  0.22898079340084362  0.8891832573918065  1.0000
  C   C22       1.0  0.6631718167907722  0.16533905288126496  0.7053504382078656  1.0000
  C   C23       1.0  0.7593263328991641  0.500853568036888  0.7471656646921757  1.0000
  C   C24       1.0  0.5710929718849656  0.1654099413732339  0.7836674069082291  1.0000
  C   C25       1.0  0.6620122936274129  0.2036163546042573  0.7963394307931964  1.0000
  C   C26       1.0  0.7847830581849848  0.10365309047427472  0.7798046138364682  1.0000
  C   C27       1.0  0.7916527835288889  0.1016834059483642  0.7256372779017964  1.0000
  C   C28       1.0  0.608562579545108  0.10207160918230333  0.43446997928271  1.0000
  C   C29       1.0  0.6647591915087928  0.22098362557346712  0.8467690653248638  1.0000
  C   C30       1.0  0.6586192869308434  0.14417946415651542  0.6553180337409328  1.0000
  C   C31       1.0  0.6455663475483817  0.126866418261109  0.6139953377784265  1.0000
  C   C32       1.0  0.5458138490699795  0.7901531798168334  0.27017050137433773  1.0000
  C   C33       1.0  0.6746706219244416  0.5702634140389193  0.2835517797698087  1.0000
  C   C34       1.0  0.711997707695062  0.5880208543552002  0.7917982694452945  1.0000
  C   C35       1.0  0.6889434219460854  0.5464676081965508  0.22971040673292006  1.0000
  C   C36       1.0  0.703064133477845  0.6064545893079512  0.1114978812223484  1.0000
  C   C37       1.0  0.6594936471109563  0.693939404188484  0.2950771032634735  1.0000
  C   C38       1.0  0.5525471584743045  0.7658750318756801  0.21629737004036534  1.0000
  C   C39       1.0  0.6738930995103659  0.6573437649148915  0.20369926760877627  1.0000
  C   C40       1.0  0.6105100213110292  0.7869661000532275  0.43474117005013807  1.0000
  C   C41       1.0  0.7690302963331845  0.6873553025081663  0.22117681162384167  1.0000
  C   C42       1.0  0.766665484762271  0.6975563682217681  0.27528851913949387  1.0000
  C   C43       1.0  0.6862422151435582  0.6328095744279454  0.15328193984144178  1.0000
  C   C44       1.0  0.6492687102649698  0.7162395686066815  0.3456320517860902  1.0000
  C   C45       1.0  0.6371806420220381  0.5746530298123813  0.7220358072743237  1.0000
  C   C46       1.0  0.6370075851119381  0.7380860447021362  0.38776350468664583  1.0000
  C   C47       1.0  0.2780546983201901  0.1774897572104094  0.27362997164111386  1.0000
  C   C48       1.0  0.05936958452755191  0.24366481980300847  0.2813914769004526  1.0000
  C   C49       1.0  0.05713736498426411  0.2745891859231975  0.2281433519399272  1.0000
  C   C50       1.0  0.1127401373726045  0.2016939694333502  0.11159766120969292  1.0000
  C   C51       1.0  0.18816079101898003  0.14681821324324318  0.2951835571449024  1.0000
  C   C52       1.0  0.2871281261196259  0.09148460709616298  0.4333645909048798  1.0000
  C   C53       1.0  0.2777994965963444  0.16660265470858346  0.2193505544553815  1.0000
  C   C54       1.0  0.16484950985316263  0.1668229292983199  0.20302665317150573  1.0000
  C   C55       1.0  0.1712641856899069  0.0509872632690289  0.21953965900993916  1.0000
  C   C56       1.0  0.6817486625975208  0.653243754719938  0.6974723104880666  1.0000
  C   C57       1.0  0.2190402032204375  0.025314060903866727  0.2703926611220168  1.0000
  C   C58       1.0  0.144047126422862  0.18239204355974437  0.15267312343749498  1.0000
  C   C59       1.0  0.20790912443062837  0.13089309174167602  0.34550868994879386  1.0000
  C   C60       1.0  0.23520590367580502  0.11237970539129088  0.3869360999734184  1.0000
  C   C61       1.0  0.7013656126889601  0.031400376902439533  0.2700149575266195  1.0000
  C   C62       1.0  0.7367795726260341  0.2003581647770716  0.28709216086473077  1.0000
  C   C63       1.0  0.7577948557546321  0.19792448514102304  0.23362639812183517  1.0000
  C   C64       1.0  0.8047013901943529  0.5777690376921992  0.7238023431141015  1.0000
  C   C65       1.0  0.6994914067421547  0.20939378048580443  0.1154032104910385  1.0000
  C   C66       1.0  0.6523511711059697  0.15262260528479046  0.29602154083338666  1.0000
  C   C67       1.0  0.5903452118062233  0.66208157370675  0.7649414384724691  1.0000
  C   C68       1.0  0.6881162197813354  0.04659326000544438  0.21613075137373272  1.0000
  C   C69       1.0  0.6693861310814597  0.1738097859851635  0.20491072719659797  1.0000
  C   C70       1.0  0.5448794251691638  0.2669640852901053  0.22300281835455849  1.0000
  C   C71       1.0  0.5304699387116257  0.24130770791994396  0.2746486636350411  1.0000
  C   C72       1.0  0.6834947494206887  0.19010911266795452  0.15561112874087263  1.0000
  C   C73       1.0  0.6433104577290721  0.13763398856603704  0.34604990096445926  1.0000
  C   C74       1.0  0.6337120137592578  0.12427741491002563  0.3877479765855155  1.0000
  C   C75       1.0  0.0385274922180301  0.23658154281565658  0.9314158613090412  1.0000
  C   C76       1.0  0.7586995733904374  0.6668683839324315  0.7667447283240065  1.0000
  C   C77       1.0  0.7406241001188008  0.5275074500684767  0.9328080834362351  1.0000
  C   C78       1.0  0.6350635091000144  0.740787256351332  0.7419547367168134  1.0000
  C   C79       1.0  0.7063464467092829  0.24288921591409013  0.9364301005100585  1.0000
  C   C80       1.0  0.0564510684211257  0.22941454003177603  0.0658516813292565  1.0000
  C   C81       1.0  0.730016783086704  0.5516351122360207  0.06541008772534698  1.0000
  C   C82       1.0  0.7281597147254147  0.2347941246192845  0.0700331220122905  1.0000
  C   C83       1.0  0.726722122013527  0.5558359017021033  0.8835906703711132  1.0000
  C   C84       1.0  0.9314915476993663  0.6388141670815485  0.8046689919685548  1.0000
  C   C85       1.0  0.8444681980920805  0.8962202560785357  0.7091130444506035  1.0000
  C   C86       1.0  0.5381778375326506  0.9167498516366516  0.7843344253522843  1.0000
  C   C87       1.0  0.0604999129402444  0.4049654669323743  0.32864760029083573  1.0000
  C   C88       1.0  0.07466612663476012  0.9910308001730215  0.30925792919092737  1.0000
  C   C89       1.0  0.7222986733735725  0.5645562183529123  0.8406521366973934  1.0000
  C   C90       1.0  0.8965399068365871  0.9336320463536154  0.19060764513282183  1.0000
  C   C91       1.0  0.5584303316635015  0.04619861525644355  0.15433465874886557  1.0000
  O   O1        1.0  0.3052730872978984  0.1698194337662855  0.5504381341819239  1.0000
  O   O2        1.0  0.6618824472197389  0.5125590741063634  0.9521617986511258  1.0000
  O   O3        1.0  0.6317738440455898  0.3372301996762202  0.9594459033738758  1.0000
  O   O4        1.0  0.5102098195158646  0.1730133318203783  0.5539444737354984  1.0000
  O   O5        1.0  0.8252663627891792  0.1583384141010599  0.052154894064642604  1.0000
  O   O6        1.0  0.0341438410706019  0.15448742652601058  0.046919424141208296  1.0000
  O   O7        1.0  0.0281649121400562  0.3325190951398581  0.0494759691732369  1.0000
  O   O8        1.0  0.830345577215077  0.5226733774878412  0.048063726095683997  1.0000
  O   O9        1.0  0.65376437371836  0.5300233479499424  0.0462525216980652  1.0000
  O   O10       1.0  0.6530293124089681  0.3361295162434672  0.05232272538626151  1.0000
  O   O11       1.0  0.8411709674342094  0.32204929235887647  0.0016945945589056993  1.0000
  O   O12       1.0  0.6841683624026516  0.8108122745777139  0.45485487213706227  1.0000
  O   O13       1.0  0.6911330831846527  0.007062656125086246  0.5467962854203563  1.0000
  O   O14       1.0  0.6840008295103746  0.8159495713724992  0.5481356188133334  1.0000
  O   O15       1.0  0.5156775992809912  0.8068024121835581  0.5457664047045937  1.0000
  O   O16       1.0  0.312636223860153  0.9911454762811187  0.546592748696355  1.0000
  O   O17       1.0  0.3102265184810733  0.16835805321522906  0.4496942228593142  1.0000
  O   O18       1.0  0.5112678015484136  0.1776076827856984  0.4523768283775595  1.0000
  O   O19       1.0  0.686358645344619  0.0034748231078367752  0.45328939213460023  1.0000
  O   O20       1.0  0.8135566076796295  0.7208173242191764  0.7885741365449163  1.0000
  O   O21       1.0  0.08857176787221732  0.3722715895535344  0.68839777981848  1.0000
  O   O22       1.0  0.8734765509878244  0.9880461485441999  0.7066434102726477  1.0000
  O   O23       1.0  0.5122082267900652  0.8088356505977075  0.4521491595471899  1.0000
  O   O24       1.0  0.5720446213809042  0.8623717934781681  0.7382011555993984  1.0000
  O   O25       1.0  0.8858960751136493  0.5978753741949916  0.20761624495821704  1.0000
  O   O26       1.0  0.999845438870999  0.3462740759484079  0.3106546900906011  1.0000
  O   O27       1.0  0.06857607939998192  0.37445895323666883  0.22084050459754684  1.0000
  O   O28       1.0  0.9484129918069044  0.29158274090000436  0.2098658032754983  1.0000
  O   O29       1.0  0.19276955198527193  0.9469090907347492  0.2945783908026911  1.0000
  O   O30       1.0  0.7814709041761321  0.9484791146562653  0.19166678182642732  1.0000
  O   O31       1.0  0.5869284769927106  0.03899180371318784  0.20383235330837832  1.0000
  O   O32       1.0  0.3101751870093494  0.9937537826271805  0.4533930296178994  1.0000
  O   O33       1.0  0.4945206341904935  0.009822076209623358  0.5007722929636741  1.0000
  O   O34       1.0  0.8066987034556092  0.16521345954961217  0.9510884634493663  1.0000
  O   O35       1.0  0.010729015253040998  0.16252632672279083  0.9453231204303663  1.0000
  O   O36       1.0  0.031152475191959208  0.3248543615350813  0.9558241189919415  1.0000
  O   O37       1.0  0.8340297335479576  0.5138857771738329  0.9535896028238608  1.0000
  O   O38       1.0  0.3227324955377285  0.33543549445307946  0.5047696150703231  1.0000
  O   O39       1.0  0.9990023015898759  0.9963003843228223  0.9950624008298732  1.0000
