data_image0
_chemical_formula_structural       Cu2H12C16N2O4
_chemical_formula_sum              "Cu2 H12 C16 N2 O4"
_cell_length_a       5.48966635397279
_cell_length_b       6.927750027376733
_cell_length_c       10.081514386451959
_cell_angle_alpha    94.66437319073226
_cell_angle_beta     103.35675219804945
_cell_angle_gamma    110.0620392219316

_space_group_name_H-M_alt    "P 1"
_space_group_IT_number       1

loop_
  _space_group_symop_operation_xyz
  'x, y, z'

loop_
  _atom_site_type_symbol
  _atom_site_label
  _atom_site_symmetry_multiplicity
  _atom_site_fract_x
  _atom_site_fract_y
  _atom_site_fract_z
  _atom_site_occupancy
  Cu  Cu1       1.0  0.4509702057348761  0.60888471170081  0.6702046540385282  1.0000
  Cu  Cu2       1.0  0.5490243817200877  0.3911184016330366  0.3297949220778449  1.0000
  H   H1        1.0  0.817835893693264  0.5125194102998522  0.15883025309326373  1.0000
  H   H2        1.0  0.18216957514511023  0.48749790015221345  0.8411596800714065  1.0000
  H   H3        1.0  0.8723260686316934  0.7708441690034179  0.43646176027657196  1.0000
  H   H4        1.0  0.12768353459605214  0.22915893890728262  0.5635378082799676  1.0000
  H   H5        1.0  0.7582988803543032  0.0695139820449384  0.41291380204781103  1.0000
  H   H6        1.0  0.24167760750335526  0.9304828668720759  0.5870869937104786  1.0000
  H   H7        1.0  0.3930146927041137  0.5545269411785088  0.06874379200527163  1.0000
  H   H8        1.0  0.607003288381705  0.44547448171516624  0.9312647171932441  1.0000
  H   H9        1.0  0.18266078097649796  0.10054604186171191  0.08001785479901712  1.0000
  H   H10       1.0  0.8173382728268878  0.8994619069133662  0.9199706874193866  1.0000
  H   H11       1.0  0.12161534844409523  0.7523123818023193  0.953067688771256  1.0000
  H   H12       1.0  0.8783952667057449  0.2476813225766605  0.04693344814928224  1.0000
  C   C1        1.0  0.11838247629584234  0.5275637597651297  0.34959253729334705  1.0000
  C   C2        1.0  0.881580338496569  0.47241606115108686  0.6503955444538009  1.0000
  C   C3        1.0  0.8738569440827106  0.5608864446775996  0.2708938586607346  1.0000
  C   C4        1.0  0.12613913839990692  0.43911199101591347  0.7291046492337828  1.0000
  C   C5        1.0  0.7732387536613107  0.6978282454267489  0.3280571761149247  1.0000
  C   C6        1.0  0.22678430351876952  0.3021639226282105  0.6719415410452783  1.0000
  C   C7        1.0  0.6039175479096598  0.7969992681516017  0.24994335131945886  1.0000
  C   C8        1.0  0.3960907607917505  0.20299752683612837  0.75006063838854  1.0000
  C   C9        1.0  0.6223889523853714  0.9928190108582058  0.3106464881845739  1.0000
  C   C10       1.0  0.37761872666202123  0.007184074896869702  0.6893548097862167  1.0000
  C   C11       1.0  0.41968939934741223  0.7089944630471552  0.11862958029970372  1.0000
  C   C12       1.0  0.5803106439996882  0.2910007737160143  0.8813742223603713  1.0000
  C   C13       1.0  0.29761754884083297  0.009689736469134402  0.12437129509272182  1.0000
  C   C14       1.0  0.7023730624395271  0.9903054808499975  0.8756342407615139  1.0000
  C   C15       1.0  0.26458478400807917  0.8160477850105536  0.055653253739194476  1.0000
  C   C16       1.0  0.7354239737541945  0.1839615092857301  0.9443515246539393  1.0000
  N   N1        1.0  0.4758580212644504  0.09774605014835909  0.24947153829678834  1.0000
  N   N2        1.0  0.5241324775121399  0.9022524104123519  0.7505252439634021  1.0000
  O   O1        1.0  0.25885178393865266  0.6454448878029595  0.4638236854184896  1.0000
  O   O2        1.0  0.7411330079160408  0.35454245048899224  0.536186576497677  1.0000
  O   O3        1.0  0.172198658717079  0.38124411146605297  0.2897183193725255  1.0000
  O   O4        1.0  0.8277917204874825  0.6187653788011219  0.7102721468678937  1.0000
