data_image0
_chemical_formula_structural       Cu4H28C16S4N8Cl4
_chemical_formula_sum              "Cu4 H28 C16 S4 N8 Cl4"
_cell_length_a       7.847366282450505
_cell_length_b       8.78503239268215
_cell_length_c       10.472291196006351
_cell_angle_alpha    89.99988216348036
_cell_angle_beta     90.00000524187209
_cell_angle_gamma    95.68765426481586

_space_group_name_H-M_alt    "P 1"
_space_group_IT_number       1

loop_
  _space_group_symop_operation_xyz
  'x, y, z'

loop_
  _atom_site_type_symbol
  _atom_site_label
  _atom_site_symmetry_multiplicity
  _atom_site_fract_x
  _atom_site_fract_y
  _atom_site_fract_z
  _atom_site_occupancy
  Cu  Cu1       1.0  0.9351610876882573  0.6164395374759266  0.9489198557464675  1.0000
  Cu  Cu2       1.0  0.5648425288725463  0.8835600225057546  0.4489220770290387  1.0000
  Cu  Cu3       1.0  0.06484174303470516  0.3835600744807266  0.0510792512306111  1.0000
  Cu  Cu4       1.0  0.43515917287572836  0.11644074824259584  0.5510779848479572  1.0000
  H   H1        1.0  0.424785346600025  0.1708633893808269  0.0261469686081242  1.0000
  H   H2        1.0  0.07521189854123375  0.32913868773555066  0.5261482086106923  1.0000
  H   H3        1.0  0.5752112649715001  0.8291374412076422  0.9738511834669622  1.0000
  H   H4        1.0  0.9247882435237569  0.6708598103076185  0.4738499434663481  1.0000
  H   H5        1.0  0.44798615883227194  0.29740540949273253  0.1595723018276303  1.0000
  H   H6        1.0  0.0520099397062026  0.2025974749045645  0.6595737438105401  1.0000
  H   H7        1.0  0.5520129978276317  0.702595391175677  0.8404268051484108  1.0000
  H   H8        1.0  0.947992891016632  0.7974021370495805  0.3404272729682845  1.0000
  H   H9        1.0  0.5903176688016527  0.15339092726275547  0.1404046955289147  1.0000
  H   H10       1.0  0.9096763267575408  0.3466107208775639  0.6404049683685074  1.0000
  H   H11       1.0  0.4096772395167462  0.8466064867819512  0.8595953663506178  1.0000
  H   H12       1.0  0.09032566212973588  0.6533923375341003  0.359597958209278  1.0000
  H   H13       1.0  0.11261737136740627  0.8229918977459647  0.1481961380913788  1.0000
  H   H14       1.0  0.3873814534372356  0.677005240715701  0.6481995467621218  1.0000
  H   H15       1.0  0.8873752790015602  0.17700783388086452  0.851806788488858  1.0000
  H   H16       1.0  0.6126216644246013  0.3229966589017579  0.35180433471749234  1.0000
  H   H17       1.0  0.842033202917193  0.8957243219914234  0.8150482565334798  1.0000
  H   H18       1.0  0.6579646428881175  0.604280240810823  0.3150490206012009  1.0000
  H   H19       1.0  0.1579643940593627  0.10427420597054748  0.1849498955434754  1.0000
  H   H20       1.0  0.3420360734552617  0.395722832566527  0.6849491314721801  1.0000
  H   H21       1.0  0.5309864450692884  0.2639979430274694  0.844843573119732  1.0000
  H   H22       1.0  0.969016287719235  0.23600191796219863  0.3448460502704762  1.0000
  H   H23       1.0  0.4690127115906789  0.7360028576421911  0.1551545789554396  1.0000
  H   H24       1.0  0.030987384838837787  0.7639942475281316  0.6551578312137493  1.0000
  H   H25       1.0  0.696564538757279  0.4178641642717623  0.8323256580248781  1.0000
  H   H26       1.0  0.803437908546094  0.0821334420329833  0.3323255095896442  1.0000
  H   H27       1.0  0.30343673228227164  0.5821331749772016  0.1676734489539911  1.0000
  H   H28       1.0  0.19656477860701926  0.9178650260851028  0.6676774169918431  1.0000
  C   C1        1.0  0.6362180920531131  0.3439576819530287  0.0130723319574741  1.0000
  C   C2        1.0  0.8637822830502982  0.1560442268496089  0.5130729084545393  1.0000
  C   C3        1.0  0.36378332255603135  0.6560408011294854  0.9869267750204784  1.0000
  C   C4        1.0  0.1362164429006896  0.843953142315641  0.4869281083259906  1.0000
  C   C5        1.0  0.5179681526453661  0.23530431380164885  0.08875785950556998  1.0000
  C   C6        1.0  0.9820299545091797  0.2646997131907796  0.5887592221122304  1.0000
  C   C7        1.0  0.4820308604449436  0.7646953430332103  0.9112412474713878  1.0000
  C   C8        1.0  0.017968915011401475  0.7352987998080138  0.411241794667383  1.0000
  C   C9        1.0  0.0617508810981917  0.9015655807457963  0.0812728010964747  1.0000
  C   C10       1.0  0.43825390414304616  0.5984385371953139  0.5812725186533001  1.0000
  C   C11       1.0  0.9382522367638371  0.0984363188754429  0.9187282156805239  1.0000
  C   C12       1.0  0.5617483718838017  0.4015668088909906  0.41872467851742096  1.0000
  C   C13       1.0  0.9124865716003894  0.9419185001378525  0.8984311202152924  1.0000
  C   C14       1.0  0.5875135211377439  0.5580835254070635  0.3984300452926348  1.0000
  C   C15       1.0  0.08751073823697199  0.05807774015702452  0.1015670318634889  1.0000
  C   C16       1.0  0.4124886113195742  0.44192067684694797  0.6015661969781263  1.0000
  S   S1        1.0  0.7835826584106869  0.4671340202936348  0.0908737400828983  1.0000
  S   S2        1.0  0.7164188353882178  0.0328665247464031  0.5908745073037664  1.0000
  S   S3        1.0  0.21641988517302474  0.5328633039946737  0.9091263217968829  1.0000
  S   S4        1.0  0.2835817373854966  0.9671354047961459  0.4091245996714079  1.0000
  N   N1        1.0  0.6227728912797514  0.3395703012869761  0.8877672637642817  1.0000
  N   N2        1.0  0.8772271471797168  0.1604283327057132  0.3877689029643179  1.0000
  N   N3        1.0  0.3772272507851824  0.6604281967549355  0.11223184321363529  1.0000
  N   N4        1.0  0.12277299488508216  0.8395701653336829  0.6122321138153382  1.0000
  N   N5        1.0  0.9742690659943917  0.8410220008932614  0.9792463732725024  1.0000
  N   N6        1.0  0.5257348336989693  0.6589797668617194  0.4792470433181321  1.0000
  N   N7        1.0  0.0257363098171339  0.15897758114710572  0.0207508239029153  1.0000
  N   N8        1.0  0.4742644665307835  0.3410221776452644  0.5207482440535003  1.0000
  Cl  Cl1       1.0  0.8335672534821725  0.6027469116598354  0.7350640845385428  1.0000
  Cl  Cl2       1.0  0.666432430131003  0.8972521127739199  0.23506628863983536  1.0000
  Cl  Cl3       1.0  0.16643430469644468  0.397252715253707  0.2649369322402393  1.0000
  Cl  Cl4       1.0  0.3335678555033397  0.10274752909776201  0.7649356830397807  1.0000
