data_image0
_chemical_formula_structural       Cd4H20C20N24Cl4O4
_chemical_formula_sum              "Cd4 H20 C20 N24 Cl4 O4"
_cell_length_a       7.5637256786747
_cell_length_b       9.081732722461542
_cell_length_c       13.926425381313113
_cell_angle_alpha    89.9992484999455
_cell_angle_beta     90.00021124952612
_cell_angle_gamma    95.12370215017025

_space_group_name_H-M_alt    "P 1"
_space_group_IT_number       1

loop_
  _space_group_symop_operation_xyz
  'x, y, z'

loop_
  _atom_site_type_symbol
  _atom_site_label
  _atom_site_symmetry_multiplicity
  _atom_site_fract_x
  _atom_site_fract_y
  _atom_site_fract_z
  _atom_site_occupancy
  Cd  Cd1       1.0  0.2890086144085232  0.5691591218276884  0.0441003723549329  1.0000
  Cd  Cd2       1.0  0.21099800334015126  0.9308360773897559  0.5441028694515636  1.0000
  Cd  Cd3       1.0  0.7109961188887014  0.43084093175919946  0.9559025031902805  1.0000
  Cd  Cd4       1.0  0.7890015661512494  0.0691650966133892  0.4558949796680096  1.0000
  H   H1        1.0  0.167189627186616  0.8594919306538457  0.0316205760336672  1.0000
  H   H2        1.0  0.332810911735038  0.6404968989105626  0.5316257949173746  1.0000
  H   H3        1.0  0.8328106490871575  0.14050371201777515  0.9683779911694969  1.0000
  H   H4        1.0  0.6671885347876696  0.35950316950550126  0.4683785167409482  1.0000
  H   H5        1.0  0.2638670340358829  0.8512970195636669  0.1356093495498243  1.0000
  H   H6        1.0  0.23612375155219922  0.6486930842679827  0.6356099879410593  1.0000
  H   H7        1.0  0.7361322894931989  0.14870194337976983  0.8643899356975879  1.0000
  H   H8        1.0  0.7638758179516641  0.35130808967792865  0.36439360565334056  1.0000
  H   H9        1.0  0.6090208572659818  0.6291258785381332  0.2180259170370462  1.0000
  H   H10       1.0  0.8910008489193474  0.8708913876160908  0.7180185296290773  1.0000
  H   H11       1.0  0.390980279894613  0.37087750275662046  0.7819762404309145  1.0000
  H   H12       1.0  0.1089962001706297  0.12911089931003522  0.2819814736611903  1.0000
  H   H13       1.0  0.6250419121797036  0.6399928909967159  0.40052426253953394  1.0000
  H   H14       1.0  0.8749683218004024  0.8600174556139918  0.9005162158560934  1.0000
  H   H15       1.0  0.37495332328654035  0.36000497754232436  0.5994764588269561  1.0000
  H   H16       1.0  0.12503207745764658  0.1399792925731731  0.0994830694018631  1.0000
  H   H17       1.0  0.0904007913387659  0.48942924194167137  0.41558420100656684  1.0000
  H   H18       1.0  0.40962686187682346  0.0105596735056182  0.9155856582633746  1.0000
  H   H19       1.0  0.9095985321981032  0.5105697209660036  0.5844186745376163  1.0000
  H   H20       1.0  0.5903797768988852  0.9894337395877172  0.0844107547778705  1.0000
  C   C1        1.0  0.034799656807606986  0.46857801723301407  0.22010836977568718  1.0000
  C   C2        1.0  0.4652285008830788  0.0314269540280776  0.7200997134472048  1.0000
  C   C3        1.0  0.965203877776368  0.5314231455946014  0.7798937877042108  1.0000
  C   C4        1.0  0.5347685481913163  0.9685753329695856  0.2798931092495351  1.0000
  C   C5        1.0  0.1985512026749703  0.5130193062194335  0.2713612749348471  1.0000
  C   C6        1.0  0.30147481316981845  0.9869823717311376  0.7713591761862162  1.0000
  C   C7        1.0  0.8014482438461742  0.4869807622037855  0.7286423186641215  1.0000
  C   C8        1.0  0.698525832045874  0.013016587537201498  0.22863651876583188  1.0000
  C   C9        1.0  0.4943986179276508  0.5962557299395357  0.26292475185361747  1.0000
  C   C10       1.0  0.005624749019290197  0.9037582880520606  0.762916996058415  1.0000
  C   C11       1.0  0.5056009515746568  0.4037454440135306  0.7370781236814281  1.0000
  C   C12       1.0  0.994369533692918  0.09624290080171959  0.2370801349962122  1.0000
  C   C13       1.0  0.5026575595798163  0.6014678292409525  0.3630925820006468  1.0000
  C   C14       1.0  0.9973562310884533  0.8985410409748696  0.8630909269042204  1.0000
  C   C15       1.0  0.49734333160910194  0.398533341037016  0.6369067032390349  1.0000
  C   C16       1.0  0.0026513915536767983  0.1014612162786008  0.1369076402785439  1.0000
  C   C17       1.0  0.20754872153550252  0.5190708951517848  0.37175385486683865  1.0000
  C   C18       1.0  0.2924666645032943  0.980924390002997  0.8717532248199547  1.0000
  C   C19       1.0  0.7924465139307485  0.48092697338725543  0.6282468664996514  1.0000
  C   C20       1.0  0.7075295236967419  0.019070158314306692  0.128241752086808  1.0000
  N   N1        1.0  0.023690767978777706  0.46984763145955105  0.1238970161458468  1.0000
  N   N2        1.0  0.47633094751736843  0.030152638522487493  0.623893420300881  1.0000
  N   N3        1.0  0.9763113219265094  0.5301524295633797  0.8761044232778658  1.0000
  N   N4        1.0  0.5236701896292004  0.9698507428366481  0.37610227463289897  1.0000
  N   N5        1.0  0.8550625674270407  0.42283544156308744  0.10449037834028727  1.0000
  N   N6        1.0  0.6449572289854899  0.0771642520820066  0.6044856890055639  1.0000
  N   N7        1.0  0.14494096715537805  0.5771657212716831  0.895511061080249  1.0000
  N   N8        1.0  0.3550436622003161  0.9228369182102654  0.3955121601154091  1.0000
  N   N9        1.0  0.7661006237294359  0.39327574230505746  0.18508754670727967  1.0000
  N   N10       1.0  0.7339203833321547  0.10673008405671419  0.6850827925525707  1.0000
  N   N11       1.0  0.23390039044532066  0.6067265334813  0.8149131746465416  1.0000
  N   N12       1.0  0.2660777414836701  0.8932699881274428  0.3149157746295259  1.0000
  N   N13       1.0  0.8765866284358238  0.42157249645148914  0.25918049656552  1.0000
  N   N14       1.0  0.6234325487098928  0.0784362830871501  0.7591750333186268  1.0000
  N   N15       1.0  0.1234116193705148  0.5784286812195987  0.7408216609087788  1.0000
  N   N16       1.0  0.3765604123079028  0.9215649094774958  0.24082209773459337  1.0000
  N   N17       1.0  0.34312320289445347  0.5527359292437521  0.2175750217879866  1.0000
  N   N18       1.0  0.15689225194572734  0.9472690611451708  0.717574393739568  1.0000
  N   N19       1.0  0.6568721555545167  0.44726304481799417  0.7824256995739418  1.0000
  N   N20       1.0  0.8431046741537358  0.0527321202940172  0.28242201925850446  1.0000
  N   N21       1.0  0.35851111958713494  0.5639009249716481  0.41684507767182305  1.0000
  N   N22       1.0  0.14151853994631838  0.9361011633225258  0.9168387678000443  1.0000
  N   N23       1.0  0.6414882039512904  0.43609803792886476  0.5831585159317142  1.0000
  N   N24       1.0  0.8584885907587037  0.06389667186876119  0.08315692716357857  1.0000
  Cl  Cl1       1.0  0.602706363919296  0.6914968258991365  0.9997754270739706  1.0000
  Cl  Cl2       1.0  0.8972988910445778  0.8085104523038422  0.499776867848567  1.0000
  Cl  Cl3       1.0  0.39730113574634623  0.308504325803021  0.00022601235076539998  1.0000
  Cl  Cl4       1.0  0.10270092441538027  0.19149293273039797  0.500222417380577  1.0000
  O   O1        1.0  0.1866917255777096  0.7944303766423458  0.0879095455217751  1.0000
  O   O2        1.0  0.31330401680330766  0.7055595572568264  0.5879112985603001  1.0000
  O   O3        1.0  0.8133099953794272  0.2055663678124873  0.9120918939156366  1.0000
  O   O4        1.0  0.6866956756785996  0.29444272223324935  0.41209014085147533  1.0000
