data_image0
_chemical_formula_structural       Zn4H60C60N8O12
_chemical_formula_sum              "Zn4 H60 C60 N8 O12"
_cell_length_a       9.395286906
_cell_length_b       10.056411096880984
_cell_length_c       15.626
_cell_angle_alpha    90.0
_cell_angle_beta     90.0
_cell_angle_gamma    102.84084357225733

_space_group_name_H-M_alt    "P 1"
_space_group_IT_number       1

loop_
  _space_group_symop_operation_xyz
  'x, y, z'

loop_
  _atom_site_type_symbol
  _atom_site_label
  _atom_site_symmetry_multiplicity
  _atom_site_fract_x
  _atom_site_fract_y
  _atom_site_fract_z
  _atom_site_occupancy
  Zn  Zn1       1.0  0.6311389740578264  0.9869971227568612  0.936386151286321  1.0000
  Zn  Zn2       1.0  0.6311411462673107  0.4869956983687658  0.563613848713679  1.0000
  Zn  Zn3       1.0  0.3688599613121326  0.0130047061223664  0.063613848713679  1.0000
  Zn  Zn4       1.0  0.3688591899831337  0.5130030708195861  0.436386151286321  1.0000
  H   H1        1.0  0.679230771414339  0.0482278674934093  0.760702675028796  1.0000
  H   H2        1.0  0.679232371427716  0.5482272520875782  0.7392973249712043  1.0000
  H   H3        1.0  0.3207692283190795  0.9517739613858183  0.2392973249712043  1.0000
  H   H4        1.0  0.32077115791308586  0.4517715171007666  0.2607020350697554  1.0000
  H   H5        1.0  0.24899958969958644  0.1914978927886466  0.9311301676692665  1.0000
  H   H6        1.0  0.2489939269719201  0.6914891182071514  0.5688698323307335  1.0000
  H   H7        1.0  0.751004330970602  0.8085069957814568  0.068869192371686  1.0000
  H   H8        1.0  0.7510014239783018  0.3085065912903175  0.4311301676692666  1.0000
  H   H9        1.0  0.6064308078767837  0.2691314293997777  0.9361141686932015  1.0000
  H   H10       1.0  0.6064308582957595  0.7691287742000412  0.5638839114296701  1.0000
  H   H11       1.0  0.39357074145102894  0.7308724392733623  0.0638832714706226  1.0000
  H   H12       1.0  0.3935697205701629  0.230871014885274  0.4361148086522491  1.0000
  H   H13       1.0  0.6919820032249575  0.8056247669757255  0.7247472161781658  1.0000
  H   H14       1.0  0.691981804092066  0.3056223226906738  0.7752527838218343  1.0000
  H   H15       1.0  0.3080179965084611  0.1943770619035021  0.2752534237808746  1.0000
  H   H16       1.0  0.3080119972637547  0.6943713470128827  0.2247472161781658  1.0000
  H   H17       1.0  0.9037549836244096  0.0078154703957125  0.7228279790093453  1.0000
  H   H18       1.0  0.9037533905474292  0.5078148549898884  0.7771739408677834  1.0000
  H   H19       1.0  0.09624583785698348  0.9921853385865589  0.2771726609497023  1.0000
  H   H20       1.0  0.0962457326256541  0.49217881471366803  0.22282477921412897  1.0000
  H   H21       1.0  0.9556696280250279  0.8604401489263793  0.7646729809292196  1.0000
  H   H22       1.0  0.95567204284999  0.3604397444352472  0.7353295789069492  1.0000
  H   H23       1.0  0.0443301290929128  0.139560660055885  0.2353276590298208  1.0000
  H   H24       1.0  0.0443255307286918  0.6395518854743898  0.2646697811340105  1.0000
  H   H25       1.0  0.927704556146722  0.9912919088505987  0.8346224241648557  1.0000
  H   H26       1.0  0.9277059066082316  0.4912915043594666  0.6653794957122728  1.0000
  H   H27       1.0  0.07229626533467129  0.0087089001316656  0.1653775758351443  1.0000
  H   H28       1.0  0.0722895382435524  0.5087001255501704  0.3346185844105989  1.0000
  H   H29       1.0  0.442019347390918  0.8185417619596363  0.8124408037885547  1.0000
  H   H30       1.0  0.44202045523694977  0.318540337571541  0.687559836170486  1.0000
  H   H31       1.0  0.5579806523425006  0.1814600669195912  0.1875604761295264  1.0000
  H   H32       1.0  0.5579782375175384  0.6814604714107233  0.312441443747602  1.0000
  H   H33       1.0  0.48150138379429547  0.8726789124326473  0.705905542045308  1.0000
  H   H34       1.0  0.48150379861925074  0.3726785079415151  0.7940957378727733  1.0000
  H   H35       1.0  0.5184991950716267  0.1273208766526608  0.2940957378727732  1.0000
  H   H36       1.0  0.5184972654776132  0.6273233209377125  0.20590490208626733  1.0000
  H   H37       1.0  0.1600120043278253  0.154314489462692  0.6597030590042225  1.0000
  H   H38       1.0  0.1600151539355963  0.6543159138507875  0.8402982209138588  1.0000
  H   H39       1.0  0.8399896389015494  0.845685299622616  0.3402969409957778  1.0000
  H   H40       1.0  0.8399882815036435  0.3456869349254035  0.1597024190451819  1.0000
  H   H41       1.0  0.1175540359385181  0.3151420409046324  0.0220517086906469  1.0000
  H   H42       1.0  0.11755612118283656  0.8151434652927279  0.4779508511455291  1.0000
  H   H43       1.0  0.8824444142004991  0.6848577481806757  0.977950851145529  1.0000
  H   H44       1.0  0.8824451855294981  0.184859383483456  0.5220510687315993  1.0000
  H   H45       1.0  0.3357522519315808  0.0020173561846164  0.6474900806348387  1.0000
  H   H46       1.0  0.33576038683958137  0.5020218402635876  0.8525111992832493  1.0000
  H   H47       1.0  0.6642457129764878  0.9979803931067721  0.3525099193651613  1.0000
  H   H48       1.0  0.6642477912844171  0.4979830483065157  0.1474894406757983  1.0000
  H   H49       1.0  0.7568915798351412  0.5020524371723525  0.9557801100729579  1.0000
  H   H50       1.0  0.7568916233177205  0.002051012784257  0.5442205298860898  1.0000
  H   H51       1.0  0.2431097268772007  0.49795041160383136  0.0442205298860898  1.0000
  H   H52       1.0  0.2431081338002201  0.9979497961980073  0.4557794701139103  1.0000
  H   H53       1.0  0.9545814082947073  0.0928361206798343  0.9908569051580687  1.0000
  H   H54       1.0  0.9545845579024784  0.5928375450679226  0.5091424548828911  1.0000
  H   H55       1.0  0.0454172844597807  0.9071646883024371  0.009141814923843604  1.0000
  H   H56       1.0  0.0454188775367612  0.4071653037082612  0.49085818507615653  1.0000
  H   H57       1.0  0.1158367633981428  0.248007323587963  0.8029207730705255  1.0000
  H   H58       1.0  0.11583502160725348  0.7480016086973436  0.697079226929475  1.0000
  H   H59       1.0  0.8841640580832504  0.7519934853943084  0.1970785869704343  1.0000
  H   H60       1.0  0.8841624580698734  0.2519941008001325  0.3029207730705253  1.0000
  C   C1        1.0  0.38855396711831247  0.0089200188021508  0.7812645590682195  1.0000
  C   C2        1.0  0.38855760195703226  0.5089234829841587  0.718736080890821  1.0000
  C   C3        1.0  0.6114453047686865  0.9910787503862011  0.21873480097274015  1.0000
  C   C4        1.0  0.6114458334822146  0.49107936579202516  0.28126519902726  1.0000
  C   C5        1.0  0.3635755996410737  0.06245135048160929  0.8625687955970849  1.0000
  C   C6        1.0  0.3635754074445786  0.5624476753849024  0.6374305644438749  1.0000
  C   C7        1.0  0.6364265288192428  0.9375504783976183  0.13742992448483454  1.0000
  C   C8        1.0  0.6364249288058659  0.4375510938034424  0.3625700755151655  1.0000
  C   C9        1.0  0.2644072899457441  0.1487948071213623  0.8686132087546383  1.0000
  C   C10       1.0  0.2644047264068732  0.6487901121277062  0.6313867912453617  1.0000
  C   C11       1.0  0.7355950811300431  0.8512080416548216  0.1313861512863213  1.0000
  C   C12       1.0  0.7355943028646479  0.3512076371636894  0.368612568795598  1.0000
  C   C13       1.0  0.7214686298920228  0.2851733886656191  0.9535223345705859  1.0000
  C   C14       1.0  0.7214699872899217  0.7851717533628388  0.5464770254703666  1.0000
  C   C15       1.0  0.27853161245686653  0.7148294601105647  0.0464770254703666  1.0000
  C   C16       1.0  0.2785308341914714  0.21482905561943258  0.453522334570586  1.0000
  C   C17       1.0  0.7275244662588491  0.8633845914465965  0.7839607065147831  1.0000
  C   C18       1.0  0.7275255741048808  0.3633831670585081  0.7160399334442574  1.0000
  C   C19       1.0  0.2724765978380148  0.1366172374326311  0.2160399334442573  1.0000
  C   C20       1.0  0.2724705985933156  0.6366115225420117  0.2839607065147831  1.0000
  C   C21       1.0  0.7109558289642024  0.7601944768404607  0.8577415845385872  1.0000
  C   C22       1.0  0.7109542837631865  0.2602042713189192  0.6422564955842844  1.0000
  C   C23       1.0  0.2890432003073187  0.2398032724509278  0.1422577755023653  1.0000
  C   C24       1.0  0.2890394236910794  0.7397934779724764  0.3577428644566751  1.0000
  C   C25       1.0  0.9528782583378259  0.4315867363880557  0.9921630615640568  1.0000
  C   C26       1.0  0.952879036603221  0.9315871408791949  0.5078375783949838  1.0000
  C   C27       1.0  0.04712149878011469  0.5684140725942086  0.0078388583130646  1.0000
  C   C28       1.0  0.0471207205147195  0.0684136681030765  0.4921624216050162  1.0000
  C   C29       1.0  0.8882482996466974  0.9347977765056682  0.7759388199155239  1.0000
  C   C30       1.0  0.888248343129284  0.4347963521175728  0.7240630999616047  1.0000
  C   C31       1.0  0.11175252183469547  0.065203032476596  0.22406182004351655  1.0000
  C   C32       1.0  0.11174816608594539  0.5651952777920641  0.27593626007935523  1.0000
  C   C33       1.0  0.48466113924583004  0.9089240105564613  0.7726020734672971  1.0000
  C   C34       1.0  0.4846633114553144  0.4089225861683659  0.7273985664917433  1.0000
  C   C35       1.0  0.5153386178721107  0.0910767984258101  0.2273985664917433  1.0000
  C   C36       1.0  0.515337510026079  0.5910782228138984  0.2726020734672971  1.0000
  C   C37       1.0  0.2161331309328673  0.1284233852651795  0.7162492000511949  1.0000
  C   C38       1.0  0.21613603792516758  0.6284237897563187  0.7837527198259338  1.0000
  C   C39       1.0  0.7838674479330479  0.8715764038201286  0.28375079994880553  1.0000
  C   C40       1.0  0.783868219262054  0.3715780391229089  0.2162485600921542  1.0000
  C   C41       1.0  0.006169878683841998  0.3122802100380824  0.0015442211698442  1.0000
  C   C42       1.0  0.00617196392816059  0.8122816344261778  0.4984576987072842  1.0000
  C   C43       1.0  0.9938288140706533  0.6877205989441819  0.9984583386663246  1.0000
  C   C44       1.0  0.9938291001687034  0.1877201944530498  0.5015429412517634  1.0000
  C   C45       1.0  0.3149160914945668  0.043735221389646  0.7096723409701795  1.0000
  C   C46       1.0  0.3149226768081661  0.5437376656746977  0.790328298988868  1.0000
  C   C47       1.0  0.685083423007903  0.956264567695662  0.2903270190707801  1.0000
  C   C48       1.0  0.685082065609997  0.45626620299844933  0.2096729809292199  1.0000
  C   C49       1.0  0.8060451755661688  0.41524696721022986  0.9674926404710078  1.0000
  C   C50       1.0  0.8060444042371699  0.9152453319074496  0.5325073595289922  1.0000
  C   C51       1.0  0.1939553093981914  0.5847569014629102  0.0325073595289922  1.0000
  C   C52       1.0  0.19395535288077068  0.0847554770748218  0.4674926404710079  1.0000
  C   C53       1.0  0.9147686166721837  0.1862678611836373  0.9849046461026492  1.0000
  C   C54       1.0  0.9147712810490063  0.6862672457778132  0.5150953538973511  1.0000
  C   C55       1.0  0.08523031869778208  0.8137339676955904  0.015094713938310604  1.0000
  C   C56       1.0  0.0852306047958322  0.3137335632044582  0.4849052860616894  1.0000
  C   C57       1.0  0.1914812679660471  0.1804860653238833  0.7964405478049414  1.0000
  C   C58       1.0  0.1914794322735958  0.680484430021103  0.7035600921540992  1.0000
  C   C59       1.0  0.8085208604942693  0.8195157635553443  0.2035581722769777  1.0000
  C   C60       1.0  0.8085198396134032  0.3195143391672488  0.296441187763982  1.0000
  N   N1        1.0  0.7745787404844862  0.1716976132294263  0.9609273006527559  1.0000
  N   N2        1.0  0.774580340497856  0.6716969978236023  0.5390720593881968  1.0000
  N   N3        1.0  0.2254204375009508  0.8283052355467574  0.039071419429156214  1.0000
  N   N4        1.0  0.225420723599008  0.3283048310556254  0.4609285805708439  1.0000
  N   N5        1.0  0.638190678599905  0.9644298627482611  0.7989677460642499  1.0000
  N   N6        1.0  0.6381926081939184  0.4644274184632096  0.701032893894791  1.0000
  N   N7        1.0  0.361808256770054  0.0355719661309664  0.20103289389479076  1.0000
  N   N8        1.0  0.3618074854410551  0.5355703308281861  0.29896774606424975  1.0000
  O   O1        1.0  0.43230875921730666  0.0313179759155773  0.9328305388455149  1.0000
  O   O2        1.0  0.4323085670208116  0.5313143008188774  0.5671688211954447  1.0000
  O   O3        1.0  0.567692790110506  0.9686858927575627  0.0671688211954447  1.0000
  O   O4        1.0  0.5676920118451108  0.46868548826643064  0.4328311788045553  1.0000
  O   O5        1.0  0.6832055024024228  0.8023774150587286  0.9327319851529483  1.0000
  O   O6        1.0  0.6832205956872386  0.3023810901554356  0.5672680148470519  1.0000
  O   O7        1.0  0.31678051189221174  0.1976193143357037  0.06726737488800442  1.0000
  O   O8        1.0  0.3167763048573775  0.69761665913596  0.4327319851529481  1.0000
  O   O9        1.0  0.7334960043938068  0.6441444814801187  0.8433469857929126  1.0000
  O   O10       1.0  0.7334938643371345  0.1441338780193959  0.6566542941251754  1.0000
  O   O11       1.0  0.26651135198220993  0.355861426986948  0.156653654166135  1.0000
  O   O12       1.0  0.2665031301090437  0.8558597916841606  0.3433457058748246  1.0000
