data_image0
_chemical_formula_structural       Cd2H26C30N4O14
_chemical_formula_sum              "Cd2 H26 C30 N4 O14"
_cell_length_a       7.979850299144028
_cell_length_b       10.22535633946599
_cell_length_c       12.472705833400692
_cell_angle_alpha    71.98663904345348
_cell_angle_beta     75.35767137137591
_cell_angle_gamma    65.10401621978313

_space_group_name_H-M_alt    "P 1"
_space_group_IT_number       1

loop_
  _space_group_symop_operation_xyz
  'x, y, z'

loop_
  _atom_site_type_symbol
  _atom_site_label
  _atom_site_symmetry_multiplicity
  _atom_site_fract_x
  _atom_site_fract_y
  _atom_site_fract_z
  _atom_site_occupancy
  Cd  Cd1       1.0  0.735831595424351  0.8497090233658677  0.48297664027494885  1.0000
  Cd  Cd2       1.0  0.2641635681466568  0.15029155311155756  0.5170281686371895  1.0000
  H   H1        1.0  0.6800551774985595  0.3648176971414257  0.49238519446186063  1.0000
  H   H2        1.0  0.3199748072616373  0.6351693750836132  0.5076181467101719  1.0000
  H   H3        1.0  0.46395479540300505  0.5109359293915361  0.9121120108850818  1.0000
  H   H4        1.0  0.5360632699911677  0.48906529706304264  0.0878829496129471  1.0000
  H   H5        1.0  0.41484847796741064  0.6496885880001599  0.7833637704032554  1.0000
  H   H6        1.0  0.5851675834943464  0.3503115181678496  0.21663582004811843  1.0000
  H   H7        1.0  0.6414279313560699  0.5666481755689786  0.8166281890975143  1.0000
  H   H8        1.0  0.3585854431207595  0.4333554770452677  0.18336865017468543  1.0000
  H   H9        1.0  0.5936884878866239  0.008749810227939714  0.9147058077084722  1.0000
  H   H10       1.0  0.40629399083456247  0.9912604480098892  0.08529660925039197  1.0000
  H   H11       1.0  0.6583721746052403  0.9428655861167667  0.7886899842675917  1.0000
  H   H12       1.0  0.34159632276296753  0.05714365590213079  0.2113143555881223  1.0000
  H   H13       1.0  0.42135889492794837  0.030017639073506092  0.8377427353064989  1.0000
  H   H14       1.0  0.5786133282633019  0.9700071846678637  0.16226134443121498  1.0000
  H   H15       1.0  0.9207570557718726  0.6878996404162974  0.2776706833458462  1.0000
  H   H16       1.0  0.07918477130456839  0.312091842680978  0.7223320859961433  1.0000
  H   H17       1.0  0.02052491818017902  0.7488697360058153  0.06975158944528914  1.0000
  H   H18       1.0  0.9793882889709524  0.2511317995638078  0.9302475266878646  1.0000
  H   H19       1.0  0.9114558564681589  0.19054581744428833  0.09803336263452421  1.0000
  H   H20       1.0  0.0885851971634254  0.809430136587089  0.9019826234804142  1.0000
  H   H21       1.0  0.8180597985997977  0.10880465083409514  0.30504762086285103  1.0000
  H   H22       1.0  0.18199657144452908  0.8911581201544502  0.6949727050936333  1.0000
  H   H23       1.0  0.0681349466122327  0.6266388910338703  0.558135345271019  1.0000
  H   H24       1.0  0.9318734662254755  0.37336662736620246  0.44185391844339245  1.0000
  H   H25       1.0  0.0713214761621687  0.7851257595379406  0.5528390297167862  1.0000
  H   H26       1.0  0.9286803912793787  0.21488682019920446  0.4471473556819702  1.0000
  C   C1        1.0  0.6714868980264015  0.10009618497991107  0.570066143221851  1.0000
  C   C2        1.0  0.32851159556902587  0.8999087464221983  0.4299306420477438  1.0000
  C   C3        1.0  0.6238897644280924  0.20820142707003694  0.6411720141257933  1.0000
  C   C4        1.0  0.3761220068467426  0.7917992167251525  0.35882420238110774  1.0000
  C   C5        1.0  0.6444432312753321  0.3420267862623587  0.5843742808216136  1.0000
  C   C6        1.0  0.35558059083059845  0.6579695835343244  0.415623187674406  1.0000
  C   C7        1.0  0.6207327042864961  0.44907690081062396  0.6393166202897549  1.0000
  C   C8        1.0  0.37928720398619503  0.5509230290407101  0.36067991777889574  1.0000
  C   C9        1.0  0.5569183011736102  0.42927930501922157  0.7575874058306483  1.0000
  C   C10       1.0  0.44308627645347815  0.5707230511233659  0.24240808978567693  1.0000
  C   C11       1.0  0.5323302890177287  0.29476226057322913  0.8112617120383376  1.0000
  C   C12       1.0  0.467676890583448  0.7052440576281567  0.18873481030534128  1.0000
  C   C13       1.0  0.5688217489008451  0.179435736424125  0.7597099257281742  1.0000
  C   C14       1.0  0.4311745306744828  0.8205649167725109  0.24029145585035405  1.0000
  C   C15       1.0  0.6733913957635239  0.5773827150827767  0.5664709368481767  1.0000
  C   C16       1.0  0.3266217686256212  0.4226177796125654  0.43352586877962557  1.0000
  C   C17       1.0  0.5164659249542682  0.5437060082495078  0.8220919930439338  1.0000
  C   C18       1.0  0.48354952047728966  0.4562953809133389  0.17790419908501326  1.0000
  C   C19       1.0  0.5601148189565137  0.032995890427940794  0.8289987442701445  1.0000
  C   C20       1.0  0.43986206931892013  0.9670190889763501  0.17100357456342863  1.0000
  C   C21       1.0  0.9228154472697414  0.797654481466132  0.23363924598722013  1.0000
  C   C22       1.0  0.0771607770648401  0.20233206305955778  0.7663609492949207  1.0000
  C   C23       1.0  0.978074758838005  0.8338178476352524  0.11683545278945932  1.0000
  C   C24       1.0  0.021871422868116542  0.16618636180384525  0.8831595790020332  1.0000
  C   C25       1.0  0.9742948431357661  0.9775417330024748  0.06245477176033631  1.0000
  C   C26       1.0  0.025687639341100514  0.022453643716730188  0.9375486842294765  1.0000
  C   C27       1.0  0.9177297371333212  0.07728884837573696  0.13250147583533328  1.0000
  C   C28       1.0  0.08229236711793673  0.9226887414154417  0.8675142954961217  1.0000
  C   C29       1.0  0.8645231015598114  0.03357575415395793  0.2485793289526939  1.0000
  C   C30       1.0  0.13549578468715848  0.9663991565732599  0.7514320173289876  1.0000
  N   N1        1.0  0.4626535770767647  0.270143929772658  0.9346249423100235  1.0000
  N   N2        1.0  0.5373450970175214  0.7298716228895826  0.0653709554430506  1.0000
  N   N3        1.0  0.8653380357705206  0.8962619147128943  0.2986346769698329  1.0000
  N   N4        1.0  0.134668972299572  0.1037163483284829  0.7013723893179604  1.0000
  O   O1        1.0  0.8025556326565494  0.09461428429332128  0.48778979463643424  1.0000
  O   O2        1.0  0.197429898979074  0.9054005546882561  0.5122005822253898  1.0000
  O   O3        1.0  0.9926371243664535  0.7237298741534629  0.5788039592494771  1.0000
  O   O4        1.0  0.0073736365359807115  0.2762731549761455  0.42118867377617875  1.0000
  O   O5        1.0  0.5758306425207566  0.016812195806508584  0.5955572785265772  1.0000
  O   O6        1.0  0.42416719643487283  0.9831881727988399  0.40444710204553763  1.0000
  O   O7        1.0  0.7907156581047161  0.5589067409396263  0.47700333794391986  1.0000
  O   O8        1.0  0.20929253825708835  0.4410964057344342  0.5229913300035491  1.0000
  O   O9        1.0  0.5961661339363574  0.6993399556213757  0.599003856835104  1.0000
  O   O10       1.0  0.40383528632052196  0.30065712391218813  0.40099663441898775  1.0000
  O   O11       1.0  0.2984200958204896  0.279052193425663  0.9636356487782296  1.0000
  O   O12       1.0  0.7015876121675078  0.7209462549602035  0.036369024344459405  1.0000
  O   O13       1.0  0.5711520939477523  0.2423050520108986  0.0014691533679567206  1.0000
  O   O14       1.0  0.42884259553530774  0.7577323259625927  0.9985207921167149  1.0000
