data_image0
_chemical_formula_structural       La3H36C63N3O18
_chemical_formula_sum              "La3 H36 C63 N3 O18"
_cell_length_a       13.023714375672414
_cell_length_b       14.74747923849381
_cell_length_c       14.747442377665218
_cell_angle_alpha    111.72593552482905
_cell_angle_beta     107.1141979389888
_cell_angle_gamma    107.11429999203196

_space_group_name_H-M_alt    "P 1"
_space_group_IT_number       1

loop_
  _space_group_symop_operation_xyz
  'x, y, z'

loop_
  _atom_site_type_symbol
  _atom_site_label
  _atom_site_symmetry_multiplicity
  _atom_site_fract_x
  _atom_site_fract_y
  _atom_site_fract_z
  _atom_site_occupancy
  La  La1       1.0  0.8235502394815343  0.3235436174965898  0.6471082493002668  1.0000
  La  La2       1.0  0.17644978840057496  0.3528907121039425  0.6764561194084919  1.0000
  La  La3       1.0  0.5000015527343535  0.3235390103237563  0.6764592506170786  1.0000
  H   H1        1.0  0.6548452301337874  0.47968735244342753  0.30087067094616055  1.0000
  H   H2        1.0  0.3539177404243859  0.6991878838902681  0.17881752905591966  1.0000
  H   H3        1.0  0.17527153562691913  0.8212194002451341  0.5204288747087772  1.0000
  H   H4        1.0  0.6460798094702015  0.8211801019856896  0.3008110089865569  1.0000
  H   H5        1.0  0.8247319134085488  0.47957349102470914  0.17878236319368307  1.0000
  H   H6        1.0  0.3451538264742525  0.6991302982919055  0.520313001471969  1.0000
  H   H7        1.0  0.6416674038150633  0.37927553543203635  0.4032096207947902  1.0000
  H   H8        1.0  0.23846368867455683  0.5968076064500708  0.9760451301549153  1.0000
  H   H9        1.0  0.2625083929395302  0.0239793940884496  0.6207184894423676  1.0000
  H   H10       1.0  0.7615334431913893  0.0239526324205173  0.4031913638363135  1.0000
  H   H11       1.0  0.7374947623147959  0.37928331882248767  0.9760220895869975  1.0000
  H   H12       1.0  0.35833238232039827  0.5967915589366016  0.6207254355868058  1.0000
  H   H13       1.0  0.6685038526807148  0.6548427285620235  0.6667026473789263  1.0000
  H   H14       1.0  0.001836839454661327  0.33338303158045346  0.9881692929958491  1.0000
  H   H15       1.0  0.0136919921671463  0.011761665997760008  0.3451368022021128  1.0000
  H   H16       1.0  0.9981644290278879  0.011829821449325104  0.6666144933885575  1.0000
  H   H17       1.0  0.986309367464635  0.6548640159867816  0.9882386089949691  1.0000
  H   H18       1.0  0.3314951538220186  0.3332990053761975  0.3451580466399021  1.0000
  H   H19       1.0  0.6882491353491319  0.7587290452482239  0.5692473088011525  1.0000
  H   H20       1.0  0.11916215771390878  0.4307825108418157  0.18948797896316452  1.0000
  H   H21       1.0  0.92968680283996  0.8104371885367172  0.2413601382440829  1.0000
  H   H22       1.0  0.8808399599643266  0.8105121211071449  0.5692180763467433  1.0000
  H   H23       1.0  0.07031506163445998  0.7586414283443759  0.18956336443543614  1.0000
  H   H24       1.0  0.31175149937763535  0.4307533490421208  0.24127199856006604  1.0000
  H   H25       1.0  0.4555620146108481  0.5382529741577927  0.2423671108245742  1.0000
  H   H26       1.0  0.21325937628734684  0.7576108299382439  0.2959756543406654  1.0000
  H   H27       1.0  0.9172552802539613  0.7040354346908301  0.46167858372281484  1.0000
  H   H28       1.0  0.7867407655894281  0.7040232388264228  0.24238829879119791  1.0000
  H   H29       1.0  0.08274686963128629  0.5383225585066002  0.29596365166834454  1.0000
  H   H30       1.0  0.5444374625009798  0.7576335452554941  0.46174733555530867  1.0000
  H   H31       1.0  0.35152663646702814  0.4393938063308412  0.03783161490549962  1.0000
  H   H32       1.0  0.31372226481981613  0.9621434108178734  0.40153051594690947  1.0000
  H   H33       1.0  0.9120335633929388  0.5983619378032757  0.560563643135552  1.0000
  H   H34       1.0  0.6862763485818847  0.5984668192911755  0.03785457028828181  1.0000
  H   H35       1.0  0.08796804241340078  0.4394358184956318  0.401636136486097  1.0000
  H   H36       1.0  0.6484718997197163  0.9621677228271893  0.5606053376847412  1.0000
  C   C1        1.0  0.6734857093069947  0.6268899905572525  0.4277418765978283  1.0000
  C   C2        1.0  0.24580627423951995  0.5722975000242271  0.19914625609613512  1.0000
  C   C3        1.0  0.04675056540939685  0.8008272538840301  0.37317064923266935  1.0000
  C   C4        1.0  0.7541951792935749  0.8008531125149718  0.4277022426288113  1.0000
  C   C5        1.0  0.9532517882722188  0.6268316846812425  0.19917435189471167  1.0000
  C   C6        1.0  0.3265134300426168  0.572257686043855  0.3731101366938886  1.0000
  C   C7        1.0  0.6581605856009745  0.518490044612662  0.3811842059722323  1.0000
  C   C8        1.0  0.27693144680080906  0.6188799593967006  0.1372882164216236  1.0000
  C   C9        1.0  0.13982140647325983  0.8627027181447817  0.48157334893080156  1.0000
  C   C10       1.0  0.72306955174097  0.8627122049724606  0.38112183120010457  1.0000
  C   C11       1.0  0.8601827526862563  0.5184288389014926  0.13729960128890187  1.0000
  C   C12       1.0  0.3418394898782751  0.6188163735181932  0.4815115361641772  1.0000
  C   C13       1.0  0.6507579336840266  0.4621653638624468  0.4383784713900525  1.0000
  C   C14       1.0  0.2123576090614421  0.5616700244324946  0.02376910639983981  1.0000
  C   C15       1.0  0.18874190210973307  0.9762376382324265  0.5378246766916277  1.0000
  C   C16       1.0  0.7876430604873337  0.9762319536921782  0.4383309957348587  1.0000
  C   C17       1.0  0.8112610026106637  0.4621777979012833  0.02376542609525961  1.0000
  C   C18       1.0  0.349242852251649  0.5616219113195697  0.5378335709215065  1.0000
  C   C19       1.0  0.6561028980239315  0.5112799165578822  0.5423239847618148  1.0000
  C   C20       1.0  0.11371254561496603  0.45775138669044674  0.9689394169816834  1.0000
  C   C21       1.0  0.14495380712823192  0.031085727385843108  0.48872279010904407  1.0000
  C   C22       1.0  0.8862854501329595  0.0310594791497181  0.5422463797065618  1.0000
  C   C23       1.0  0.8550475017152407  0.5112782414170596  0.9689146590710178  1.0000
  C   C24       1.0  0.343898534111993  0.45767953348865825  0.4887223887601947  1.0000
  C   C25       1.0  0.6678372084940348  0.6180045700354172  0.5873299650717457  1.0000
  C   C26       1.0  0.0805123286736204  0.41275367339051167  0.03068495054841232  1.0000
  C   C27       1.0  0.049953431007907195  0.969296895888441  0.38200661788120277  1.0000
  C   C28       1.0  0.9194899550698851  0.9693134444898494  0.5872447284755467  1.0000
  C   C29       1.0  0.9500481887360407  0.6179940358683994  0.030703234962047077  1.0000
  C   C30       1.0  0.3321646353538696  0.41267325392178833  0.38199725225498327  1.0000
  C   C31       1.0  0.6772262768339913  0.6753811895402821  0.5316537302598404  1.0000
  C   C32       1.0  0.14569645091870598  0.4683716188352136  0.1437252990511197  1.0000
  C   C33       1.0  0.00205240716609013  0.8562460043316167  0.32466575367153183  1.0000
  C   C34       1.0  0.8543033724523923  0.8562723509861954  0.5316254500714094  1.0000
  C   C35       1.0  0.9979485872011225  0.6753356098023886  0.143754012617208  1.0000
  C   C36       1.0  0.322774623225385  0.4683479963141437  0.3246200384453956  1.0000
  C   C37       1.0  0.6439729770434752  0.4520867901726149  0.6035871632764651  1.0000
  C   C38       1.0  0.040360996858353725  0.39641890352028497  0.8485025375243607  1.0000
  C   C39       1.0  0.1919662475256914  0.1515252861772254  0.5479051861693448  1.0000
  C   C40       1.0  0.9596383911603611  0.1514961717088923  0.603582264385949  1.0000
  C   C41       1.0  0.8080349069290163  0.45209501049193784  0.848474594794922  1.0000
  C   C42       1.0  0.35603219689792814  0.3964170917404958  0.5479163741319297  1.0000
  C   C43       1.0  0.627228205023691  0.6272374710522685  0.2545503989976865  1.0000
  C   C44       1.0  0.3727702428721429  0.745449457229938  0.3727617331529344  1.0000
  C   C45       1.0  0.9999978563996024  0.6272395893452511  0.3727584550312386  1.0000
  C   C46       1.0  0.5049360267189158  0.5515225555406573  0.19681571738585282  1.0000
  C   C47       1.0  0.3082062067748409  0.8031705660454731  0.35473443625787116  1.0000
  C   C48       1.0  0.9534026404104524  0.6452367407679276  0.4484624460392936  1.0000
  C   C49       1.0  0.6917929542251001  0.6452648790959402  0.1968296563601725  1.0000
  C   C50       1.0  0.04659752126458729  0.5515368053862204  0.35476193498554665  1.0000
  C   C51       1.0  0.49506457967579814  0.8031847192644791  0.4484783188673588  1.0000
  C   C52       1.0  0.4475613281423491  0.49578098449703123  0.08293051833990008  1.0000
  C   C53       1.0  0.364666427260424  0.9170581207768722  0.41283185220884616  1.0000
  C   C54       1.0  0.9517245217560061  0.5870942496679987  0.5042049493291926  1.0000
  C   C55       1.0  0.635331754670162  0.5871661073629044  0.08294135139541238  1.0000
  C   C56       1.0  0.048275217441798184  0.49579395770219753  0.4129035710231221  1.0000
  C   C57       1.0  0.5524369837958429  0.9170695421424782  0.5042187029094264  1.0000
  C   C58       1.0  0.5124400194579265  0.5124974622368156  0.024905940640380108  1.0000
  C   C59       1.0  0.4875598264004495  0.9750939274377971  0.48750116444497144  1.0000
  C   C60       1.0  1.7606372178288365e-07  0.5124516088123984  0.48754823467999836  1.0000
  C   C61       1.0  0.45128897226268794  0.4513374252600926  0.9025772381976933  1.0000
  C   C62       1.0  0.5487087449925598  0.09742145723762971  0.5486593564696561  1.0000
  C   C63       1.0  0.9999996272905065  0.4512770534235245  0.5487204063145015  1.0000
  N   N1        1.0  0.685657640313984  0.6857099240843142  0.37140051590485973  1.0000
  N   N2        1.0  0.3143431648376804  0.6285986330383581  0.3142898244741231  1.0000
  N   N3        1.0  6.834429698033107e-07  0.6856721797673375  0.314327870055422  1.0000
  O   O1        1.0  0.6215180608508746  0.49100803976676843  0.6843604733365538  1.0000
  O   O2        1.0  0.9371712673052316  0.31559931414443554  0.8066228396278845  1.0000
  O   O3        1.0  0.1305972298504869  0.19338275080549036  0.5089760304907216  1.0000
  O   O4        1.0  0.06282629022798855  0.19337527403204288  0.6844004002821719  1.0000
  O   O5        1.0  0.869402987301271  0.4910243307837448  0.806615889057305  1.0000
  O   O6        1.0  0.3784894233537344  0.3156454480262951  0.5089949256385181  1.0000
  O   O7        1.0  0.6504528836376267  0.3605580946369429  0.5722318608106535  1.0000
  O   O8        1.0  0.07816304050897566  0.42772264765856954  0.7882831499683219  1.0000
  O   O9        1.0  0.2899269200317677  0.21174558616170464  0.6394777517424616  1.0000
  O   O10       1.0  0.9218360674134515  0.2117152289856962  0.5722757805501856  1.0000
  O   O11       1.0  0.7100755936752208  0.3605219370445454  0.7882557640547033  1.0000
  O   O12       1.0  0.3495507405415025  0.42777002436707084  0.6394449656462982  1.0000
  O   O13       1.0  0.5128976551116367  0.42479925719397466  0.8539813879330393  1.0000
  O   O14       1.0  0.6589059053062697  0.1460025094261326  0.5707067471219816  1.0000
  O   O15       1.0  0.08806096473728084  0.4291082876213325  0.575120846611668  1.0000
  O   O16       1.0  0.3410917793762493  0.4292879744944926  0.8539975270214838  1.0000
  O   O17       1.0  0.9119380496914783  0.4248762462926194  0.5708890726618775  1.0000
  O   O18       1.0  0.48710057032001697  0.14601658940898687  0.5751992226947988  1.0000
