data_image0
_chemical_formula_structural       Co2H56C72N8O8
_chemical_formula_sum              "Co2 H56 C72 N8 O8"
_cell_length_a       9.097693185376007
_cell_length_b       11.044787411300659
_cell_length_c       16.375566967632675
_cell_angle_alpha    71.50996147544043
_cell_angle_beta     76.58240046535259
_cell_angle_gamma    81.29811005317224

_space_group_name_H-M_alt    "P 1"
_space_group_IT_number       1

loop_
  _space_group_symop_operation_xyz
  'x, y, z'

loop_
  _atom_site_type_symbol
  _atom_site_label
  _atom_site_symmetry_multiplicity
  _atom_site_fract_x
  _atom_site_fract_y
  _atom_site_fract_z
  _atom_site_occupancy
  Co  Co1       1.0  0.47185310446489825  0.6374995885830689  0.24969380673646674  1.0000
  Co  Co2       1.0  0.5281461200373201  0.36250330765511773  0.750306267610064  1.0000
  H   H1        1.0  0.6186600449939661  0.5252591694677876  0.3927516874205566  1.0000
  H   H2        1.0  0.38134266278212436  0.47474278229963573  0.6072487606581021  1.0000
  H   H3        1.0  0.7999320334527908  0.4472148942492711  0.4106464576354868  1.0000
  H   H4        1.0  0.20006748110659342  0.552785128100517  0.5893554157426308  1.0000
  H   H5        1.0  0.6715782838567178  0.3686367985501563  0.3823321260203372  1.0000
  H   H6        1.0  0.3284189777785471  0.6313632146672179  0.6176694224430079  1.0000
  H   H7        1.0  0.6595846397551456  0.7485045401673037  0.04563376321654997  1.0000
  H   H8        1.0  0.34041856585348995  0.25149262137296813  0.9543682566136624  1.0000
  H   H9        1.0  0.8803678686030876  0.771369209048345  0.9190414945877451  1.0000
  H   H10       1.0  0.11963575477313526  0.22863466371259025  0.08095964893571052  1.0000
  H   H11       1.0  0.13403564031258944  0.665241199225548  0.9411767900346321  1.0000
  H   H12       1.0  0.865966234145162  0.3347578739987399  0.058824988910849606  1.0000
  H   H13       1.0  0.17633835337696266  0.5261547567446884  0.08745089779077375  1.0000
  H   H14       1.0  0.8236637350292781  0.47384239996376465  0.9125500424599268  1.0000
  H   H15       1.0  0.03126827818443448  0.41942391395895856  0.34276715255374773  1.0000
  H   H16       1.0  0.968729285854223  0.5805732250158757  0.6572349721116808  1.0000
  H   H17       1.0  0.14615983978004718  0.42855547406788475  0.23906640718951166  1.0000
  H   H18       1.0  0.8538387283136402  0.571442628173756  0.7609378278175782  1.0000
  H   H19       1.0  0.8673570778488722  0.3126023440892426  0.19692614200151584  1.0000
  H   H20       1.0  0.13264941560448304  0.6873957889648921  0.8030752560113541  1.0000
  H   H21       1.0  0.8508127618849172  0.08872760861067522  0.2028813271533139  1.0000
  H   H22       1.0  0.14919118858714597  0.9112733891994367  0.797117946913211  1.0000
  H   H23       1.0  0.9854591053713474  0.9093429314226429  0.3037296879746592  1.0000
  H   H24       1.0  0.014536098768935786  0.09065515667769121  0.6962725311233984  1.0000
  H   H25       1.0  0.13160879072795234  0.9595267502832672  0.39789238692866047  1.0000
  H   H26       1.0  0.868386602668373  0.040469422009522305  0.6021114391336228  1.0000
  H   H27       1.0  0.12460626713467347  0.2309822404099222  0.45363811180991587  1.0000
  H   H28       1.0  0.8753944839475734  0.7690168281596217  0.5463631989708162  1.0000
  H   H29       1.0  0.24265858823601147  0.09492670522966053  0.43749456122807123  1.0000
  H   H30       1.0  0.7573454445178455  0.9050733350308208  0.5625067391500667  1.0000
  H   H31       1.0  0.3034789533413899  0.5234199349115158  0.42597543278780853  1.0000
  H   H32       1.0  0.6965217154590704  0.47658009120765865  0.5740238516813039  1.0000
  H   H33       1.0  0.29974149681775936  0.3603305900330015  0.4943803056580336  1.0000
  H   H34       1.0  0.7002579354598311  0.6396703898664172  0.505619541408457  1.0000
  H   H35       1.0  0.1387310489075517  0.4405022723942198  0.4495589149307407  1.0000
  H   H36       1.0  0.8612707556146332  0.5594977580255576  0.5504396148736177  1.0000
  H   H37       1.0  0.35328692984744947  0.0817406099315079  0.2526071466255431  1.0000
  H   H38       1.0  0.646704500961796  0.9182612965279807  0.7473928997087995  1.0000
  H   H39       1.0  0.49377178825248075  0.13479857273437557  0.09959016061243631  1.0000
  H   H40       1.0  0.5062198503321369  0.865201417386345  0.9004096584418733  1.0000
  H   H41       1.0  0.598447150007736  0.3445486688910506  0.024597079157267415  1.0000
  H   H42       1.0  0.4015433837207211  0.6554513160437169  0.9754004374880266  1.0000
  H   H43       1.0  0.572576480217563  0.5086572332158001  0.10440546954132662  1.0000
  H   H44       1.0  0.42741282933425123  0.49134370514507003  0.8955913868718497  1.0000
  H   H45       1.0  0.29322267263037816  0.7580293810017553  0.4837201331680562  1.0000
  H   H46       1.0  0.7067879111204787  0.2419726029947357  0.5162823692344178  1.0000
  H   H47       1.0  0.26039368615683134  0.857643242269006  0.6051590503335051  1.0000
  H   H48       1.0  0.7396146715791827  0.14236927578497222  0.3948402597484916  1.0000
  H   H49       1.0  0.6536788986457649  0.9923391320550581  0.3325231969579578  1.0000
  H   H50       1.0  0.34632570206171914  0.007666659928666802  0.6674725278627635  1.0000
  H   H51       1.0  0.9481009341085307  0.83447084050043  0.17080179564326414  1.0000
  H   H52       1.0  0.05189798799029426  0.16553492998028937  0.8291977025011905  1.0000
  H   H53       1.0  0.7197748694213146  0.9441979069415891  0.1109348396012139  1.0000
  H   H54       1.0  0.28022706059445557  0.055801164689057714  0.8890614366114988  1.0000
  H   H55       1.0  0.3918475414331723  0.909940823583831  0.014997169989449388  1.0000
  H   H56       1.0  0.6081509814174026  0.09005823514500831  0.9850013702174963  1.0000
  C   C1        1.0  0.7137697880975294  0.4619344680683356  0.370585227981124  1.0000
  C   C2        1.0  0.28622973880808183  0.5380655539273107  0.6294154225674831  1.0000
  C   C3        1.0  0.7758622753555784  0.5183689431543855  0.2760791380417232  1.0000
  C   C4        1.0  0.22413867115582053  0.48162820943053947  0.7239231682884792  1.0000
  C   C5        1.0  0.795633091025536  0.6245718932390647  0.1367338190705496  1.0000
  C   C6        1.0  0.20436510868547222  0.37541949636533906  0.8632664009252695  1.0000
  C   C7        1.0  0.7710117674943006  0.699897072755789  0.053902858275044756  1.0000
  C   C8        1.0  0.22898837656432386  0.3000972004006429  0.9460977218482185  1.0000
  C   C9        1.0  0.8949541864635719  0.7120796198640776  0.9843900037560402  1.0000
  C   C10       1.0  0.10504800274379987  0.2879165787635288  0.015611128562021286  1.0000
  C   C11       1.0  0.03916395226855937  0.6515882940722906  0.9968537997137333  1.0000
  C   C12       1.0  0.9608380476827774  0.34840982036286766  0.0031457256400955324  1.0000
  C   C13       1.0  0.0647458957148075  0.5740242758189781  0.07868921596706713  1.0000
  C   C14       1.0  0.9352554725204527  0.4259690439113443  0.921312024388307  1.0000
  C   C15       1.0  0.9401748783373803  0.5613431700091882  0.14808565872552748  1.0000
  C   C16       1.0  0.05982207867765509  0.4386491735525271  0.8519157352824394  1.0000
  C   C17       1.0  0.03424689335520978  0.4035644086856679  0.2794835697740439  1.0000
  C   C18       1.0  0.9657529174344502  0.5964327395986545  0.7205194912208981  1.0000
  C   C19       1.0  0.012614466486240886  0.2647174954143027  0.2914627337988165  1.0000
  C   C20       1.0  0.9873876095737796  0.7352796616482921  0.7085394292813875  1.0000
  C   C21       1.0  0.9256965284350116  0.23514405425358828  0.24121495846461738  1.0000
  C   C22       1.0  0.07430545299698817  0.7648540607127858  0.7587864011334775  1.0000
  C   C23       1.0  0.9150134195282504  0.10854065306511984  0.24511264312202743  1.0000
  C   C24       1.0  0.08498865653176314  0.8914565039974819  0.7548895199581765  1.0000
  C   C25       1.0  0.9885886249601299  0.008500873618217502  0.30192162963181357  1.0000
  C   C26       1.0  0.011410062454032777  0.9914962700113609  0.6980809631983719  1.0000
  C   C27       1.0  0.07156692942310632  0.036924316056371316  0.35430320516942265  1.0000
  C   C28       1.0  0.9284308176984692  0.9630709072879855  0.6457011378749797  1.0000
  C   C29       1.0  0.0860817305025279  0.16363669091445845  0.3494549677416003  1.0000
  C   C30       1.0  0.9139169507385247  0.8363604528921939  0.65054823650334  1.0000
  C   C31       1.0  0.1886948284139365  0.18690093202829422  0.4030358119289374  1.0000
  C   C32       1.0  0.8113048939208266  0.813097173982726  0.59696583416914  1.0000
  C   C33       1.0  0.26366886877242013  0.4298955012537746  0.43620365004811396  1.0000
  C   C34       1.0  0.7363319070022809  0.5701035666074861  0.5637952150736041  1.0000
  C   C35       1.0  0.32632279122034186  0.3884913415588541  0.35631642883085857  1.0000
  C   C36       1.0  0.6736757192840128  0.6115077175241271  0.6436833342056048  1.0000
  C   C37       1.0  0.3826455749481069  0.2675531010563504  0.2647106348675408  1.0000
  C   C38       1.0  0.6173468969548492  0.7324497676075128  0.735287853319946  1.0000
  C   C39       1.0  0.3988030731050357  0.17444417134540663  0.22141825260347758  1.0000
  C   C40       1.0  0.6011884708515677  0.8255567766790864  0.778580762968723  1.0000
  C   C41       1.0  0.47837755812062693  0.205435761071179  0.13500925538648545  1.0000
  C   C42       1.0  0.521612767832451  0.794566140202349  0.8649884885388347  1.0000
  C   C43       1.0  0.5394680742340299  0.324549561164389  0.0929241774087473  1.0000
  C   C44       1.0  0.4605200872498328  0.6754513732500201  0.9070746564986721  1.0000
  C   C45       1.0  0.5259092650640013  0.4162993407243435  0.13683676446707688  1.0000
  C   C46       1.0  0.47407880179184037  0.5837025515938379  0.8631612659582333  1.0000
  C   C47       1.0  0.4471562205067912  0.3858960614728275  0.22417133189719612  1.0000
  C   C48       1.0  0.5528363645435304  0.6141058487560472  0.7758261255281411  1.0000
  C   C49       1.0  0.4773900576205746  0.8685524309767703  0.4020844715580197  1.0000
  C   C50       1.0  0.5226146315418062  0.13145240328024954  0.5979126681595659  1.0000
  C   C51       1.0  0.36537464570424305  0.8307746224682261  0.4794677780258283  1.0000
  C   C52       1.0  0.6346324732920791  0.16922830546781142  0.5205325164002517  1.0000
  C   C53       1.0  0.3480172662954572  0.885408472761192  0.5462803511595951  1.0000
  C   C54       1.0  0.6519949018102764  0.11460022587120734  0.45371746319760575  1.0000
  C   C55       1.0  0.44358504593021286  0.9802769438769732  0.5393513743584607  1.0000
  C   C56       1.0  0.5564250955461175  0.019729828753035902  0.4606440535596761  1.0000
  C   C57       1.0  0.5697972153325565  0.9625965627823879  0.3928944667778609  1.0000
  C   C58       1.0  0.43020944286989493  0.03741115431837731  0.6071005874081479  1.0000
  C   C59       1.0  0.49539177868567896  0.8074617785838074  0.330287472583251  1.0000
  C   C60       1.0  0.5046100011440585  0.192538252544253  0.6697135028801284  1.0000
  C   C61       1.0  0.17573171018540978  0.8619269706682505  0.0992382470132824  1.0000
  C   C62       1.0  0.8242687570127814  0.13807497161261753  0.9007606533211073  1.0000
  C   C63       1.0  0.01971261673725166  0.8846575202335103  0.1095758728029779  1.0000
  C   C64       1.0  0.9802899964108175  0.11534538943769233  0.8904237717935716  1.0000
  C   C65       1.0  0.9521947410491122  0.969359968769517  0.04079633109544297  1.0000
  C   C66       1.0  0.0478066540954316  0.03064389415071391  0.9592020418542333  1.0000
  C   C67       1.0  0.7922072888626133  0.992626164780319  0.04937652494695035  1.0000
  C   C68       1.0  0.20779471726183368  0.0073719494777649  0.9506223889921372  1.0000
  C   C69       1.0  0.2695473327066295  0.9264397668049544  0.019503601946396897  1.0000
  C   C70       1.0  0.7304533484400506  0.07356025896007881  0.9804944596932048  1.0000
  C   C71       1.0  0.2461774257682662  0.7670286533987538  0.17022292443640902  1.0000
  C   C72       1.0  0.7538286891730194  0.23297331127047727  0.8297752596480097  1.0000
  N   N1        1.0  0.696700067366528  0.5959673620388344  0.21788426889095558  1.0000
  N   N2        1.0  0.3032976098194879  0.4040288185010114  0.7821168250123237  1.0000
  N   N3        1.0  0.9230908258991022  0.49459967842564384  0.23700064020972184  1.0000
  N   N4        1.0  0.07690922353150137  0.5053955526345605  0.762999136431425  1.0000
  N   N5        1.0  0.41122178142764193  0.4580529343510734  0.2835345544270708  1.0000
  N   N6        1.0  0.5887730503736889  0.5419489851872897  0.716463839327787  1.0000
  N   N7        1.0  0.3051159965853002  0.272507463892005  0.3478438229863555  1.0000
  N   N8        1.0  0.6948813905435427  0.7274915905362322  0.6521554718853437  1.0000
  O   O1        1.0  0.4342815773233609  0.698656617795102  0.3535352010982181  1.0000
  O   O2        1.0  0.5657216159390471  0.3013405440993041  0.6464680415614978  1.0000
  O   O3        1.0  0.5646491926619104  0.8585124622896316  0.25449991707849073  1.0000
  O   O4        1.0  0.43534860384457363  0.14148275963815146  0.745499534647891  1.0000
  O   O5        1.0  0.17070991257027396  0.7165307274787908  0.24489208862626555  1.0000
  O   O6        1.0  0.8293001073687518  0.283466459865089  0.7551054032154668  1.0000
  O   O7        1.0  0.3927680849644231  0.7408344418656371  0.14814395223898913  1.0000
  O   O8        1.0  0.6072407068416864  0.25917424297960423  0.8518530690386895  1.0000
