data_image0
_chemical_formula_structural       Zr6H32C57N2O42
_chemical_formula_sum              "Zr6 H32 C57 N2 O42"
_cell_length_a       14.76042013734046
_cell_length_b       14.800059044556589
_cell_length_c       14.804784692098728
_cell_angle_alpha    59.940027139865826
_cell_angle_beta     59.79897040894083
_cell_angle_gamma    59.87811010637855

_space_group_name_H-M_alt    "P 1"
_space_group_IT_number       1

loop_
  _space_group_symop_operation_xyz
  'x, y, z'

loop_
  _atom_site_type_symbol
  _atom_site_label
  _atom_site_symmetry_multiplicity
  _atom_site_fract_x
  _atom_site_fract_y
  _atom_site_fract_z
  _atom_site_occupancy
  Zr  Zr1       1.0  0.8747719523384491  0.8839749013792613  0.6228095431212637  1.0000
  Zr  Zr2       1.0  0.1174882784402911  0.12027809690339807  0.38220444575404144  1.0000
  Zr  Zr3       1.0  0.11431232900148534  0.8829873983214541  0.6224910515154535  1.0000
  Zr  Zr4       1.0  0.8768923747322931  0.12233619940179367  0.3814343157697523  1.0000
  Zr  Zr5       1.0  0.1155139052428564  0.8820298377760668  0.38286476406468495  1.0000
  Zr  Zr6       1.0  0.8751012668847692  0.12444125806631942  0.6200764419526551  1.0000
  H   H1        1.0  0.09013907208907311  0.720294733595857  0.5968061221768579  1.0000
  H   H2        1.0  0.09321789854400458  0.0930158497521063  0.2199148093732219  1.0000
  H   H3        1.0  0.08971986132969072  0.09678148101519216  0.5961779673517142  1.0000
  H   H4        1.0  0.7122298528089458  0.09949481636037655  0.5950248565263294  1.0000
  H   H5        1.0  0.826289278678722  0.6075020039016723  0.6257620944784393  1.0000
  H   H6        1.0  0.1445360670054114  0.5858707579055036  0.3665916250661708  1.0000
  H   H7        1.0  0.8325328975487383  0.43710545733397066  0.6212757176117307  1.0000
  H   H8        1.0  0.5863607211444731  0.8523998606558295  0.9221531640209548  1.0000
  H   H9        1.0  0.5912579831511452  0.13887122822565354  0.9254085896769197  1.0000
  H   H10       1.0  0.4183721371134934  0.8509083525227085  0.09428716533562909  1.0000
  H   H11       1.0  0.13230589091492817  0.8485411609925677  0.09247012849494486  1.0000
  H   H12       1.0  0.8433358311792959  0.14135028655432808  0.09888358877184805  1.0000
  H   H13       1.0  0.12782506990568274  0.8549019136230455  0.9222294874634969  1.0000
  H   H14       1.0  0.5973980982093324  0.43534436437145274  0.6277746451393256  1.0000
  H   H15       1.0  0.5908294112368466  0.42556507904499347  0.3458762460120255  1.0000
  H   H16       1.0  0.42788093173437874  0.6052869073946424  0.6266976616337914  1.0000
  H   H17       1.0  0.9987856961351014  0.5714986366188344  0.7326863652580258  1.0000
  H   H18       1.0  0.017305361827084184  0.40120539861992194  0.7246463389824171  1.0000
  H   H19       1.0  0.006392472762073042  0.23196138244691866  0.06410852925172608  1.0000
  H   H20       1.0  0.02828945345797947  0.22674856095006385  0.8913806974743254  1.0000
  H   H21       1.0  0.5897637729451973  0.13544437006835625  0.3463428137517893  1.0000
  H   H22       1.0  0.5907599461230364  0.8495798397695753  0.6413173155544245  1.0000
  H   H23       1.0  0.4226858413034692  0.12951112800693917  0.3478531900003219  1.0000
  H   H24       1.0  0.23211303694729676  0.2878246478215516  0.46666288826415336  1.0000
  H   H25       1.0  0.31790147229983035  0.2598135344563204  0.026777826602923882  1.0000
  H   H26       1.0  0.8774885547238539  0.2786272569832207  0.8752785220620822  1.0000
  H   H27       1.0  0.3179267851564944  0.5145814693173706  0.4190533949607342  1.0000
  H   H28       1.0  0.30397401788947326  0.9092560369822068  0.7530447761529686  1.0000
  H   H29       1.0  0.058455857660121104  0.4121426188130499  0.22818749399058902  1.0000
  H   H30       1.0  0.09154280785983811  0.5273725736768284  0.14781469319396476  1.0000
  H   H31       1.0  0.039679601887840414  0.7396805333642719  0.9233197336157631  1.0000
  H   H32       1.0  0.005331089256479327  0.6813515576206656  0.06567988045534887  1.0000
  C   C1        1.0  0.9873880720588633  0.7047219058718639  0.49949711139428393  1.0000
  C   C2        1.0  0.3056402645851436  0.9958949499727012  0.20296465529976618  1.0000
  C   C3        1.0  0.9942832586174292  0.3116183662044706  0.49601849635870837  1.0000
  C   C4        1.0  0.695442373996613  0.00011139429677336352  0.8091863515621257  1.0000
  C   C5        1.0  0.9952438466438879  0.6988364053779391  0.8070408509268462  1.0000
  C   C6        1.0  0.6956854779619236  0.9989502574664542  0.49795955182794666  1.0000
  C   C7        1.0  0.9989488897327163  0.3047891434494547  0.19567034328450464  1.0000
  C   C8        1.0  0.3053860593356745  0.9942718709762132  0.49994700214759286  1.0000
  C   C9        1.0  0.30542872803830085  0.7038507729908687  0.4960744352905521  1.0000
  C   C10       1.0  0.9877205184389412  0.0034000350300117197  0.8104239251753499  1.0000
  C   C11       1.0  0.6995028475147933  0.31454855384299674  0.4921944006345099  1.0000
  C   C12       1.0  0.9915502980758859  0.995980288737741  0.20366093797177615  1.0000
  C   C13       1.0  0.9935764943685681  0.413562480469892  0.4950966405832063  1.0000
  C   C14       1.0  0.9858715149679042  0.6056851831281734  0.4970274299001644  1.0000
  C   C15       1.0  0.08272925484929773  0.4550612286192076  0.42281837336189193  1.0000
  C   C16       1.0  0.8971171336943726  0.5647221885911549  0.5689042889375884  1.0000
  C   C17       1.0  0.07701782486148559  0.5519272070136195  0.4232459232353847  1.0000
  C   C18       1.0  0.9009637982990031  0.4699196418869463  0.5668068292992245  1.0000
  C   C19       1.0  0.40799088163050384  0.9966558160621374  0.1031921772715662  1.0000
  C   C20       1.0  0.5959181782558077  0.9980569815527857  0.912079179049023  1.0000
  C   C21       1.0  0.457030254638795  0.07809373129254038  0.05672945899408431  1.0000
  C   C22       1.0  0.5486761642907039  0.9156657236200659  0.9598432258193343  1.0000
  C   C23       1.0  0.5507104622047051  0.07838367965557329  0.9608948672913871  1.0000
  C   C24       1.0  0.4551819244227031  0.9152491024008216  0.0548142954535677  1.0000
  C   C25       1.0  0.9834097955401191  0.0016360325287081011  0.9146152858544525  1.0000
  C   C26       1.0  0.9881119549650137  0.9952854393449185  0.10473422475207173  1.0000
  C   C27       1.0  0.9016947883913601  0.08330882155313186  0.9644676273773457  1.0000
  C   C28       1.0  0.06826560386499379  0.9134471048002197  0.05620780684896678  1.0000
  C   C29       1.0  0.9052514435295362  0.07905480940906548  0.059132899797411674  1.0000
  C   C30       1.0  0.06543904226105467  0.9171918167635766  0.9618857312241217  1.0000
  C   C31       1.0  0.41109855479817986  0.6075609882703646  0.48931510781729065  1.0000
  C   C32       1.0  0.6020197914576996  0.4193122884669905  0.488487616220425  1.0000
  C   C33       1.0  0.4580272018334027  0.5586941164088303  0.4076610509215754  1.0000
  C   C34       1.0  0.5576101903902783  0.4704116965551679  0.5668554484013059  1.0000
  C   C35       1.0  0.5534377037495658  0.46479694029543595  0.4079268356998966  1.0000
  C   C36       1.0  0.46290235742469565  0.5641332373306084  0.5668739520589483  1.0000
  C   C37       1.0  0.00489472945088203  0.5938499133996729  0.9017019927003389  1.0000
  C   C38       1.0  0.0005570465106928247  0.4995769070023214  0.9006401059029728  1.0000
  C   C39       1.0  0.02181138709467257  0.5876551479995765  0.9897411771815499  1.0000
  C   C40       1.0  0.0035782610501086153  0.4966713276234244  0.8048068854207743  1.0000
  C   C41       1.0  0.012605507259451055  0.40108862659550937  0.8006428757634654  1.0000
  C   C42       1.0  0.006055528218617166  0.40149645534127393  0.0918203929981374  1.0000
  C   C43       1.0  0.024401030278760075  0.48843771260026614  0.08620156394088237  1.0000
  C   C44       1.0  0.0005435225510765198  0.40229546560678386  0.9972219478969109  1.0000
  C   C45       1.0  0.006826300637427973  0.3063883082605868  0.99138550457959  1.0000
  C   C46       1.0  0.015661709314329367  0.30461671896820514  0.894593564818294  1.0000
  C   C47       1.0  0.40930159429280627  0.9899618236960208  0.4984946703445345  1.0000
  C   C48       1.0  0.5978143256002539  0.9946121431272842  0.49574757472672093  1.0000
  C   C49       1.0  0.4577524400829488  0.9083439603730525  0.5810022321732545  1.0000
  C   C50       1.0  0.5518441616795825  0.07291086050049234  0.41190873551126844  1.0000
  C   C51       1.0  0.551871009330398  0.911646009968436  0.5786211847920127  1.0000
  C   C52       1.0  0.45840386630320745  0.07017450115851183  0.4132960770926175  1.0000
  C   C53       1.0  0.18796081549314891  0.40422433842933003  0.3420516581355599  1.0000
  C   C54       1.0  0.41983827282020764  0.16223935934266362  0.10828221697659048  1.0000
  C   C55       1.0  0.8056046541069647  0.17383217240850274  0.9256065415977944  1.0000
  C   C56       1.0  0.41318971156557177  0.6025530210109409  0.3163781885081819  1.0000
  C   C57       1.0  0.4193898634500357  0.8117881786634485  0.6702914240508946  1.0000
  N   N1        1.0  0.038927292044860444  0.4884088820871426  0.17092901130686042  1.0000
  N   N2        1.0  0.03718666073893188  0.6707610533651902  0.9915726626562958  1.0000
  O   O1        1.0  0.9114759751653596  0.7426400332427294  0.5777312478803225  1.0000
  O   O2        1.0  0.26427374352602573  0.07340866370695665  0.24245851674655233  1.0000
  O   O3        1.0  0.07313308778356746  0.2710960253020999  0.41988861990066084  1.0000
  O   O4        1.0  0.7347397572228188  0.923606893434098  0.7690752677524912  1.0000
  O   O5        1.0  0.06698995730788926  0.7454170157449341  0.7695062879624858  1.0000
  O   O6        1.0  0.7335663235277536  0.07728264736004341  0.42219056224869433  1.0000
  O   O7        1.0  0.9220995782542261  0.2654752704084376  0.23417116003653873  1.0000
  O   O8        1.0  0.2622357416589836  0.9204818144645017  0.5797999621488118  1.0000
  O   O9        1.0  0.2621680236135475  0.7402079698345645  0.4228361326310123  1.0000
  O   O10       1.0  0.9163980416747679  0.08418373344296262  0.7655644677030867  1.0000
  O   O11       1.0  0.7364670775153357  0.27324743510195754  0.5712704528461999  1.0000
  O   O12       1.0  0.0701834360500939  0.9202439185906642  0.24089145518329505  1.0000
  O   O13       1.0  0.06444846179120853  0.9247530337522604  0.7730160559310306  1.0000
  O   O14       1.0  0.737218904103351  0.27235239130435923  0.41789476565713113  1.0000
  O   O15       1.0  0.9162746502415332  0.07440584449734207  0.2417337616396722  1.0000
  O   O16       1.0  0.2643233974687929  0.7410243984562259  0.5747124857852199  1.0000
  O   O17       1.0  0.9182109209175808  0.7378244299019631  0.7680267074828963  1.0000
  O   O18       1.0  0.2650176547151871  0.07237041371966776  0.42459090168306807  1.0000
  O   O19       1.0  0.07147475821802371  0.2660413587146664  0.2414841153790448  1.0000
  O   O20       1.0  0.7329859835960237  0.9246915276406754  0.5770059465230233  1.0000
  O   O21       1.0  0.733738328409956  0.07846152891482212  0.767170771204029  1.0000
  O   O22       1.0  0.06678091226407916  0.7416162554534225  0.424549472286273  1.0000
  O   O23       1.0  0.2644526348473094  0.9209440231861733  0.24064077304827686  1.0000
  O   O24       1.0  0.9175960116079835  0.2722160107927325  0.5729587829256318  1.0000
  O   O25       1.0  0.792845558264034  0.07224298795578939  0.5682593485895069  1.0000
  O   O26       1.0  0.06326454690088919  0.07036164090707327  0.5689390869318985  1.0000
  O   O27       1.0  0.06478241681269031  0.06734195882512486  0.3002121395225359  1.0000
  O   O28       1.0  0.06252143418569721  0.8005722261665511  0.5700046044335566  1.0000
  O   O29       1.0  0.14513116740631907  0.9516819528138643  0.453152901546204  1.0000
  O   O30       1.0  0.9457196189438334  0.9531658896012234  0.45316625334795885  1.0000
  O   O31       1.0  0.9474012656912193  0.15129969536715762  0.4512322634704374  1.0000
  O   O32       1.0  0.9450139127842692  0.9548958404008943  0.6506066809678542  1.0000
  O   O33       1.0  0.26532847699527207  0.3139775394843909  0.38609031571535013  1.0000
  O   O34       1.0  0.21051629783048037  0.446856517844452  0.24224319281273665  1.0000
  O   O35       1.0  0.34487094122822975  0.26258717686742733  0.07326018101903742  1.0000
  O   O36       1.0  0.4609626944609886  0.1463665427326646  0.1704515697358673  1.0000
  O   O37       1.0  0.8117691279033178  0.2778877407708223  0.8743862544402604  1.0000
  O   O38       1.0  0.7234506149596954  0.15842771469009173  0.9447609152764402  1.0000
  O   O39       1.0  0.3369102940564375  0.5598023840060761  0.34075533865084406  1.0000
  O   O40       1.0  0.448217763952691  0.6627150533343454  0.22359296452174943  1.0000
  O   O41       1.0  0.33652974904379107  0.8297902367823227  0.7653459695981725  1.0000
  O   O42       1.0  0.46627495662266943  0.7190565172484112  0.6644992136957272  1.0000
