data_image0
_chemical_formula_structural       Cr2H10C16O10
_chemical_formula_sum              "Cr2 H10 C16 O10"
_cell_length_a       6.891960382537131
_cell_length_b       11.247863684129271
_cell_length_c       11.247892899976103
_cell_angle_alpha    84.83602410376272
_cell_angle_beta     72.15637392842284
_cell_angle_gamma    72.1560683406955

_space_group_name_H-M_alt    "P 1"
_space_group_IT_number       1

loop_
  _space_group_symop_operation_xyz
  'x, y, z'

loop_
  _atom_site_type_symbol
  _atom_site_label
  _atom_site_symmetry_multiplicity
  _atom_site_fract_x
  _atom_site_fract_y
  _atom_site_fract_z
  _atom_site_occupancy
  Cr  Cr1       1.0  0.9999986122300655  0.5000020730919418  0.5000012121340092  1.0000
  Cr  Cr2       1.0  0.5000053987793295  0.5000008719920005  0.4999983260899085  1.0000
  H   H1        1.0  0.2505116184073444  0.11715449575319783  0.505130142315906  1.0000
  H   H2        1.0  0.3738601634479791  0.3761761004258447  0.3761725681334127  1.0000
  H   H3        1.0  0.6272017849436934  0.5052139689304129  0.11735926626005275  1.0000
  H   H4        1.0  0.3727985464970161  0.8826397305020137  0.4947838666692519  1.0000
  H   H5        1.0  0.6261387380920311  0.6238219583205833  0.6238275805937192  1.0000
  H   H6        1.0  0.7494885657215278  0.49486818905956664  0.8828437538088494  1.0000
  H   H7        1.0  0.7494868285455712  0.8828444840148321  0.4948691076397864  1.0000
  H   H8        1.0  0.3728027674717539  0.49478499418071936  0.8826388418286797  1.0000
  H   H9        1.0  0.6272014268215287  0.1173592451017882  0.5052150978197005  1.0000
  H   H10       1.0  0.2505144603282901  0.5051307782157937  0.11715463974662299  1.0000
  C   C1        1.0  0.14237497554816514  0.06482334712008252  0.5026275784771173  1.0000
  C   C2        1.0  0.7901490111014269  0.5026927469694444  0.06492990915188562  1.0000
  C   C3        1.0  0.20985222682070048  0.9350691108640775  0.497308170092758  1.0000
  C   C4        1.0  0.85762739956445  0.4973713460887695  0.9351758561049407  1.0000
  C   C5        1.0  0.8576230091764216  0.9351765665459343  0.497371661953501  1.0000
  C   C6        1.0  0.2098581241757529  0.4973071545876381  0.935068507724658  1.0000
  C   C7        1.0  0.790147738856625  0.06492987761613021  0.50269168364256  1.0000
  C   C8        1.0  0.1423772772492171  0.5026304403049338  0.06482371643456018  1.0000
  C   C9        1.0  0.9321023714216707  0.1306204409693805  0.5053078913137412  1.0000
  C   C10       1.0  0.8612161230722887  0.27007394715917604  0.507568166310243  1.0000
  C   C11       1.0  0.9321031048348728  0.5053083345707636  0.13062092443916373  1.0000
  C   C12       1.0  0.8612080819673267  0.5075672469021059  0.27007649153883045  1.0000
  C   C13       1.0  0.06789452624194342  0.8693785815920733  0.49469431184778045  1.0000
  C   C14       1.0  0.1387812368196464  0.7299241415042845  0.49243404637635274  1.0000
  C   C15       1.0  0.06789700816433003  0.4946934385628055  0.8693777260078264  1.0000
  C   C16       1.0  0.13878638779766564  0.4924336089903606  0.7299233103001938  1.0000
  O   O1        1.0  0.00026581021248967565  0.3234278612478861  0.5073069595151978  1.0000
  O   O2        1.0  0.6691327916685949  0.5072784017571338  0.3234619284916604  1.0000
  O   O3        1.0  0.3308625253898613  0.6765392396888998  0.4927230451603749  1.0000
  O   O4        1.0  0.9997289461002127  0.4926983111922852  0.6765729884981154  1.0000
  O   O5        1.0  0.9997260232022288  0.6765721463334486  0.49269875826056625  1.0000
  O   O6        1.0  0.33086319682080756  0.49272246284751037  0.6765384771269893  1.0000
  O   O7        1.0  0.6691369780591427  0.3234606826893015  0.507276799049869  1.0000
  O   O8        1.0  0.0002647312475687621  0.5073072229023412  0.3234273694951709  1.0000
  O   O9        1.0  0.6902975525899179  0.5596199686656009  0.5596190814640638  1.0000
  O   O10       1.0  0.30969948475435427  0.44038185142562725  0.440382807655503  1.0000
