data_image0
_chemical_formula_structural       Ca4H36C44Br4N8O24
_chemical_formula_sum              "Ca4 H36 C44 Br4 N8 O24"
_cell_length_a       6.930899810003087
_cell_length_b       12.94691590474261
_cell_length_c       15.181089525992299
_cell_angle_alpha    104.04001091405813
_cell_angle_beta     90.00008888978867
_cell_angle_gamma    89.99991776283454

_space_group_name_H-M_alt    "P 1"
_space_group_IT_number       1

loop_
  _space_group_symop_operation_xyz
  'x, y, z'

loop_
  _atom_site_type_symbol
  _atom_site_label
  _atom_site_symmetry_multiplicity
  _atom_site_fract_x
  _atom_site_fract_y
  _atom_site_fract_z
  _atom_site_occupancy
  Ca  Ca1       1.0  0.6506424925013122  0.7673932231815997  0.4324912094735113  1.0000
  Ca  Ca2       1.0  0.1506398702234222  0.7326127744927077  0.5675190664899005  1.0000
  Ca  Ca3       1.0  0.3493636602465315  0.23260212011316383  0.5675117794557423  1.0000
  Ca  Ca4       1.0  0.8493561827956668  0.2673911403155813  0.43247309228002  1.0000
  H   H1        1.0  0.5201542662278483  0.6359825152115236  0.2587298022132885  1.0000
  H   H2        1.0  0.020150438520367697  0.8640186371402837  0.7412695476643306  1.0000
  H   H3        1.0  0.4798490008821831  0.3640167597638141  0.7412706664136479  1.0000
  H   H4        1.0  0.9798499429589285  0.13597981240754115  0.2587287822754902  1.0000
  H   H5        1.0  0.0821457726304402  0.6209385997105487  0.8407449933969033  1.0000
  H   H6        1.0  0.582150047787735  0.8790593507273101  0.15925508746973796  1.0000
  H   H7        1.0  0.9178574944782838  0.37906307336503886  0.15925660579571135  1.0000
  H   H8        1.0  0.41785754776177697  0.1209382929362093  0.840742425159192  1.0000
  H   H9        1.0  0.31913834273714065  0.5453388716636381  0.9297922611995303  1.0000
  H   H10       1.0  0.8191392246464632  0.9546613255695746  0.07020842762664606  1.0000
  H   H11       1.0  0.6808634815571749  0.45466199553023057  0.07020852067967812  1.0000
  H   H12       1.0  0.18086115682990572  0.045341114296604694  0.9297913461315517  1.0000
  H   H13       1.0  0.9860102195192866  0.25536518760891624  0.8832932294699845  1.0000
  H   H14       1.0  0.4860031426968305  0.2446337594393739  0.1167060319989872  1.0000
  H   H15       1.0  0.0139901619599172  0.744638883567788  0.11670950028747032  1.0000
  H   H16       1.0  0.5139871390867725  0.755363913548635  0.8832934626848328  1.0000
  H   H17       1.0  0.7476195651134746  0.33133847013245804  0.7960487094090709  1.0000
  H   H18       1.0  0.24761587640184496  0.16865982317352043  0.20395025653848353  1.0000
  H   H19       1.0  0.2523822591795337  0.6686647951616606  0.20395320303581593  1.0000
  H   H20       1.0  0.7523801766402939  0.8313346556034631  0.7960479509549855  1.0000
  H   H21       1.0  0.47800550856260315  0.9194739245422099  0.5835232415787033  1.0000
  H   H22       1.0  0.978008580822632  0.5805261387218864  0.4164748970639849  1.0000
  H   H23       1.0  0.5219862160293403  0.08052610745319558  0.4164747409246417  1.0000
  H   H24       1.0  0.021988915029375295  0.41947472847327566  0.5835258848139588  1.0000
  H   H25       1.0  0.6207198608428258  0.9916485261262978  0.5456298376819646  1.0000
  H   H26       1.0  0.1207203440912323  0.5083517896032604  0.454370735537438  1.0000
  H   H27       1.0  0.37927763500826484  0.0083499234223936  0.45436849225701087  1.0000
  H   H28       1.0  0.8792785945759861  0.4916490873645784  0.5456307070275699  1.0000
  H   H29       1.0  0.9182822706798744  0.6440823991244925  0.7147625532020925  1.0000
  H   H30       1.0  0.4182769105896185  0.8559145349190659  0.2852362455088624  1.0000
  H   H31       1.0  0.08172532486762656  0.35592165250384505  0.2852388551841827  1.0000
  H   H32       1.0  0.58171769964094  0.14408076928671676  0.7147641006704574  1.0000
  H   H33       1.0  0.692928233910621  0.7016633813874478  0.2311590057557424  1.0000
  H   H34       1.0  0.19292467751683517  0.7983352794559052  0.7688399749080331  1.0000
  H   H35       1.0  0.3070707047559864  0.2983358838160797  0.7688408021832841  1.0000
  H   H36       1.0  0.8070728183367848  0.20166399552115166  0.2311604937172191  1.0000
  C   C1        1.0  0.6421836727100397  0.6813719955171038  0.5986596284326778  1.0000
  C   C2        1.0  0.1421773661918309  0.8186282976231068  0.4013402966037987  1.0000
  C   C3        1.0  0.35781959439474054  0.31862803647484844  0.401338354074035  1.0000
  C   C4        1.0  0.857814358407289  0.18137019101973814  0.5986606760800653  1.0000
  C   C5        1.0  0.6314450106944278  0.6158745212913459  0.666106625460962  1.0000
  C   C6        1.0  0.13144406870873127  0.8841249626051706  0.3338918153206619  1.0000
  C   C7        1.0  0.36856114204331186  0.38412635567433273  0.3338948171061418  1.0000
  C   C8        1.0  0.8685534271437803  0.1158743025987832  0.6661079926179525  1.0000
  C   C9        1.0  0.5008488187891231  0.5386374288244654  0.6792832701861543  1.0000
  C   C10       1.0  0.0008447377188218999  0.9613629291745411  0.3207152511302667  1.0000
  C   C11       1.0  0.4991573339465844  0.46136102072163965  0.3207150597553508  1.0000
  C   C12       1.0  0.9991513153168512  0.0386379184748336  0.679284209373975  1.0000
  C   C13       1.0  0.3022800559013206  0.5136320469048457  0.6424577353343324  1.0000
  C   C14       1.0  0.8022789458665115  0.9863665290862613  0.357539987669675  1.0000
  C   C15       1.0  0.6977188827517509  0.48637834427914584  0.35754294400026515  1.0000
  C   C16       1.0  0.197709893103081  0.013625522273301298  0.6424551071960849  1.0000
  C   C17       1.0  0.7588183634561504  0.5218947412543713  0.7564534629679684  1.0000
  C   C18       1.0  0.2588168597979745  0.9781038802385497  0.2435455560866657  1.0000
  C   C19       1.0  0.2411834608356358  0.47810530051112476  0.2435451802249631  1.0000
  C   C20       1.0  0.7411835216870841  0.0218922103014521  0.7564542860340424  1.0000
  C   C21       1.0  0.8981164425449891  0.4812227575372461  0.8114295404164337  1.0000
  C   C22       1.0  0.39811310611347034  0.018775455664460608  0.18857017390344305  1.0000
  C   C23       1.0  0.10189115300351399  0.5187780901086825  0.1885699200911688  1.0000
  C   C24       1.0  0.6018887181848813  0.9812214309841637  0.8114298248440334  1.0000
  C   C25       1.0  0.060264177262553204  0.5406540338479005  0.8495164378775896  1.0000
  C   C26       1.0  0.5602653201208838  0.9593447257677141  0.15048378686537942  1.0000
  C   C27       1.0  0.9397362042141212  0.4593492119004381  0.1504841531935881  1.0000
  C   C28       1.0  0.439733618552296  0.0406513843189344  0.8495173766281923  1.0000
  C   C29       1.0  0.1939352752530112  0.49902734461771564  0.9001610599470807  1.0000
  C   C30       1.0  0.6939345975227411  0.0009710100671327001  0.0998398567826371  1.0000
  C   C31       1.0  0.8060622206007081  0.5009751441148609  0.09984201724348911  1.0000
  C   C32       1.0  0.3060643411419477  0.9990290414723333  0.900159447096101  1.0000
  C   C33       1.0  0.16527393179472233  0.3967035988756749  0.9122368614111522  1.0000
  C   C34       1.0  0.665275822247075  0.10329632605073868  0.0877617091261698  1.0000
  C   C35       1.0  0.8347264496830675  0.6032996566457668  0.08776439034667047  1.0000
  C   C36       1.0  0.33472455923172356  0.8967037254883011  0.9122375947529874  1.0000
  C   C37       1.0  0.005867519389319401  0.3357594038358727  0.8746694894713726  1.0000
  C   C38       1.0  0.5058650448837341  0.16423821818966639  0.12532785762235926  1.0000
  C   C39       1.0  0.9941299764580337  0.6642438321402228  0.12533044091232173  1.0000
  C   C40       1.0  0.49412956534217767  0.8357594547970493  0.8746716370627183  1.0000
  C   C41       1.0  0.8722844606356829  0.3785590941337346  0.825049803991071  1.0000
  C   C42       1.0  0.37228368620785096  0.12143910517483653  0.1749479132188654  1.0000
  C   C43       1.0  0.1277144780263839  0.6214457536062383  0.17495176101902388  1.0000
  C   C44       1.0  0.6277138096459679  0.8785577619288603  0.8250507641540635  1.0000
  Br  Br1       1.0  0.34817245729830393  0.3364470520433258  0.9792795788068672  1.0000
  Br  Br2       1.0  0.8481652996731981  0.16355116166693048  0.020718124352583803  1.0000
  Br  Br3       1.0  0.6518293669960116  0.663553815150543  0.020721203072341213  1.0000
  Br  Br4       1.0  0.151830753365509  0.8364489094196088  0.9792825008985985  1.0000
  N   N1        1.0  0.791388270606582  0.6035531489631722  0.7164363886943548  1.0000
  N   N2        1.0  0.2913827953773803  0.8964454530800694  0.28356264933567127  1.0000
  N   N3        1.0  0.20861355369319054  0.39644455334070716  0.2835650880527466  1.0000
  N   N4        1.0  0.708608929220631  0.1035530257896653  0.716437662661555  1.0000
  N   N5        1.0  0.5822453480256727  0.48118014435183204  0.73443460494898  1.0000
  N   N6        1.0  0.0822408310742944  0.0188214223795526  0.2655642304633474  1.0000
  N   N7        1.0  0.4177608047084291  0.5188198974123708  0.2655640382452091  1.0000
  N   N8        1.0  0.9177581075892789  0.9811786193868033  0.7344344127287386  1.0000
  O   O1        1.0  0.48975026787193343  0.7013228388666236  0.5588704465423716  1.0000
  O   O2        1.0  0.9897513923135222  0.7986788193752403  0.4411286728820584  1.0000
  O   O3        1.0  0.5102602133044769  0.2986772028962861  0.4411281966530822  1.0000
  O   O4        1.0  0.0102475463586487  0.20132049469381738  0.5588744384901787  1.0000
  O   O5        1.0  0.8087882305178198  0.7101700888322855  0.5789761840716848  1.0000
  O   O6        1.0  0.30879216854167874  0.7898252890613123  0.4210202555336906  1.0000
  O   O7        1.0  0.1912164794035931  0.2898307685876134  0.4210239371217169  1.0000
  O   O8        1.0  0.6912038844928786  0.2101755488149522  0.5789785442839062  1.0000
  O   O9        1.0  0.19293483486990226  0.5899971685816112  0.6376213433738086  1.0000
  O   O10       1.0  0.6929426043927834  0.9100070747908688  0.36237939436818317  1.0000
  O   O11       1.0  0.8070727606846688  0.4100021259386465  0.3623804466276752  1.0000
  O   O12       1.0  0.3070577770779366  0.09000093783865282  0.637621475774438  1.0000
  O   O13       1.0  0.251536377745296  0.41586891477230387  0.6201006175363304  1.0000
  O   O14       1.0  0.7515349871669913  0.0841317645209969  0.3798988205730253  1.0000
  O   O15       1.0  0.7484654465599335  0.5841256226415937  0.3799015540786712  1.0000
  O   O16       1.0  0.24845673741281626  0.9158713737257502  0.6200945029425781  1.0000
  O   O17       1.0  0.6079106689091773  0.9200069053141746  0.5544106498556687  1.0000
  O   O18       1.0  0.1079138144225169  0.5799926317283379  0.445590419961654  1.0000
  O   O19       1.0  0.3920868269439381  0.0799939716540905  0.44559079270891283  1.0000
  O   O20       1.0  0.8920865670604242  0.4200066530209625  0.5544107093510816  1.0000
  O   O21       1.0  0.5724980292063861  0.7107993164188856  0.2652443599541385  1.0000
  O   O22       1.0  0.0724972669354074  0.7892009987899724  0.7347542031089843  1.0000
  O   O23       1.0  0.42750235227462946  0.2892007546663606  0.7347562652983015  1.0000
  O   O24       1.0  0.9275045573571817  0.2107982468664744  0.265244283457605  1.0000
