data_image0
_chemical_formula_structural       Ni16H108C148N20O56
_chemical_formula_sum              "Ni16 H108 C148 N20 O56"
_cell_length_a       13.067502819213823
_cell_length_b       18.326335494000226
_cell_length_c       21.536472547813
_cell_angle_alpha    89.99998914805735
_cell_angle_beta     101.42203825303422
_cell_angle_gamma    89.99998796811165

_space_group_name_H-M_alt    "P 1"
_space_group_IT_number       1

loop_
  _space_group_symop_operation_xyz
  'x, y, z'

loop_
  _atom_site_type_symbol
  _atom_site_label
  _atom_site_symmetry_multiplicity
  _atom_site_fract_x
  _atom_site_fract_y
  _atom_site_fract_z
  _atom_site_occupancy
  Ni  Ni1       1.0  0.7819739723047973  0.7199114448158214  0.12754632260838153  1.0000
  Ni  Ni2       1.0  0.7180257695456334  0.2199118451506337  0.37245379136535933  1.0000
  Ni  Ni3       1.0  0.21802560238425167  0.2800886148797376  0.8724535524597032  1.0000
  Ni  Ni4       1.0  0.28197380514341575  0.780088214544925  0.6275460837027185  1.0000
  Ni  Ni5       1.0  0.9895539673178606  0.7786596622512008  0.21195277919913022  1.0000
  Ni  Ni6       1.0  0.5104457545074227  0.2786595668628209  0.2880468585508354  1.0000
  Ni  Ni7       1.0  0.010445608512675602  0.22134039744440764  0.7880466316780145  1.0000
  Ni  Ni8       1.0  0.4895546009001208  0.7213399471698381  0.7119531110070414  1.0000
  Ni  Ni9       1.0  0.9925570067977462  0.6192360802634481  0.2340793519989149  1.0000
  Ni  Ni10      1.0  0.5074427713256568  0.11923599024026998  0.2659207825953375  1.0000
  Ni  Ni11      1.0  0.0074425678912959006  0.3807639794321105  0.7659205230691628  1.0000
  Ni  Ni12      1.0  0.4925575829403002  0.8807640694551677  0.7340796511534224  1.0000
  Ni  Ni13      1.0  0.11067449232843532  0.6469405517862441  0.12328895389643445  1.0000
  Ni  Ni14      1.0  0.3893256330039421  0.1469409254334479  0.37671076869040837  1.0000
  Ni  Ni15      1.0  0.8893250823607062  0.3530589622464859  0.8767109211717002  1.0000
  Ni  Ni16      1.0  0.6106747224035018  0.8530591342620397  0.6232892008674115  1.0000
  H   H1        1.0  0.0110967772057009  0.7623727097726913  0.9503466595104373  1.0000
  H   H2        1.0  0.48890341742328053  0.26237259542750735  0.5496530747702908  1.0000
  H   H3        1.0  0.9889027974834406  0.23762680426003874  0.04965321555769722  1.0000
  H   H4        1.0  0.511097719844166  0.7376269186051445  0.45034652508638845  1.0000
  H   H5        1.0  0.9475883465349428  0.846219199291852  0.8587146704178681  1.0000
  H   H6        1.0  0.5524122414120498  0.3462191301905122  0.6412855475119346  1.0000
  H   H7        1.0  0.0524120077310144  0.153780860403586  0.14128576333088463  1.0000
  H   H8        1.0  0.4475865536999848  0.6537814751679888  0.3587137688754113  1.0000
  H   H9        1.0  0.8478472667851162  0.9577363165787388  0.8747442728676165  1.0000
  H   H10       1.0  0.652153280982759  0.45773623604869573  0.6252559222211077  1.0000
  H   H11       1.0  0.15215464891754493  0.04226428877938561  0.1252563498605639  1.0000
  H   H12       1.0  0.3478455129877815  0.5422643693097626  0.37474385835717783  1.0000
  H   H13       1.0  0.8081243936846718  0.9847602592085565  0.9807362426720733  1.0000
  H   H14       1.0  0.6918753647697783  0.48475965058563725  0.5192633882009403  1.0000
  H   H15       1.0  0.19187596172267266  0.015240346149752802  0.019263726885689912  1.0000
  H   H16       1.0  0.30812420877767716  0.5152409547726933  0.4807369510580132  1.0000
  H   H17       1.0  0.8627938419742874  0.8965916112799874  0.0700294088887503  1.0000
  H   H18       1.0  0.6372058362191523  0.3965914653235956  0.42997066889717683  1.0000
  H   H19       1.0  0.1372065122916695  0.10340844841545051  0.9299710248600095  1.0000
  H   H20       1.0  0.36279373846969076  0.6034096856976134  0.5700292061707943  1.0000
  H   H21       1.0  0.8471378903927231  0.9717468211917292  0.2816233396594186  1.0000
  H   H22       1.0  0.6528625425825112  0.47174671987440314  0.21837635303190692  1.0000
  H   H23       1.0  0.1528624661562148  0.028253238503815198  0.7183761657074614  1.0000
  H   H24       1.0  0.3471378128249327  0.5282533398210844  0.7816236165259128  1.0000
  H   H25       1.0  0.7346441901793881  0.0748632133511364  0.30681236920226956  1.0000
  H   H26       1.0  0.7653556039313258  0.5748633465985263  0.19318777448047098  1.0000
  H   H27       1.0  0.26535538450975343  0.9251363006816006  0.693187505865865  1.0000
  H   H28       1.0  0.23464475147612518  0.4251367130969612  0.8068121950773491  1.0000
  H   H29       1.0  0.4840449738057089  0.0070870134647976  0.17054725826645276  1.0000
  H   H30       1.0  0.0159544200554222  0.5070871539286586  0.32945286266660645  1.0000
  H   H31       1.0  0.515954600883333  0.992913046230761  0.8294526168016318  1.0000
  H   H32       1.0  0.98404515463362  0.4929129057669002  0.6705470124014783  1.0000
  H   H33       1.0  0.585726650048258  0.9001684440919959  0.14049754067072945  1.0000
  H   H34       1.0  0.914273026856371  0.4001688178119096  0.3595025363825286  1.0000
  H   H35       1.0  0.41427292464078386  0.0998316156035628  0.8595023343973484  1.0000
  H   H36       1.0  0.08572654783257148  0.5998317875464778  0.6404973386854922  1.0000
  H   H37       1.0  0.39732584322953096  0.6411521441939456  0.0765044610477545  1.0000
  H   H38       1.0  0.10267428304697998  0.1411520048648356  0.4234957269156683  1.0000
  H   H39       1.0  0.6026745110365184  0.3588473698386636  0.923495972701055  1.0000
  H   H40       1.0  0.8973260712190693  0.8588475091677736  0.5765047068331415  1.0000
  H   H41       1.0  0.5856168250254186  0.63770681623091  0.06513387380741881  1.0000
  H   H42       1.0  0.9143829464430764  0.13770662753434945  0.43486625700364107  1.0000
  H   H43       1.0  0.41438352924053845  0.3622932434645351  0.934866559941341  1.0000
  H   H44       1.0  0.08561662824596537  0.8622934321612091  0.5651336180644365  1.0000
  H   H45       1.0  0.6819672740448084  0.7355539560328027  0.24016463242823965  1.0000
  H   H46       1.0  0.8180332428881841  0.23555382068696668  0.25983557283137065  1.0000
  H   H47       1.0  0.31803308022104204  0.264446649325464  0.7598358013204561  1.0000
  H   H48       1.0  0.18196711137776592  0.7644462390084712  0.740164860917382  1.0000
  H   H49       1.0  0.4993423160438297  0.7364532198155516  0.260653190577628  1.0000
  H   H50       1.0  0.0006577758961156997  0.23645313671365634  0.23934697786609158  1.0000
  H   H51       1.0  0.5006580382221202  0.2635468398798864  0.7393472431711245  1.0000
  H   H52       1.0  0.9993425795114277  0.7635463773190095  0.7606529916917851  1.0000
  H   H53       1.0  0.20619759849919464  0.8161440096168917  0.3854586520959489  1.0000
  H   H54       1.0  0.29380324772981237  0.3161444558427675  0.11454066613321602  1.0000
  H   H55       1.0  0.7938027580498428  0.1838555044158241  0.6145408532709952  1.0000
  H   H56       1.0  0.7061971076776389  0.68385560385272  0.885459303424604  1.0000
  H   H57       1.0  0.2988235064633997  0.8334442299949316  0.49832651694509195  1.0000
  H   H58       1.0  0.20117577095420106  0.33344416954371064  0.001673072952122808  1.0000
  H   H59       1.0  0.7011760682256422  0.1665558297006271  0.5016733581229859  1.0000
  H   H60       1.0  0.7988238037349403  0.6665553444890263  0.9983268021160187  1.0000
  H   H61       1.0  0.12279702294444661  0.6734406172705716  0.5619270775486598  1.0000
  H   H62       1.0  0.3772032037262818  0.1734409791119447  0.9380726749472077  1.0000
  H   H63       1.0  0.8772041131815058  0.3265588967620231  0.4380729864989519  1.0000
  H   H64       1.0  0.6227963709627602  0.8265590805836142  0.061927200120869906  1.0000
  H   H65       1.0  0.029391287588303804  0.6441118054729245  0.4505087259908649  1.0000
  H   H66       1.0  0.4706080580449381  0.14411169391302536  0.049490902685676026  1.0000
  H   H67       1.0  0.9706082871007381  0.3558882542226343  0.5494911490772127  1.0000
  H   H68       1.0  0.5293915166441039  0.8558883657825331  0.9505089723824086  1.0000
  H   H69       1.0  0.17583194038749636  0.4194411438099622  0.31274245985051863  1.0000
  H   H70       1.0  0.32416808448127904  0.9194407238734068  0.18725813530434016  1.0000
  H   H71       1.0  0.824168413878361  0.5805594615482973  0.6872579738981843  1.0000
  H   H72       1.0  0.6758314902077631  0.0805593358221515  0.8127417397637375  1.0000
  H   H73       1.0  0.31229384442183766  0.32125674439035373  0.34032609370913053  1.0000
  H   H74       1.0  0.1877054351038367  0.8212568967494747  0.15967442706618584  1.0000
  H   H75       1.0  0.6877057291257103  0.6787433153051552  0.65967424554988  1.0000
  H   H76       1.0  0.8122941384437112  0.1787431629460343  0.8403259121928317  1.0000
  H   H77       1.0  0.4947088824854974  0.4138911930198077  0.22481224718245585  1.0000
  H   H78       1.0  0.0052911443828947  0.9138908014746936  0.27518834910914347  1.0000
  H   H79       1.0  0.5052914717804525  0.58610886667563  0.7751881865662968  1.0000
  H   H80       1.0  0.9947092098831546  0.08610871255791609  0.7248120846396662  1.0000
  H   H81       1.0  0.36614250054599745  0.5155651061115876  0.19273762170139724  1.0000
  H   H82       1.0  0.1338568914019618  0.015565533572939202  0.30726203330420543  1.0000
  H   H83       1.0  0.6338570741431441  0.48443440792114256  0.8072622533667444  1.0000
  H   H84       1.0  0.8661434640054892  0.9844345261225486  0.6927379362536145  1.0000
  H   H85       1.0  0.7303689056880813  0.549863717811242  0.9954275217342357  1.0000
  H   H86       1.0  0.76963100945747  0.0498641920919169  0.5045721982147668  1.0000
  H   H87       1.0  0.2696306690010601  0.45013579622148814  0.004572353333898603  1.0000
  H   H88       1.0  0.23036934594997402  0.9501358676035778  0.49542777134305294  1.0000
  H   H89       1.0  0.7396359230788577  0.45759978212605296  0.9102201160808009  1.0000
  H   H90       1.0  0.7603630633013554  0.9575999390889434  0.5897798900563772  1.0000
  H   H91       1.0  0.2603636516102839  0.5423997319066771  0.0897797589873335  1.0000
  H   H92       1.0  0.23963651138768677  0.0424001206066151  0.41021998501170037  1.0000
  H   H93       1.0  0.0092608587663534  0.36716450825650776  0.013488674541669403  1.0000
  H   H94       1.0  0.49073918607887623  0.8671645424915583  0.4865114671295745  1.0000
  H   H95       1.0  0.9907394954995964  0.6328355514389301  0.9865117592070834  1.0000
  H   H96       1.0  0.5092603886101729  0.13283551720400058  0.5134884079385033  1.0000
  H   H97       1.0  0.0163700523628307  0.45947591508015495  0.1013694662433409  1.0000
  H   H98       1.0  0.48362996036449607  0.9594759699005807  0.39863019232961977  1.0000
  H   H99       1.0  0.9836295223263108  0.5405235989525823  0.8986304088248009  1.0000
  H   H100      1.0  0.516370395042955  0.0405240897949071  0.6013697772281932  1.0000
  H   H101      1.0  0.8501306059348506  0.7064215497167368  0.25015720097686517  1.0000
  H   H102      1.0  0.6498691419175131  0.20642144186104613  0.24984245156900198  1.0000
  H   H103      1.0  0.1498689687542907  0.2935779643160004  0.7498426740912695  1.0000
  H   H104      1.0  0.35013121349003734  0.7935780721716128  0.7501575179888678  1.0000
  H   H105      1.0  0.16032499102102804  0.7003893016069895  0.22681789906390296  1.0000
  H   H106      1.0  0.33967511505409936  0.2003891600448284  0.27318181257555113  1.0000
  H   H107      1.0  0.8396745836680138  0.29961075808856924  0.7731819760041747  1.0000
  H   H108      1.0  0.6603252403533515  0.7996108996506591  0.7268181569822689  1.0000
  C   C1        1.0  0.9393824356169062  0.8243311206801777  0.01510584015009188  1.0000
  C   C2        1.0  0.5606172686115728  0.324331519698319  0.48489425243627  1.0000
  C   C3        1.0  0.060617918649050785  0.17566893901526018  0.9848945935986679  1.0000
  C   C4        1.0  0.43938230721876437  0.6756696313229469  0.5151051584407611  1.0000
  C   C5        1.0  0.9651698808117145  0.8107740213841552  0.9558995395196422  1.0000
  C   C6        1.0  0.5348299391876097  0.31077397650823707  0.544100591180346  1.0000
  C   C7        1.0  0.03483047345433481  0.18922549264846109  0.04410089422916741  1.0000
  C   C8        1.0  0.465168075206023  0.6892266288503353  0.4558986307172648  1.0000
  C   C9        1.0  0.9312266490703323  0.8581359257756488  0.9053965788865385  1.0000
  C   C10       1.0  0.568772374287704  0.35813641024591186  0.5946029834319974  1.0000
  C   C11       1.0  0.0687737051957242  0.1418635882569603  0.09460385486227814  1.0000
  C   C12       1.0  0.43122564124731616  0.6418647407755386  0.4053957742746236  1.0000
  C   C13       1.0  0.8743789356930235  0.9206721627990223  0.9142696324713314  1.0000
  C   C14       1.0  0.6256208458519837  0.42067209503414194  0.5857300115282413  1.0000
  C   C15       1.0  0.1256229800096378  0.07932844255910251  0.08573099025684881  1.0000
  C   C16       1.0  0.37437560710453976  0.5793301473130441  0.41426902138972116  1.0000
  C   C17       1.0  0.8511058443184041  0.9354421593051254  0.973646074094447  1.0000
  C   C18       1.0  0.6488947114819511  0.4354421012293486  0.5263541255605875  1.0000
  C   C19       1.0  0.1488968509611723  0.0645584460528781  0.026355107314401507  1.0000
  C   C20       1.0  0.3511025210515798  0.5645595954548952  0.4736454660381072  1.0000
  C   C21       1.0  0.8821073519795488  0.8869835839440939  0.023738651826079076  1.0000
  C   C22       1.0  0.6178931103940286  0.3869834306095115  0.47626152241751646  1.0000
  C   C23       1.0  0.11789534444142191  0.11301756707678831  0.9762620653917796  1.0000
  C   C24       1.0  0.382105684718006  0.6130171747489896  0.5237377939698364  1.0000
  C   C25       1.0  0.7852562709922494  0.8623698135015302  0.19487706775205282  1.0000
  C   C26       1.0  0.7147426388127444  0.36236968361997407  0.3051229225534869  1.0000
  C   C27       1.0  0.21474330483828652  0.13763024619407818  0.8051223431250919  1.0000
  C   C28       1.0  0.2852569358763972  0.637629830412763  0.6948769525146475  1.0000
  C   C29       1.0  0.7241463653152351  0.9276218141018119  0.20936991589799453  1.0000
  C   C30       1.0  0.7758533016980634  0.4276222239183268  0.29063015553222743  1.0000
  C   C31       1.0  0.2758539900922088  0.0723782455936828  0.7906300536598252  1.0000
  C   C32       1.0  0.2241462729908861  0.5723783814400605  0.7093697195358006  1.0000
  C   C33       1.0  0.7669219983893427  0.9779259158831195  0.2561165394021857  1.0000
  C   C34       1.0  0.7330784312181037  0.4779257968465842  0.24388361621447535  1.0000
  C   C35       1.0  0.23307835701810123  0.0220741438123682  0.7438834301556343  1.0000
  C   C36       1.0  0.2669211434709382  0.5220742628489746  0.7561162588536094  1.0000
  C   C37       1.0  0.7050548326022862  0.034847582015025594  0.2702591869240579  1.0000
  C   C38       1.0  0.7949449770673668  0.5348477026980092  0.2297405007638035  1.0000
  C   C39       1.0  0.29494552280525715  0.9651519320176408  0.7297407826338188  1.0000
  C   C40       1.0  0.20505459762177475  0.4651518113347279  0.770259374304331  1.0000
  C   C41       1.0  0.5646532364562377  0.9967327529516865  0.19362241355722895  1.0000
  C   C42       1.0  0.9353464067982884  0.49673258964023886  0.30637717952671306  1.0000
  C   C43       1.0  0.4353463393742985  0.0032673067439219004  0.806376997319916  1.0000
  C   C44       1.0  0.06465316789085308  0.5032669243924988  0.6936226955414215  1.0000
  C   C45       1.0  0.6212718371273879  0.9382567938604461  0.17724686063061773  1.0000
  C   C46       1.0  0.8787278260541741  0.4382571810833936  0.32275320862132884  1.0000
  C   C47       1.0  0.37872773756165395  0.061743265835112  0.8227530144374599  1.0000
  C   C48       1.0  0.12127174863486799  0.5617428786121648  0.6772466664467489  1.0000
  C   C49       1.0  0.3213484343868487  0.6951263770249483  0.17759966582540446  1.0000
  C   C50       1.0  0.17865089172458679  0.19512624873006254  0.3224004165932044  1.0000
  C   C51       1.0  0.6786511391606994  0.3048736826705607  0.8224006734336129  1.0000
  C   C52       1.0  0.8213486829644622  0.8048738109654963  0.6775994584748801  1.0000
  C   C53       1.0  0.43396381412792095  0.6901264610105501  0.16936880423463663  1.0000
  C   C54       1.0  0.0660362945034549  0.1901258021481667  0.33063137369785534  1.0000
  C   C55       1.0  0.566036540138029  0.30987359868488795  0.8306316295141161  1.0000
  C   C56       1.0  0.9339640597625946  0.8098737118844496  0.6693690600509613  1.0000
  C   C57       1.0  0.45929760554297866  0.6609722461473807  0.1142150327076692  1.0000
  C   C58       1.0  0.040702513592535204  0.160971578843224  0.385785151196231  1.0000
  C   C59       1.0  0.5407019668631747  0.3390272678852497  0.8857857707423381  1.0000
  C   C60       1.0  0.9592978406736207  0.8390273895265635  0.6142152825526354  1.0000
  C   C61       1.0  0.5630110605023261  0.6596888401335548  0.10751770027709992  1.0000
  C   C62       1.0  0.9369887030461398  0.15968865745271194  0.3924824260315703  1.0000
  C   C63       1.0  0.4369892937637232  0.3403106738990615  0.8924827334717097  1.0000
  C   C64       1.0  0.06301165121981708  0.8403114022427257  0.6075180077171825  1.0000
  C   C65       1.0  0.6171907828880449  0.7135031843284593  0.20544848966716966  1.0000
  C   C66       1.0  0.882808961271344  0.213503031538437  0.2945516256191709  1.0000
  C   C67       1.0  0.38280879065950296  0.2864968753670496  0.7945518495918478  1.0000
  C   C68       1.0  0.11719139299470527  0.786496482494172  0.7054488081296386  1.0000
  C   C69       1.0  0.5159889895154066  0.7148929939163577  0.21654147446771793  1.0000
  C   C70       1.0  0.984010754143341  0.2148922827189423  0.28345864053401476  1.0000
  C   C71       1.0  0.48401136475054324  0.28510706577908  0.7834589592810348  1.0000
  C   C72       1.0  0.0159896001227082  0.7851072313136669  0.7165417932147948  1.0000
  C   C73       1.0  0.052803172692819096  0.7180966011649231  0.3426243638140179  1.0000
  C   C74       1.0  0.44719692586075155  0.2180975604893121  0.15737580838942483  1.0000
  C   C75       1.0  0.9471964019963225  0.2819029128678139  0.6573755112541237  1.0000
  C   C76       1.0  0.5528026488282975  0.7819024992062465  0.8426240666786526  1.0000
  C   C77       1.0  0.10897109158170788  0.7296477258309652  0.4097957834812008  1.0000
  C   C78       1.0  0.3910282232332277  0.22964816285106335  0.09020382767570112  1.0000
  C   C79       1.0  0.8910284842489274  0.2703517882018219  0.5902036273960009  1.0000
  C   C80       1.0  0.6089713514558143  0.7703518968444952  0.9097960473923765  1.0000
  C   C81       1.0  0.1862742300191513  0.7831985224999867  0.42346951389499327  1.0000
  C   C82       1.0  0.3137242836418608  0.2831984285107865  0.07653045599481352  1.0000
  C   C83       1.0  0.8137237820915855  0.21680153719565706  0.5765306363845398  1.0000
  C   C84       1.0  0.6862752910471811  0.7168016311847794  0.9234694190732714  1.0000
  C   C85       1.0  0.23696237655294544  0.7932681735436731  0.4858126891765482  1.0000
  C   C86       1.0  0.2630376960583193  0.29326810101704126  0.014187003439317912  1.0000
  C   C87       1.0  0.7630371992775905  0.20673188615193538  0.5141867217005966  1.0000
  C   C88       1.0  0.7369626593491247  0.7067319586784533  0.985812966118502  1.0000
  C   C89       1.0  0.13835071491546103  0.7034297038349778  0.5211627567818768  1.0000
  C   C90       1.0  0.36164950095043474  0.20342951329773476  0.9788369895716474  1.0000
  C   C91       1.0  0.861649641633477  0.29657035586056685  0.47883674858500325  1.0000
  C   C92       1.0  0.6383508544570162  0.7965705463977599  0.02116297998617261  1.0000
  C   C93       1.0  0.08685200654873879  0.6878592258091275  0.45974625457804325  1.0000
  C   C94       1.0  0.41314810289931353  0.18785967059838532  0.040253923818717396  1.0000
  C   C95       1.0  0.9131483477173107  0.31214028822348894  0.5402541791707736  1.0000
  C   C96       1.0  0.5868514717897284  0.8121403890971733  0.9597459512493673  1.0000
  C   C97       1.0  0.17996207118859792  0.5325652417059175  0.2261652901023511  1.0000
  C   C98       1.0  0.32003809421129864  0.03256510294973221  0.27383492010199023  1.0000
  C   C99       1.0  0.820038284218853  0.46743481798957026  0.7738346794554688  1.0000
  C   C100      1.0  0.6799622611961452  0.9674349567457551  0.7261650494558297  1.0000
  C   C101      1.0  0.26015737863357913  0.4746191150294548  0.24956665675309614  1.0000
  C   C102      1.0  0.23984262635472217  0.9746192393973916  0.2504339271000759  1.0000
  C   C103      1.0  0.7398429756323778  0.5253809446659832  0.7504337769956565  1.0000
  C   C104      1.0  0.7601577290527289  0.0253808202981034  0.7495660424577439  1.0000
  C   C105      1.0  0.24604201478533838  0.42015759605723696  0.2926302934654999  1.0000
  C   C106      1.0  0.253958009825304  0.9201571822049317  0.2073703015426105  1.0000
  C   C107      1.0  0.7539583394805192  0.5798430093010226  0.707370140283196  1.0000
  C   C108      1.0  0.7460415648637378  0.07984287749062702  0.7926295735254741  1.0000
  C   C109      1.0  0.3215933576937857  0.3658139365634057  0.30826739591463354  1.0000
  C   C110      1.0  0.17840590691962893  0.8658140832003198  0.19173265154348942  1.0000
  C   C111      1.0  0.6784062169952636  0.6341861231321531  0.6917324791534513  1.0000
  C   C112      1.0  0.8215936666279261  0.13418597649518918  0.8082676877155281  1.0000
  C   C113      1.0  0.42331654764650045  0.41774084756291774  0.24329593638345418  1.0000
  C   C114      1.0  0.07668347897627832  0.9177409950571019  0.2567041949286662  1.0000
  C   C115      1.0  0.5766838077609436  0.5822592121325768  0.7567040331743657  1.0000
  C   C116      1.0  0.9233168764312722  0.08225851897556419  0.7432957746292107  1.0000
  C   C117      1.0  0.3519546986401353  0.47333680315863796  0.2255605344903061  1.0000
  C   C118      1.0  0.14804452723326728  0.9733369359901969  0.274439490944836  1.0000
  C   C119      1.0  0.6480456567672164  0.5266638021996712  0.774439435067457  1.0000
  C   C120      1.0  0.8519550474557746  0.026663123705361592  0.7255603841232416  1.0000
  C   C121      1.0  0.8823876503145343  0.5755710728364107  0.10000522246993883  1.0000
  C   C122      1.0  0.6176129254011825  0.07557039081880387  0.3999945513667102  1.0000
  C   C123      1.0  0.1176127062343042  0.4244295325219554  0.8999942828968915  1.0000
  C   C124      1.0  0.38238743114786183  0.9244291232139116  0.6000049540002338  1.0000
  C   C125      1.0  0.8751378109502639  0.5132443792692243  0.05407254055290171  1.0000
  C   C126      1.0  0.6248627872213887  0.013244231624014398  0.4459272460495286  1.0000
  C   C127      1.0  0.12486254445718709  0.48675568042626344  0.9459274290049183  1.0000
  C   C128      1.0  0.37513756818615457  0.9867552824086444  0.554072723508348  1.0000
  C   C129      1.0  0.7938856707258212  0.5104604195440743  0.0009074670146204865  1.0000
  C   C130      1.0  0.7061141477303748  0.0104607935443966  0.49909222566822115  1.0000
  C   C131      1.0  0.20611468468172228  0.4895390944885916  0.9990925025432492  1.0000
  C   C132      1.0  0.29388542695866693  0.9895392661511621  0.5009076493998564  1.0000
  C   C133      1.0  0.7978607161480581  0.4592444006499504  0.9539527299237491  1.0000
  C   C134      1.0  0.7021390503580136  0.9592445760748874  0.5460473703663169  1.0000
  C   C135      1.0  0.20213964040088683  0.5407556590455869  0.046046775443137705  1.0000
  C   C136      1.0  0.29786052318954154  0.04075548362062161  0.45395296889269343  1.0000
  C   C137      1.0  0.949933695727303  0.40941620168492676  0.011392739648968603  1.0000
  C   C138      1.0  0.5500667597053522  0.9094163016768633  0.48860696580898394  1.0000
  C   C139      1.0  0.050066659680147986  0.5905838580105681  0.9886072299088515  1.0000
  C   C140      1.0  0.4499335957020988  0.09058375801862438  0.511393003748836  1.0000
  C   C141      1.0  0.9526367558919447  0.45954569414227114  0.06021859393799642  1.0000
  C   C142      1.0  0.5473629007608665  0.9595458053839605  0.4397810067626225  1.0000
  C   C143      1.0  0.047363599515605904  0.5404538198903952  0.9397813756198802  1.0000
  C   C144      1.0  0.4526366739281755  0.04045425431159799  0.560218868305455  1.0000
  C   C145      1.0  0.971042443037426  0.7717052068812078  0.06835524672203525  1.0000
  C   C146      1.0  0.528956499433626  0.2717050768201901  0.4316447621535531  1.0000
  C   C147      1.0  0.028956352074708005  0.2282948528144785  0.9316440696653744  1.0000
  C   C148      1.0  0.47104385483222433  0.7282955285380767  0.5683556715951499  1.0000
  N   N1        1.0  0.6049776081535043  0.0435449126217691  0.24038447284677741  1.0000
  N   N2        1.0  0.8950221983825558  0.5435450116308687  0.2596152130596821  1.0000
  N   N3        1.0  0.39502274725384723  0.9564556927365475  0.7596154967109854  1.0000
  N   N4        1.0  0.10497737630649341  0.45645504806469006  0.7403846620083956  1.0000
  N   N5        1.0  0.6411228369413422  0.6874603388616123  0.15153662714227076  1.0000
  N   N6        1.0  0.8588769166011759  0.1874601776949945  0.3484634934782066  1.0000
  N   N7        1.0  0.35887673660630537  0.31253917517106794  0.8484637121168037  1.0000
  N   N8        1.0  0.1411234376648807  0.8125393363376219  0.65153694027061  1.0000
  N   N9        1.0  0.21189197675461463  0.7557396635559002  0.5345339545767445  1.0000
  N   N10       1.0  0.2881074395459251  0.2557389413768973  0.9654656865728984  1.0000
  N   N11       1.0  0.7881075990758218  0.2442609418025299  0.4654654563003434  1.0000
  N   N12       1.0  0.7118921351432163  0.7442605726558397  0.03453418849523617  1.0000
  N   N13       1.0  0.4086354475517807  0.364054170147476  0.28363467569599987  1.0000
  N   N14       1.0  0.09136459841406722  0.8640543243940683  0.2163654666123023  1.0000
  N   N15       1.0  0.5913649067141762  0.6359458895479619  0.71636575805276  1.0000
  N   N16       1.0  0.9086357569933838  0.1359457353014193  0.7836345029455176  1.0000
  N   N17       1.0  0.8764711844720594  0.41088830041766033  0.9577816520933953  1.0000
  N   N18       1.0  0.6235286005979859  0.9108884885062167  0.542217993910093  1.0000
  N   N19       1.0  0.12352839135857609  0.5891112136151265  0.0422177587838064  1.0000
  N   N20       1.0  0.37647097409105607  0.08911157118934201  0.4577818811579847  1.0000
  O   O1        1.0  0.878272423212117  0.6979201249946101  0.21226203999763274  1.0000
  O   O2        1.0  0.6217273277032688  0.1979200129520109  0.2877376142895117  1.0000
  O   O3        1.0  0.12172793219533422  0.3020799347008776  0.7877379295601873  1.0000
  O   O4        1.0  0.37827224698577305  0.8020800467435478  0.712262260778566  1.0000
  O   O5        1.0  0.08715586405870111  0.6948000853834273  0.20343483294769274  1.0000
  O   O6        1.0  0.4128442440300972  0.19480047329553676  0.29656487983649543  1.0000
  O   O7        1.0  0.9128437106304405  0.30519942864930977  0.7965650421204418  1.0000
  O   O8        1.0  0.5871561113773538  0.8051995863999579  0.7034350897213246  1.0000
  O   O9        1.0  0.7369336746818932  0.8202266449324753  0.1518878698131801  1.0000
  O   O10       1.0  0.7630660310255025  0.32022649824189386  0.3481122236139172  1.0000
  O   O11       1.0  0.2630659000072484  0.1797728691002618  0.8481120052549546  1.0000
  O   O12       1.0  0.236934324382041  0.6797730157907721  0.6518877459439594  1.0000
  O   O13       1.0  0.876493632481278  0.854203413228305  0.22708914692866247  1.0000
  O   O14       1.0  0.6235052802659311  0.3542038498741249  0.27291084504947355  1.0000
  O   O15       1.0  0.12350672635054852  0.1457971921301606  0.7729094300562952  1.0000
  O   O16       1.0  0.37649429442311083  0.6457962098214338  0.7270890300186041  1.0000
  O   O17       1.0  0.3038236525363445  0.704435380061966  0.2323222858652444  1.0000
  O   O18       1.0  0.1961764509395891  0.20443471562370522  0.26767788913647916  1.0000
  O   O19       1.0  0.6961759210112036  0.2955646796335428  0.7676780533937733  1.0000
  O   O20       1.0  0.8038239044679543  0.7955647984089609  0.7323220804213976  1.0000
  O   O21       1.0  0.2545081865547516  0.6893019828597033  0.1252952343659217  1.0000
  O   O22       1.0  0.24549114165518657  0.1893018329043556  0.37470484924564573  1.0000
  O   O23       1.0  0.7454913869927964  0.31069807683579853  0.8747051048930957  1.0000
  O   O24       1.0  0.7545092137523569  0.8106976811283103  0.6252951203122238  1.0000
  O   O25       1.0  0.03874981748217721  0.7752564239092121  0.30869905378084184  1.0000
  O   O26       1.0  0.46124947975885533  0.2752557365990285  0.19130101222548038  1.0000
  O   O27       1.0  0.961249757206666  0.22474472711199675  0.6913008212871292  1.0000
  O   O28       1.0  0.5387508745071017  0.7247443230964095  0.8086994215232725  1.0000
  O   O29       1.0  0.0259255701736549  0.6529952102508219  0.3269134443299394  1.0000
  O   O30       1.0  0.4740745529774486  0.15299452505858105  0.17308627701688556  1.0000
  O   O31       1.0  0.9740747863751907  0.3470053951075442  0.6730860610368838  1.0000
  O   O32       1.0  0.5259258024299953  0.8470055346369065  0.8269136925409344  1.0000
  O   O33       1.0  0.1115301853420974  0.545308652820495  0.2589942645804868  1.0000
  O   O34       1.0  0.3884691947478984  0.04530905673438209  0.2410058485239334  1.0000
  O   O35       1.0  0.8884693893470441  0.4546908612122349  0.7410056104876477  1.0000
  O   O36       1.0  0.6115303787996496  0.9546910029611196  0.7589944907350842  1.0000
  O   O37       1.0  0.1893834549894606  0.5624877590879083  0.1744008226231699  1.0000
  O   O38       1.0  0.3106166996294917  0.0624876102514307  0.3255993814523991  1.0000
  O   O39       1.0  0.8106169004179904  0.43751230060757973  0.82559914693465  1.0000
  O   O40       1.0  0.6893828750596497  0.9375119037812994  0.6744004936157354  1.0000
  O   O41       1.0  0.8024756335370781  0.6161673022493943  0.09510358289666951  1.0000
  O   O42       1.0  0.6975257082703049  0.1161671527971393  0.40489627711468773  1.0000
  O   O43       1.0  0.19752550258877477  0.3838327574460294  0.9048964811508926  1.0000
  O   O44       1.0  0.3024754278556471  0.8838323612354559  0.5951037869329314  1.0000
  O   O45       1.0  0.9692478412460303  0.5836015817927346  0.13886141923626383  1.0000
  O   O46       1.0  0.5307527304347346  0.0836014671202321  0.3611388171464328  1.0000
  O   O47       1.0  0.030753294879822604  0.4163984779026889  0.861138644811291  1.0000
  O   O48       1.0  0.4692484045497238  0.9163980469123134  0.6388617110921119  1.0000
  O   O49       1.0  0.9245154794747704  0.7769233787078065  0.11577929462762172  1.0000
  O   O50       1.0  0.5754842418346013  0.2769232521870181  0.3842208076689105  1.0000
  O   O51       1.0  0.07548409521427858  0.2230766809877522  0.8842205804404557  1.0000
  O   O52       1.0  0.42451611357274294  0.7230773531712984  0.6157791618888596  1.0000
  O   O53       1.0  0.0405191189706287  0.7251269529379768  0.0633522916988909  1.0000
  O   O54       1.0  0.45947941561313843  0.22512784839443614  0.43664769008511684  1.0000
  O   O55       1.0  0.9594796738587094  0.2748720154319528  0.936647953070498  1.0000
  O   O56       1.0  0.5405209397943125  0.7748722113010515  0.5633522794727029  1.0000
