data_image0
_chemical_formula_structural       Mg4H32C16N8O24
_chemical_formula_sum              "Mg4 H32 C16 N8 O24"
_cell_length_a       8.460121564019763
_cell_length_b       8.644003294281337
_cell_length_c       12.122937539982669
_cell_angle_alpha    90.9192975084577
_cell_angle_beta     90.00022914131874
_cell_angle_gamma    89.99990015346144

_space_group_name_H-M_alt    "P 1"
_space_group_IT_number       1

loop_
  _space_group_symop_operation_xyz
  'x, y, z'

loop_
  _atom_site_type_symbol
  _atom_site_label
  _atom_site_symmetry_multiplicity
  _atom_site_fract_x
  _atom_site_fract_y
  _atom_site_fract_z
  _atom_site_occupancy
  Mg  Mg1       1.0  2.5549085340000013e-07  5.903385086998253e-07  0.4999995114420202  1.0000
  Mg  Mg2       1.0  0.499999236534279  7.709717167000119e-07  0.999999713581559  1.0000
  Mg  Mg3       1.0  0.500000898745327  0.5000005054155494  0.4999999404663527  1.0000
  Mg  Mg4       1.0  0.999999368804687  0.499999506475973  2.9485227769973913e-07  1.0000
  H   H1        1.0  0.8557313393408489  0.011340067322521501  0.8733539587196474  1.0000
  H   H2        1.0  0.35573221409958217  0.9886613616770747  0.6266449008981212  1.0000
  H   H3        1.0  0.14426927613369142  0.9886609435095441  0.1266459222114307  1.0000
  H   H4        1.0  0.6442684013759604  0.011338492135209304  0.3733549660095292  1.0000
  H   H5        1.0  0.7951396375069065  0.7043717114390375  0.5473452498410226  1.0000
  H   H6        1.0  0.29513653202617707  0.29562634028256  0.9526575246462556  1.0000
  H   H7        1.0  0.2048597959501421  0.29562814347844585  0.4526537921954202  1.0000
  H   H8        1.0  0.7048629014308715  0.7043735146349235  0.04734151739018699  1.0000
  H   H9        1.0  0.633161819000513  0.5385435835268525  0.8233157448907704  1.0000
  H   H10       1.0  0.13316037666489683  0.4614558928749731  0.6766849463712391  1.0000
  H   H11       1.0  0.3668387964750224  0.46145627028543157  0.17668412201688  1.0000
  H   H12       1.0  0.8668390567945323  0.5385439609382845  0.3233149205347843  1.0000
  H   H13       1.0  0.5490651863476046  0.2884788206521308  0.8387802938471225  1.0000
  H   H14       1.0  0.0490667546919212  0.7115219505867003  0.661220179100539  1.0000
  H   H15       1.0  0.45093424711182445  0.7115210331611268  0.1612195730588937  1.0000
  H   H16       1.0  0.9509338607849926  0.2884790591411318  0.33878052670011266  1.0000
  H   H17       1.0  0.4767159487043314  0.2828627942501926  0.6994908545909767  1.0000
  H   H18       1.0  0.976716941054967  0.7171372794568854  0.8005083252594574  1.0000
  H   H19       1.0  0.5232846667688306  0.7171370606663245  0.3005081874471003  1.0000
  H   H20       1.0  0.023283674421563195  0.2828614173356244  0.19949152762476527  1.0000
  H   H21       1.0  0.7196247103990956  0.21840027810757331  0.5829788088558701  1.0000
  H   H22       1.0  0.21962289643440863  0.7815990577012075  0.9170212964154771  1.0000
  H   H23       1.0  0.28037590507980076  0.7815984175807102  0.4170218688979261  1.0000
  H   H24       1.0  0.7803765370226401  0.21840079721627598  0.08297774562096549  1.0000
  H   H25       1.0  0.06031662755780328  0.18290361898633026  0.7146633903132127  1.0000
  H   H26       1.0  0.5603161721926995  0.817095977899463  0.785336274824104  1.0000
  H   H27       1.0  0.9396839879167445  0.817097391845728  0.2853364906178655  1.0000
  H   H28       1.0  0.43968326126672946  0.1829038759137944  0.2146635920819122  1.0000
  H   H29       1.0  0.9755864931783835  0.1776337962557407  0.8909252979683444  1.0000
  H   H30       1.0  0.4755863817757202  0.822367435218773  0.6090747176531082  1.0000
  H   H31       1.0  0.024412940280050997  0.8223672145772911  0.1090745829610995  1.0000
  H   H32       1.0  0.5244130516837087  0.17763241859448445  0.390925149252908  1.0000
  C   C1        1.0  0.7269654408858555  0.7704062508135081  0.4859938821376275  1.0000
  C   C2        1.0  0.22695874903583044  0.22958957714788403  0.0140080173473152  1.0000
  C   C3        1.0  0.27303399257257877  0.22959476001952342  0.5140059987918164  1.0000
  C   C4        1.0  0.7730418664387102  0.7704114336841743  0.9859918635837631  1.0000
  C   C5        1.0  0.7796637855609276  0.2784985668467713  0.5142505069483221  1.0000
  C   C6        1.0  0.2796636560962257  0.7214995146515264  0.9857489253081438  1.0000
  C   C7        1.0  0.22033682991560258  0.7215001299457383  0.4857493459359077  1.0000
  C   C8        1.0  0.7203345953480778  0.27849918214292296  0.0142509275728173  1.0000
  C   C9        1.0  0.9772326755858671  0.0901208831269074  0.7364372126462015  1.0000
  C   C10       1.0  0.47723093222666074  0.9098780316115838  0.7635627794742134  1.0000
  C   C11       1.0  0.022767939892041497  0.9098789695811507  0.2635634791310224  1.0000
  C   C12       1.0  0.5227685012337557  0.0901206651818924  0.2364370734083749  1.0000
  C   C13       1.0  0.5765194436094633  0.48534048140206204  0.7499994650343639  1.0000
  C   C14       1.0  0.076518327857741  0.514659088930692  0.750000244867131  1.0000
  C   C15       1.0  0.42348235388219274  0.5146593724092555  0.2500004018749209  1.0000
  C   C16       1.0  0.9234822876177942  0.4853407648815989  0.2499996220405194  1.0000
  N   N1        1.0  0.9344605417978469  0.09061565855684962  0.841372386388322  1.0000
  N   N2        1.0  0.4344593779547167  0.9093856403167779  0.6586275156090124  1.0000
  N   N3        1.0  0.06553889166058717  0.9093853522761819  0.15862749454112188  1.0000
  N   N4        1.0  0.5655400555047123  0.0906142134964796  0.34137235129700366  1.0000
  N   N5        1.0  0.5307507664914366  0.34046555677912244  0.7637174533336903  1.0000
  N   N6        1.0  0.030750495231167494  0.659534087455576  0.7362829549889797  1.0000
  N   N7        1.0  0.46924984898409855  0.6595342970331688  0.23628241357396013  1.0000
  N   N8        1.0  0.9692501202467411  0.3404657652524818  0.2637177367882444  1.0000
  O   O1        1.0  0.7850518664096667  0.8962519729467786  0.4519329751189858  1.0000
  O   O2        1.0  0.2850479591147845  0.10375070083325262  0.0480699938609348  1.0000
  O   O3        1.0  0.2149487490648809  0.10374903788528662  0.5480669058120853  1.0000
  O   O4        1.0  0.7149526563587685  0.8962514670185868  0.9519299010935711  1.0000
  O   O5        1.0  0.9063143958712131  0.21769932722757804  0.47725769763421505  1.0000
  O   O6        1.0  0.4063126775681951  0.7822985252645935  0.022741425930931303  1.0000
  O   O7        1.0  0.0936874016204428  0.7823005265837394  0.5227421692750696  1.0000
  O   O8        1.0  0.5936855738761153  0.21770017152985596  0.9772584269500298  1.0000
  O   O9        1.0  0.9305372992403491  0.9934309812440533  0.6649591067100644  1.0000
  O   O10       1.0  0.43053639756261924  0.0065691659348630005  0.8350415952946619  1.0000
  O   O11       1.0  0.06946331623755948  0.006568871464004601  0.3350415850671594  1.0000
  O   O12       1.0  0.569463035895815  0.9934318448981756  0.164958285634782  1.0000
  O   O13       1.0  0.7182022792306171  0.4000220090401713  0.4773588404780824  1.0000
  O   O14       1.0  0.2182008858528022  0.5999761495261782  0.0226414131110459  1.0000
  O   O15       1.0  0.2817995182610388  0.5999778447711465  0.5226410264312022  1.0000
  O   O16       1.0  0.7817985476076145  0.400022547267298  0.9773584397715425  1.0000
  O   O17       1.0  0.5947332566548765  0.7154950792633556  0.45442061886435425  1.0000
  O   O18       1.0  0.0947266483165379  0.284504435358528  0.04558178222985279  1.0000
  O   O19       1.0  0.4052673588159123  0.28450477675739444  0.5455775983041491  1.0000
  O   O20       1.0  0.9052739671589976  0.7154954184537631  0.9544180846777977  1.0000
  O   O21       1.0  0.5609555190203251  0.5608974323696075  0.6626981084756096  1.0000
  O   O22       1.0  0.060955040147490494  0.4391021634691726  0.8373015584268018  1.0000
  O   O23       1.0  0.4390450964552102  0.43910242144267647  0.3373017584320479  1.0000
  O   O24       1.0  0.9390455753266662  0.5608965344275705  0.1626974695878474  1.0000
