data_image0
_chemical_formula_structural       Zn2H24C12S6N4O16
_chemical_formula_sum              "Zn2 H24 C12 S6 N4 O16"
_cell_length_a       5.021718516659572
_cell_length_b       9.376196672128232
_cell_length_c       13.575713007513961
_cell_angle_alpha    90.00014957953407
_cell_angle_beta     95.11342666541485
_cell_angle_gamma    90.00054857868578

_space_group_name_H-M_alt    "P 1"
_space_group_IT_number       1

loop_
  _space_group_symop_operation_xyz
  'x, y, z'

loop_
  _atom_site_type_symbol
  _atom_site_label
  _atom_site_symmetry_multiplicity
  _atom_site_fract_x
  _atom_site_fract_y
  _atom_site_fract_z
  _atom_site_occupancy
  Zn  Zn1       1.0  0.10648748295000127  0.3228919138202073  0.3867010600985096  1.0000
  Zn  Zn2       1.0  0.893514752581055  0.8228955023212093  0.6132983476408994  1.0000
  H   H1        1.0  0.4390738781559236  0.4466173772732347  0.1335638958455334  1.0000
  H   H2        1.0  0.5609386869238548  0.9466264523215173  0.866438319948152  1.0000
  H   H3        1.0  0.6241406139406606  0.3245298636724385  0.06793483318322299  1.0000
  H   H4        1.0  0.3758616261083389  0.8245286015969173  0.9320608951778124  1.0000
  H   H5        1.0  0.47838419746270927  0.46652511767494786  0.687377657710911  1.0000
  H   H6        1.0  0.521602665801474  0.96652056466062  0.3126119927045039  1.0000
  H   H7        1.0  0.6878076684670588  0.31854344743190677  0.6715378908905831  1.0000
  H   H8        1.0  0.31218449430786416  0.818541079564966  0.32846192165477817  1.0000
  H   H9        1.0  0.9189663484241565  0.07402645868575772  0.33197647383106943  1.0000
  H   H10       1.0  0.0810312378597402  0.5740367561240519  0.6680237200769097  1.0000
  H   H11       1.0  0.03898883141596339  0.0589991167279251  0.4452121626268521  1.0000
  H   H12       1.0  0.9610024651221777  0.5590060681542683  0.5547863242382718  1.0000
  H   H13       1.0  0.6884977581976769  0.49833130451890634  0.41327746196416365  1.0000
  H   H14       1.0  0.31149778665240296  0.9983361235265065  0.586725057526337  1.0000
  H   H15       1.0  0.6626762530251326  0.38081462504390373  0.4909442588723465  1.0000
  H   H16       1.0  0.33730707410837363  0.8808246698008589  0.5090546689581785  1.0000
  H   H17       1.0  0.2244582090204759  0.5318701811162967  0.2841464381589347  1.0000
  H   H18       1.0  0.7755366146666701  0.0318731300404238  0.7158572592028491  1.0000
  H   H19       1.0  0.18002990123547846  0.6048870364358481  0.38532058433150235  1.0000
  H   H20       1.0  0.819962291016779  0.1048899009168096  0.6146831867307228  1.0000
  H   H21       1.0  0.537030636428966  0.28127575063646765  0.2769705432596226  1.0000
  H   H22       1.0  0.4629728348380126  0.7812785564693742  0.7230310238577431  1.0000
  H   H23       1.0  0.2831817805311303  0.18562964884986147  0.2337541394557761  1.0000
  H   H24       1.0  0.7168179267086713  0.6856370751576649  0.7662507833860062  1.0000
  C   C1        1.0  0.8608925623937508  0.44037292023810437  0.18266091120564448  1.0000
  C   C2        1.0  0.1391318396657653  0.9403679719824967  0.8173357770319638  1.0000
  C   C3        1.0  0.6302390695731076  0.431791971778786  0.1010736417197151  1.0000
  C   C4        1.0  0.36976716766638873  0.9317863111140314  0.8989209733396918  1.0000
  C   C5        1.0  0.8564012338191629  0.5043317564648505  0.9300672537520782  1.0000
  C   C6        1.0  0.1436050595692677  0.004331652060770402  0.06993527792714359  1.0000
  C   C7        1.0  0.17826094991619357  0.3844145369808842  0.8397445374013515  1.0000
  C   C8        1.0  0.8217504606834749  0.8843982422826714  0.16025898010325076  1.0000
  C   C9        1.0  0.4824577785399171  0.3492771558358783  0.68413791214801  1.0000
  C   C10       1.0  0.5175329499593814  0.8492757916844412  0.3158604477401141  1.0000
  C   C11       1.0  0.284486040599596  0.297063455733067  0.5998737897927882  1.0000
  C   C12       1.0  0.7155116970316228  0.7970644211424942  0.4001232082822739  1.0000
  S   S1        1.0  0.6182114385915084  0.5643028795836572  0.004915256391427601  1.0000
  S   S2        1.0  0.381793973171753  0.06430255227092371  0.9950866401656241  1.0000
  S   S3        1.0  0.039307654828327494  0.348452010531652  0.9501555237968231  1.0000
  S   S4        1.0  0.9607110536779617  0.8484542139248391  0.04984446646736271  1.0000
  S   S5        1.0  0.42471545645975783  0.27411451759457617  0.8021924624482892  1.0000
  S   S6        1.0  0.5752978770218816  0.7740960204473595  0.19780940481335557  1.0000
  N   N1        1.0  0.9024631652672993  0.5709493775375877  0.8479692887094501  1.0000
  N   N2        1.0  0.09753240050189758  0.07094395816251621  0.1520359901410089  1.0000
  N   N3        1.0  0.08602724246021148  0.5022135989914605  0.7957382404909409  1.0000
  N   N4        1.0  0.9139790320130812  0.0021986188485812  0.20426723243383543  1.0000
  O   O1        1.0  0.8230372483204884  0.36323185320389945  0.25819387345340056  1.0000
  O   O2        1.0  0.17697371890060506  0.8632407305631061  0.7418029545639654  1.0000
  O   O3        1.0  0.06334942236893679  0.5157564575594265  0.172223113176166  1.0000
  O   O4        1.0  0.9366709964782983  0.01575416798473841  0.8277681095251807  1.0000
  O   O5        1.0  0.06335338766567129  0.24620114607630944  0.6168309465807196  1.0000
  O   O6        1.0  0.9366314018495244  0.7462053149970557  0.38316552706562124  1.0000
  O   O7        1.0  0.3670606500889519  0.3139627089170959  0.5132923930917173  1.0000
  O   O8        1.0  0.6329214200329004  0.8139667199873487  0.4867056132975235  1.0000
  O   O9        1.0  0.9320941818767352  0.12189888222086863  0.397833636357511  1.0000
  O   O10       1.0  0.06789829239431099  0.621905711664006  0.6021650242448544  1.0000
  O   O11       1.0  0.8012317398069656  0.4421969639254472  0.4620119610959961  1.0000
  O   O12       1.0  0.1987567508863037  0.9422042609880638  0.5379894745959533  1.0000
  O   O13       1.0  0.2879591010142731  0.5295112881194798  0.3568568114076598  1.0000
  O   O14       1.0  0.7120396718491833  0.0295104923928307  0.6431462706357819  1.0000
  O   O15       1.0  0.37274577887768595  0.23081353519504688  0.29457525510515126  1.0000
  O   O16       1.0  0.6272587572454853  0.7308128548609576  0.7054277101732963  1.0000
