data_image0
_chemical_formula_structural       CoH28C30N10O8
_chemical_formula_sum              "Co1 H28 C30 N10 O8"
_cell_length_a       8.376546018132574
_cell_length_b       8.7071259665265
_cell_length_c       10.968628315471616
_cell_angle_alpha    78.04206903488476
_cell_angle_beta     75.06063341398529
_cell_angle_gamma    68.13738083399646

_space_group_name_H-M_alt    "P 1"
_space_group_IT_number       1

loop_
  _space_group_symop_operation_xyz
  'x, y, z'

loop_
  _atom_site_type_symbol
  _atom_site_label
  _atom_site_symmetry_multiplicity
  _atom_site_fract_x
  _atom_site_fract_y
  _atom_site_fract_z
  _atom_site_occupancy
  Co  Co1       1.0  0.4999998211381965  4.452794897010925e-07  3.683812792511858e-07  1.0000
  H   H1        1.0  0.9151903421464598  0.8531071730159495  0.9511608019339234  1.0000
  H   H2        1.0  0.0848077153655851  0.1468977407858532  0.048841026109300884  1.0000
  H   H3        1.0  0.2548871170752278  0.8081467227799166  0.17976612825600566  1.0000
  H   H4        1.0  0.7451097529207261  0.19185449437052426  0.8202337885869043  1.0000
  H   H5        1.0  0.5626224529351307  0.2297729906218748  0.5147779787947043  1.0000
  H   H6        1.0  0.43737821385219183  0.7702245360036032  0.48522080120405053  1.0000
  H   H7        1.0  0.1678052231082461  0.4456511346598333  0.06293079133610041  1.0000
  H   H8        1.0  0.8321923600295239  0.5543513894320711  0.9370669481747881  1.0000
  H   H9        1.0  0.5173845780382607  0.7863991427782082  0.8073620122837396  1.0000
  H   H10       1.0  0.48261387306632747  0.21360457107545022  0.19263809557166672  1.0000
  H   H11       1.0  0.03164744063764153  0.35101183668234626  0.45737650512579353  1.0000
  H   H12       1.0  0.9683521503803263  0.6489855595138609  0.542627081528117  1.0000
  H   H13       1.0  0.03177003047167658  0.9703327962377628  0.2616502772400864  1.0000
  H   H14       1.0  0.968233934506195  0.029665970084558096  0.7383494400106514  1.0000
  H   H15       1.0  0.5692693828929196  0.0402089579159153  0.3710918087352936  1.0000
  H   H16       1.0  0.43073078529358366  0.9597934989313613  0.628909045359599  1.0000
  H   H17       1.0  0.1644580586006582  0.5088411473182931  0.20551789333067208  1.0000
  H   H18       1.0  0.8355429277359292  0.4911588861967786  0.7944804295238869  1.0000
  H   H19       1.0  0.3534650759772049  0.5835612881219775  0.8375109891408385  1.0000
  H   H20       1.0  0.6465349993142909  0.4164412390331194  0.16248713754812627  1.0000
  H   H21       1.0  0.7625693314778914  0.9211579755590195  0.28914192747981815  1.0000
  H   H22       1.0  0.23743139723943332  0.0788395041945762  0.7108586707895553  1.0000
  H   H23       1.0  0.5309532701065366  0.7348440056453001  0.23081786598314114  1.0000
  H   H24       1.0  0.469047396680786  0.26515352098017797  0.7691809140156138  1.0000
  H   H25       1.0  0.8070575904462274  0.5309568399362092  0.29789572457757885  1.0000
  H   H26       1.0  0.19294378948291072  0.4690419936307251  0.7021008780891549  1.0000
  H   H27       1.0  0.7112974635783544  0.6531064043215055  0.6017277802341354  1.0000
  H   H28       1.0  0.28869656374961045  0.34689232631208  0.3982712974395923  1.0000
  C   C1        1.0  0.7887062647955149  0.3032846252185806  0.4919115896557855  1.0000
  C   C2        1.0  0.2112944948868148  0.6967128310990844  0.5080899177488973  1.0000
  C   C3        1.0  0.8592770002402829  0.7887461385509552  0.037311092857031276  1.0000
  C   C4        1.0  0.14072028219995053  0.21125751518125918  0.962691094247603  1.0000
  C   C5        1.0  0.2521688047449332  0.6543097784176978  0.03816806993251727  1.0000
  C   C6        1.0  0.7478300709172034  0.3456927120518928  0.9618312268703662  1.0000
  C   C7        1.0  0.05427580677189782  0.15442325575559576  0.3538459705169359  1.0000
  C   C8        1.0  0.945726639027342  0.8455729669916179  0.6461553739919238  1.0000
  C   C9        1.0  0.13591199062939552  0.5565791719590935  0.10975665501720747  1.0000
  C   C10       1.0  0.864086885032741  0.44342331851049727  0.890242641785683  1.0000
  C   C11       1.0  0.9432145304083832  0.6537093777319355  0.12107880274643888  1.0000
  C   C12       1.0  0.05678314562438659  0.3462930760521489  0.8789216641703774  1.0000
  C   C13       1.0  0.6925374713412823  0.4388600592977668  0.574236358113083  1.0000
  C   C14       1.0  0.30746079618732136  0.5611373939566916  0.42576476211351627  1.0000
  C   C15       1.0  0.29430736551293524  0.7691935752344179  0.0859261460131933  1.0000
  C   C16       1.0  0.7056915101491938  0.2308089152351727  0.9140731507896973  1.0000
  C   C17       1.0  0.24314759582146195  0.1254128992309802  0.288981938556276  1.0000
  C   C18       1.0  0.7568541965519489  0.8745883709177349  0.711016934372182  1.0000
  C   C19       1.0  0.7001436081063802  0.20724696075798477  0.46955470493574586  1.0000
  C   C20       1.0  0.2998608123940373  0.7927505587443234  0.5304451103977853  1.0000
  C   C21       1.0  0.7867554316234476  0.0852612782109929  0.3859250145517167  1.0000
  C   C22       1.0  0.21324730276005963  0.9147374748617595  0.6140749636776377  1.0000
  C   C23       1.0  0.9637919494980451  0.062203461377237104  0.3282313948956102  1.0000
  C   C24       1.0  0.0362125329323746  0.937794011253189  0.6717702387085395  1.0000
  C   C25       1.0  0.34173168192658215  0.6538435689620457  0.9121219439712931  1.0000
  C   C26       1.0  0.6582676492581  0.3461576746875322  0.08787745091439088  1.0000
  C   C27       1.0  0.8066496539132544  0.6216973144694791  0.21375412055475343  1.0000
  C   C28       1.0  0.1933501327939737  0.3783026823600864  0.7862453724137239  1.0000
  C   C29       1.0  0.9658109925166016  0.27644843231816907  0.4361419707364648  1.0000
  C   C30       1.0  0.03419229028445162  0.7235490036267507  0.5638608329816037  1.0000
  N   N1        1.0  0.6835191095071738  0.8340602415846592  0.07616941069826298  1.0000
  N   N2        1.0  0.31647905301315404  0.16594094194346815  0.9238320634366487  1.0000
  N   N3        1.0  0.429506551499955  0.7624470310946238  0.8901587851377426  1.0000
  N   N4        1.0  0.5704923551271862  0.23755543593902229  0.109841420800457  1.0000
  N   N5        1.0  0.40254297632834823  0.8336566122640292  0.9952621569734178  1.0000
  N   N6        1.0  0.5974555057412446  0.1663470781536915  0.004738860017298009  1.0000
  N   N7        1.0  0.6545262512322129  0.7315921441683456  0.1836071444055349  1.0000
  N   N8        1.0  0.3454711052512921  0.2684078027261378  0.8163937796554777  1.0000
  N   N9        1.0  0.701927626000604  0.9881061599671594  0.36370345862886216  1.0000
  N   N10       1.0  0.2980751083828963  0.011892593105585497  0.6362965196004922  1.0000
  O   O1        1.0  0.3294371873755111  0.20264610386526266  0.3201828657284693  1.0000
  O   O2        1.0  0.6705619459058881  0.797358940365804  0.6798141556595992  1.0000
  O   O3        1.0  0.3106921296782374  0.028121317433985396  0.2044151173215525  1.0000
  O   O4        1.0  0.6893088256933526  0.9718787395170237  0.7955822963976971  1.0000
  O   O5        1.0  0.7585626076581492  0.5624693875187532  0.5418248561058618  1.0000
  O   O6        1.0  0.24143514241789896  0.4375293594276002  0.45817434776733273  1.0000
  O   O7        1.0  0.5652245032848883  0.4374919424678083  0.6615531685978341  1.0000
  O   O8        1.0  0.43477283434688757  0.5625043678967642  0.33844376501362916  1.0000
