data_image0
_chemical_formula_structural       Cu8H32C24S16N8
_chemical_formula_sum              "Cu8 H32 C24 S16 N8"
_cell_length_a       9.641518739160066
_cell_length_b       10.276663291805152
_cell_length_c       12.838075898591985
_cell_angle_alpha    70.20659088081946
_cell_angle_beta     82.76972071635551
_cell_angle_gamma    70.66951015447077

_space_group_name_H-M_alt    "P 1"
_space_group_IT_number       1

loop_
  _space_group_symop_operation_xyz
  'x, y, z'

loop_
  _atom_site_type_symbol
  _atom_site_label
  _atom_site_symmetry_multiplicity
  _atom_site_fract_x
  _atom_site_fract_y
  _atom_site_fract_z
  _atom_site_occupancy
  Cu  Cu1       1.0  0.4064808002582438  0.5905308287758474  0.08998784067361504  1.0000
  Cu  Cu2       1.0  0.5935192655644882  0.40946815190146424  0.9100109150463211  1.0000
  Cu  Cu3       1.0  0.03465691360214161  0.8357723196224642  0.9846907304766432  1.0000
  Cu  Cu4       1.0  0.9653448840557033  0.16422778646766997  0.01530910615107215  1.0000
  Cu  Cu5       1.0  0.16172410394914746  0.538249066847179  0.05345856615408448  1.0000
  Cu  Cu6       1.0  0.8382756111508485  0.4617510120491914  0.9465406960930807  1.0000
  Cu  Cu7       1.0  0.15605409326735045  0.710977265903388  0.18063476162192418  1.0000
  Cu  Cu8       1.0  0.8439463134046647  0.28902064933114263  0.819365816300241  1.0000
  H   H1        1.0  0.5031977875051085  0.9568360663483872  0.759957014284211  1.0000
  H   H2        1.0  0.4968019216423372  0.043167304413906  0.2400428903701837  1.0000
  H   H3        1.0  0.608683442222535  0.9948277317242573  0.8446834628677634  1.0000
  H   H4        1.0  0.3913162735072007  0.005175617187177299  0.15531488930032106  1.0000
  H   H5        1.0  0.5572751957821043  0.7184907133621863  0.8804277669764673  1.0000
  H   H6        1.0  0.44272208337590496  0.2815137174999763  0.11957129358145116  1.0000
  H   H7        1.0  0.6483404541994916  0.7584258728863061  0.9719632450510999  1.0000
  H   H8        1.0  0.3516606485951855  0.24157640779109368  0.028036052144763294  1.0000
  H   H9        1.0  0.10834114290589983  0.0625357012294998  0.775894275779912  1.0000
  H   H10       1.0  0.8916585721940959  0.9374643776668703  0.22410498646725335  1.0000
  H   H11       1.0  0.0036580409075242406  0.9871098125276703  0.7229160755021836  1.0000
  H   H12       1.0  0.9963448023362246  0.012887020756139097  0.2770837940301476  1.0000
  H   H13       1.0  0.29273489025764116  0.0328554890815766  0.6402609362528011  1.0000
  H   H14       1.0  0.7072655295789757  0.9671423824512503  0.3597365366967509  1.0000
  H   H15       1.0  0.17757522738255457  0.9783995532109346  0.5764984521510071  1.0000
  H   H16       1.0  0.8224234501157567  0.021593955670283493  0.4235011786993041  1.0000
  H   H17       1.0  0.7030805467159594  0.7055079795738379  0.38519226367723997  1.0000
  H   H18       1.0  0.29691985995605563  0.29448993566069254  0.6148083142449252  1.0000
  H   H19       1.0  0.7733556670788317  0.5178780024732318  0.462788717908154  1.0000
  H   H20       1.0  0.22664508702477087  0.4821188254676656  0.5372121297299373  1.0000
  H   H21       1.0  0.02529214865105439  0.5105020482750363  0.40533787776684693  1.0000
  H   H22       1.0  0.9747051259563262  0.489495853482417  0.5946637791923877  1.0000
  H   H23       1.0  0.9520272450995434  0.6920946337078108  0.40909522527420716  1.0000
  H   H24       1.0  0.04797212193912511  0.30790326246712146  0.5909046773361125  1.0000
  H   H25       1.0  0.18551175944046616  0.1804860524649214  0.18603792038474148  1.0000
  H   H26       1.0  0.8144848209334795  0.8195172938948688  0.8139622870635606  1.0000
  H   H27       1.0  0.008139978350278914  0.3031122553112269  0.19256650919737694  1.0000
  H   H28       1.0  0.9918558939958969  0.6968933093375328  0.8074362637916933  1.0000
  H   H29       1.0  0.13937452178644352  0.0748771049368457  0.378387806917587  1.0000
  H   H30       1.0  0.8606210189541555  0.925126222363346  0.6216117252188695  1.0000
  H   H31       1.0  0.009277624455208397  0.24179781394022376  0.38833528746814483  1.0000
  H   H32       1.0  0.9907213865379132  0.7582077423347614  0.61166485399756  1.0000
  C   C1        1.0  0.32451456573691223  0.9090839917743736  0.9966577698684772  1.0000
  C   C2        1.0  0.675484443996723  0.0909150244704762  0.0033441917553815904  1.0000
  C   C3        1.0  0.5190834105777712  0.9511161784566083  0.8447708447680853  1.0000
  C   C4        1.0  0.48091595050833996  0.0488850095842466  0.155229700249464  1.0000
  C   C5        1.0  0.5464478712519494  0.7950322338223614  0.9257320952598036  1.0000
  C   C6        1.0  0.4535525327586639  0.20496896235266604  0.0742683488264433  1.0000
  C   C7        1.0  0.11463034695763953  0.9694131679839302  0.7494062464950915  1.0000
  C   C8        1.0  0.8853707552072905  0.030585842678398503  0.2505939607798524  1.0000
  C   C9        1.0  0.22881368559458093  0.9574636356887325  0.6545588939084155  1.0000
  C   C10       1.0  0.7711867276597316  0.0425342576949461  0.3454401315274467  1.0000
  C   C11       1.0  0.2659186634279819  0.7335316615202602  0.8282693255809264  1.0000
  C   C12       1.0  0.7340827960419815  0.2664662290721581  0.17172882268047823  1.0000
  C   C13       1.0  0.8933222351282952  0.6365708177333786  0.19237653903299187  1.0000
  C   C14       1.0  0.10667955923840115  0.3634292992821813  0.8076240738378785  1.0000
  C   C15       1.0  0.7867863919208986  0.6021456634456754  0.3859982115566964  1.0000
  C   C16       1.0  0.2132129784089187  0.3978522218038306  0.614000914810461  1.0000
  C   C17       1.0  0.941824264752377  0.6163466265847221  0.36924031974996296  1.0000
  C   C18       1.0  0.05817544313558187  0.3836502041474291  0.6307614050625929  1.0000
  C   C19       1.0  0.25388411349064205  0.3791652444098547  0.27746191566757267  1.0000
  C   C20       1.0  0.7461162905199715  0.6208359517651729  0.7225385284186671  1.0000
  C   C21       1.0  0.11944445196015613  0.2613317651249716  0.2260703477135522  1.0000
  C   C22       1.0  0.880553168047136  0.7386716002944098  0.7739305350466026  1.0000
  C   C23       1.0  0.11578898850281402  0.19317848979310528  0.3527990783871076  1.0000
  C   C24       1.0  0.8842096744289807  0.8068248837604414  0.6472017034417448  1.0000
  S   S1        1.0  0.16378462666384772  0.9299255897827122  0.07811782472043664  1.0000
  S   S2        1.0  0.8362143962343824  0.07007338276043382  0.921881031930802  1.0000
  S   S3        1.0  0.3516899831136725  0.062383368515064305  0.8934829003400182  1.0000
  S   S4        1.0  0.648309725404026  0.937616732232165  0.10651791439345  1.0000
  S   S5        1.0  0.3330360095714582  0.5609877174062703  0.9239043973874316  1.0000
  S   S6        1.0  0.6669623211250125  0.4390101487836447  0.07609405366788022  1.0000
  S   S7        1.0  0.35256252212754907  0.7714542210565725  0.6968045184311649  1.0000
  S   S8        1.0  0.6474389274689685  0.22854370231212331  0.3031959585596979  1.0000
  S   S9        1.0  0.9165467649181881  0.666174338773793  0.05105799857874156  1.0000
  S   S10       1.0  0.08345294689065955  0.3338257510480033  0.9489420399115716  1.0000
  S   S11       1.0  0.7599006301686798  0.5566745430378007  0.2658901179993832  1.0000
  S   S12       1.0  0.24010186893463728  0.4433233666142086  0.7341087055738741  1.0000
  S   S13       1.0  0.3402502932599988  0.5057518224408567  0.269351269668782  1.0000
  S   S14       1.0  0.6597521900173149  0.494249411853353  0.7306505250411631  1.0000
  S   S15       1.0  0.2592240327255482  0.23567441615437448  0.4026601701271346  1.0000
  S   S16       1.0  0.7407749743466852  0.7643278810309725  0.5973416576607917  1.0000
  N   N1        1.0  0.42510920702461863  0.7858643211094504  0.0055804314282425745  1.0000
  N   N2        1.0  0.5748915444175751  0.21413578777194436  0.9944202823739232  1.0000
  N   N3        1.0  0.15296776093156694  0.8371827830366102  0.844743049449086  1.0000
  N   N4        1.0  0.847032649031604  0.16281512127249445  0.15525675222992413  1.0000
  N   N5        1.0  0.9726908407196929  0.667476061997867  0.2503457548207848  1.0000
  N   N6        1.0  0.027308870459414377  0.33252075780885804  0.7496551937486088  1.0000
  N   N7        1.0  0.18184420472925208  0.38062469256265535  0.1977628481263025  1.0000
  N   N8        1.0  0.8181544549113867  0.6193786919163244  0.8022387099457049  1.0000
