data_image0
_chemical_formula_structural       Nd4H48C36O32
_chemical_formula_sum              "Nd4 H48 C36 O32"
_cell_length_a       8.521707972996944
_cell_length_b       12.899684390051133
_cell_length_c       19.491849812007274
_cell_angle_alpha    89.99990328720313
_cell_angle_beta     90.00001287599143
_cell_angle_gamma    109.18722765306974

_space_group_name_H-M_alt    "P 1"
_space_group_IT_number       1

loop_
  _space_group_symop_operation_xyz
  'x, y, z'

loop_
  _atom_site_type_symbol
  _atom_site_label
  _atom_site_symmetry_multiplicity
  _atom_site_fract_x
  _atom_site_fract_y
  _atom_site_fract_z
  _atom_site_occupancy
  Nd  Nd1       1.0  0.25935379444510437  0.5187738189939283  0.5000035758279466  1.0000
  Nd  Nd2       1.0  0.7406577395949511  0.481226531017427  2.8440864099e-06  1.0000
  Nd  Nd3       1.0  0.7406540186336343  0.4812258489728052  0.49999797507721405  1.0000
  Nd  Nd4       1.0  0.25935951344208524  0.5187755942905456  0.9999987068178128  1.0000
  H   H1        1.0  0.2210811557565507  0.8974286257517222  0.5471440920388133  1.0000
  H   H2        1.0  0.778918609145819  0.10257160250377242  0.047143271845236284  1.0000
  H   H3        1.0  0.3249197897322915  0.10366186831719662  0.952688397549167  1.0000
  H   H4        1.0  0.6750784749820085  0.8963372507207409  0.4526882242809194  1.0000
  H   H5        1.0  0.7789132335721475  0.10256530308909359  0.4528595110086968  1.0000
  H   H6        1.0  0.2210857947258448  0.8974329939511209  0.9528552008473881  1.0000
  H   H7        1.0  0.6750861415794207  0.8963410850675831  0.0473100751444377  1.0000
  H   H8        1.0  0.3249166780671258  0.10365585658642833  0.5473143526971995  1.0000
  H   H9        1.0  0.6742989472634947  0.6760505435959134  0.6847971534301464  1.0000
  H   H10       1.0  0.3256980060671495  0.32395095170659977  0.1847991242687499  1.0000
  H   H11       1.0  0.9985942779781143  0.3234619977520979  0.8152878011595135  1.0000
  H   H12       1.0  0.0013998144975388926  0.676538321060832  0.3152831941302452  1.0000
  H   H13       1.0  0.3256983628741708  0.32395159406706153  0.3151997801587072  1.0000
  H   H14       1.0  0.6742973121731951  0.6760495450591222  0.8152024266353877  1.0000
  H   H15       1.0  0.0014040400797625991  0.6765327497245224  0.18471118457325278  1.0000
  H   H16       1.0  0.9985932125850069  0.32346464031778055  0.6847127133880733  1.0000
  H   H17       1.0  0.674415142613654  0.5391744875133639  0.6816918290570441  1.0000
  H   H18       1.0  0.32558064010927257  0.4608270170133721  0.1816946737272787  1.0000
  H   H19       1.0  0.13512586358931603  0.46025274132308186  0.8182750885217229  1.0000
  H   H20       1.0  0.8648749108177115  0.539749207291898  0.3182758420287968  1.0000
  H   H21       1.0  0.32558533253109806  0.4608292903134484  0.31830561756598286  1.0000
  H   H22       1.0  0.6744186068598381  0.5391742983867476  0.8183032859319964  1.0000
  H   H23       1.0  0.8648767375253499  0.5397411824435141  0.1817208190020594  1.0000
  H   H24       1.0  0.13512204499091504  0.46025457271198195  0.6817231436988891  1.0000
  H   H25       1.0  0.4018680182813624  0.6132847295400055  0.7500003256567566  1.0000
  H   H26       1.0  0.5981308192959389  0.38671576505145566  0.249997634002959  1.0000
  H   H27       1.0  0.7887383366096685  0.38640985399858624  0.7500014953727997  1.0000
  H   H28       1.0  0.21125815474250945  0.6135906420407482  0.25000005553138743  1.0000
  H   H29       1.0  0.4093138048506971  0.4785027655923457  0.7499993748727719  1.0000
  H   H30       1.0  0.5906866152302611  0.5214985490813859  0.24999858478656017  1.0000
  H   H31       1.0  0.930637819705069  0.5211133011422362  0.7500019399156699  1.0000
  H   H32       1.0  0.06935861658269009  0.4788847317419  0.2500016631296518  1.0000
  H   H33       1.0  0.16098991876270927  0.2852235604907492  0.5706881161912987  1.0000
  H   H34       1.0  0.8390101264150046  0.714772497827902  0.0706891857385727  1.0000
  H   H35       1.0  0.8750526982055788  0.7146718254399927  0.9291023273452624  1.0000
  H   H36       1.0  0.12495063230667111  0.2853257129017238  0.4291022708520416  1.0000
  H   H37       1.0  0.8390096274701974  0.7147736494104535  0.42931189561004146  1.0000
  H   H38       1.0  0.16098947488108448  0.2852271752242857  0.9293118521312776  1.0000
  H   H39       1.0  0.12494837546717011  0.2853237413903997  0.0708981974919922  1.0000
  H   H40       1.0  0.8750529527803367  0.7146772419323357  0.5708987670161605  1.0000
  H   H41       1.0  0.35102789000778506  0.31108678599126466  0.5506407570808491  1.0000
  H   H42       1.0  0.6489726357945784  0.6889126111592817  0.0506397860716845  1.0000
  H   H43       1.0  0.039154801693293106  0.688750364658681  0.9493184457915474  1.0000
  H   H44       1.0  0.9608485675782176  0.3112495815061181  0.4493179229957748  1.0000
  H   H45       1.0  0.648970947568074  0.6889137085952797  0.4493607938234446  1.0000
  H   H46       1.0  0.3510285480043365  0.31108788197236253  0.9493633039375382  1.0000
  H   H47       1.0  0.9608470907628758  0.3112468437883323  0.0506825920797738  1.0000
  H   H48       1.0  0.03915378933335511  0.6887509109019522  0.5506831148737419  1.0000
  C   C1        1.0  0.38052713167112273  0.7622233617164087  0.49992289944211876  1.0000
  C   C2        1.0  0.6194668669566212  0.23777891491280204  0.9999214110743678  1.0000
  C   C3        1.0  0.6194623760734217  0.23777960183295488  0.5000791644953182  1.0000
  C   C4        1.0  0.38054023746673254  0.7622240377448793  7.75746542345e-05  1.0000
  C   C5        1.0  0.44203874476679067  0.8848897291311388  0.4999171906258653  1.0000
  C   C6        1.0  0.5579575450251679  0.11511008290694492  0.9999168591932915  1.0000
  C   C7        1.0  0.557956109019173  0.11510748367704345  0.5000817951053733  1.0000
  C   C8        1.0  0.4420499137268124  0.8848912274084244  8.11004663603e-05  1.0000
  C   C9        1.0  0.3428263958022981  0.9432219069268301  0.5263215229645368  1.0000
  C   C10       1.0  0.6571733308302968  0.0567759151666749  0.026320229661308803  1.0000
  C   C11       1.0  0.4003372034188217  0.05740083639462061  0.9735884440709343  1.0000
  C   C12       1.0  0.5996601705923794  0.9425941206725882  0.47358769950299257  1.0000
  C   C13       1.0  0.6571665211509767  0.05677612813999392  0.4736795149059247  1.0000
  C   C14       1.0  0.3428278529704727  0.9432245779712929  0.9736782430334543  1.0000
  C   C15       1.0  0.5996672004532612  0.9426037600616722  0.0264090025518087  1.0000
  C   C16       1.0  0.40033386440975954  0.05740145051756682  0.5264117992640606  1.0000
  C   C17       1.0  0.4899106787484371  0.5718160158088352  0.6201147838855262  1.0000
  C   C18       1.0  0.5100894917570002  0.4281872966903465  0.12011562939630949  1.0000
  C   C19       1.0  0.9183207351377335  0.42796714278056674  0.8799060292238536  1.0000
  C   C20       1.0  0.0816773440754162  0.5720387441057896  0.3799056499538054  1.0000
  C   C21       1.0  0.510091323835333  0.4281861189443533  0.37988522791317786  1.0000
  C   C22       1.0  0.4899108732593192  0.5718115548274841  0.8798848954390904  1.0000
  C   C23       1.0  0.08168555050116312  0.5720341682569839  0.12009500864537868  1.0000
  C   C24       1.0  0.9183195566689902  0.42796257274360266  0.620094874880067  1.0000
  C   C25       1.0  0.5926809295692765  0.58937639078453  0.6849608560846647  1.0000
  C   C26       1.0  0.4073144411259264  0.41062428398849  0.184962224871434  1.0000
  C   C27       1.0  0.0033786807774376553  0.4101624994889975  0.8150614595565244  1.0000
  C   C28       1.0  0.9966213325016113  0.5898402794572634  0.3150616562294601  1.0000
  C   C29       1.0  0.40731638056735164  0.41062574687492787  0.3150386426788926  1.0000
  C   C30       1.0  0.5926824045550916  0.5893745697092215  0.8150377869288619  1.0000
  C   C31       1.0  0.9966228022877459  0.589833888152171  0.1849375261754744  1.0000
  C   C32       1.0  0.0033767964184293216  0.41016349981882894  0.684938355568157  1.0000
  C   C33       1.0  0.4872646196754999  0.5655790461908269  0.7499988169398293  1.0000
  C   C34       1.0  0.5127362097968488  0.4344230892901566  0.25000016878894366  1.0000
  C   C35       1.0  0.9216778221615556  0.43399922768052346  0.7500004488481409  1.0000
  C   C36       1.0  0.0783186141272338  0.5659988052071228  0.250000589022477  1.0000
  O   O1        1.0  0.23051661544152327  0.7104333075222159  0.5168074143736163  1.0000
  O   O2        1.0  0.7694862838700515  0.2895661807699241  0.0168099766040584  1.0000
  O   O3        1.0  0.521351715531665  0.2898974951781383  0.9830599713176085  1.0000
  O   O4        1.0  0.4786535633569145  0.7101015363709352  0.4830640916957236  1.0000
  O   O5        1.0  0.7694781832806398  0.2895614421328859  0.4831920843939344  1.0000
  O   O6        1.0  0.23052357616857921  0.7104375912429362  0.9831895221591508  1.0000
  O   O7        1.0  0.4786577351159735  0.7101054560288632  0.0169374753062783  1.0000
  O   O8        1.0  0.5213451640919472  0.2898940319115369  0.5169369461763651  1.0000
  O   O9        1.0  0.3489269917825198  0.5843629317164913  0.6199095565601951  1.0000
  O   O10       1.0  0.6510692501613063  0.4156395627155618  0.11990991573492951  1.0000
  O   O11       1.0  0.7649036319758907  0.41547279251263103  0.8801415122749817  1.0000
  O   O12       1.0  0.2351109807404655  0.5845380098651918  0.3801406199407324  1.0000
  O   O13       1.0  0.6510683815220445  0.41564002820371837  0.3800904552377489  1.0000
  O   O14       1.0  0.34892789478494285  0.5843551854881569  0.8800885569628463  1.0000
  O   O15       1.0  0.23510505495006845  0.5845309802238107  0.11986003862793382  1.0000
  O   O16       1.0  0.7648929036121928  0.41546083947626766  0.619857852755068  1.0000
  O   O17       1.0  0.5476861645441887  0.5442689877857347  0.5642627400303866  1.0000
  O   O18       1.0  0.4523115395927134  0.45572708957391944  0.06426201058092569  1.0000
  O   O19       1.0  0.0035900760686047085  0.45562030984612534  0.9357698340906069  1.0000
  O   O20       1.0  0.9964126505376996  0.544385421241742  0.4357680291593837  1.0000
  O   O21       1.0  0.4523113897924276  0.45572658122173243  0.43573932391152675  1.0000
  O   O22       1.0  0.5476904079280871  0.544272582028995  0.9357364621143276  1.0000
  O   O23       1.0  0.9964150364584583  0.5443810019178202  0.0642312037785757  1.0000
  O   O24       1.0  0.0035894621740979074  0.45562163981902165  0.564229930496829  1.0000
  O   O25       1.0  0.2660589993745858  0.3439900753528846  0.5656449548006393  1.0000
  O   O26       1.0  0.7339398767598767  0.6560059974990369  0.0656430019979055  1.0000
  O   O27       1.0  0.9214609509117934  0.6558312207799092  0.9343286490972531  1.0000
  O   O28       1.0  0.07854125733694421  0.3441687671359404  0.4343290360024028  1.0000
  O   O29       1.0  0.7339346812985141  0.6560071381781826  0.43435659610525323  1.0000
  O   O30       1.0  0.2660644169833547  0.3439936726468746  0.9343585489070917  1.0000
  O   O31       1.0  0.07853859532069413  0.3441659891198939  0.0656723887739616  1.0000
  O   O32       1.0  0.9214572259113112  0.655833369796426  0.565670975796145  1.0000
