data_image0
_chemical_formula_structural       Cd2H34C34N10O8
_chemical_formula_sum              "Cd2 H34 C34 N10 O8"
_cell_length_a       8.04070275872176
_cell_length_b       10.139416492170621
_cell_length_c       12.538897743350164
_cell_angle_alpha    71.37940709379126
_cell_angle_beta     71.30395161472755
_cell_angle_gamma    66.62712519025786

_space_group_name_H-M_alt    "P 1"
_space_group_IT_number       1

loop_
  _space_group_symop_operation_xyz
  'x, y, z'

loop_
  _atom_site_type_symbol
  _atom_site_label
  _atom_site_symmetry_multiplicity
  _atom_site_fract_x
  _atom_site_fract_y
  _atom_site_fract_z
  _atom_site_occupancy
  Cd  Cd1       1.0  0.4848919689916544  0.19348163923535114  0.7046973356976948  1.0000
  Cd  Cd2       1.0  0.6171249071441737  0.6934063027070039  0.2045145848544578  1.0000
  H   H1        1.0  0.3584705673910378  0.1437430951643465  0.006029743078393286  1.0000
  H   H2        1.0  0.49134060932689017  0.64376331735334  0.5057977533757168  1.0000
  H   H3        1.0  0.525877341085362  0.48979655641230135  0.76100384327259  1.0000
  H   H4        1.0  0.2227103004198342  0.9898867672335786  0.26078177738243363  1.0000
  H   H5        1.0  0.4377109180962011  0.5422611397025535  0.9819325919858881  1.0000
  H   H6        1.0  0.038030522229384175  0.042608123536553  0.4816866525772312  1.0000
  H   H7        1.0  0.26715326336623235  0.2278031388402014  0.18860742901681957  1.0000
  H   H8        1.0  0.31706989645340433  0.7280460961304058  0.68813794453078  1.0000
  H   H9        1.0  0.21804814010396706  0.4177949676969065  0.17549882237251066  1.0000
  H   H10       1.0  0.18877398135905574  0.9179322317888108  0.6752668089547881  1.0000
  H   H11       1.0  0.5361948744375978  0.37609016395887107  0.18599189822760556  1.0000
  H   H12       1.0  0.9020122370795463  0.875761575168049  0.6862959047904694  1.0000
  H   H13       1.0  0.43099702283396385  0.26358746118824433  0.3049230369679492  1.0000
  H   H14       1.0  0.0015694005407950232  0.762968274499862  0.8049142114088285  1.0000
  H   H15       1.0  0.7185576651920015  0.16456529450454843  0.09103239337347448  1.0000
  H   H16       1.0  0.02675880848634222  0.6645764767946504  0.5907487814029364  1.0000
  H   H17       1.0  0.599143405173308  0.05168144304382591  0.19912226092883148  1.0000
  H   H18       1.0  0.15068879188287812  0.5514263192697301  0.698973773648241  1.0000
  H   H19       1.0  0.9180276020864325  0.0023140765047387005  0.2231307992665919  1.0000
  H   H20       1.0  0.8570110107031965  0.5024674444256262  0.7226082624173314  1.0000
  H   H21       1.0  0.8504070540335247  0.18530217329863774  0.23988431854124304  1.0000
  H   H22       1.0  0.7250354061504186  0.6855158995760321  0.7392366645415507  1.0000
  H   H23       1.0  0.6987859385754046  0.24143084130472672  0.42802367613403186  1.0000
  H   H24       1.0  0.6320487382735321  0.741697327916853  0.9275031726489829  1.0000
  H   H25       1.0  0.5636728960904096  0.8587516621307502  0.622448920136442  1.0000
  H   H26       1.0  0.9551301804999  0.35876495234235517  0.12204154819909964  1.0000
  H   H27       1.0  0.722736791262946  0.831824335663342  0.3931532497746345  1.0000
  H   H28       1.0  0.05222505018431884  0.3318099062978207  0.8927799615588086  1.0000
  H   H29       1.0  0.07754590810206707  0.2161223823326779  0.7130874891533665  1.0000
  H   H30       1.0  0.9936008477501018  0.7160145557800633  0.21300746260359193  1.0000
  H   H31       1.0  0.1931445158447714  0.5426413905250342  0.3330947392578594  1.0000
  H   H32       1.0  0.9306767599957481  0.042852212973869507  0.833171199574508  1.0000
  H   H33       1.0  0.40168063513575447  0.45297539300731415  0.46928149275976955  1.0000
  H   H34       1.0  0.6759635403407318  0.9526916103796029  0.9693094093460317  1.0000
  C   C1        1.0  0.3940886559522171  0.2442861192112035  0.9676978912715908  1.0000
  C   C2        1.0  0.39351596234553204  0.7443120118005099  0.46743676401118955  1.0000
  C   C3        1.0  0.47816673385626257  0.42611450895152103  0.8448492496553897  1.0000
  C   C4        1.0  0.25034303323376167  0.9261677196680936  0.34461706088276856  1.0000
  C   C5        1.0  0.43629063954249175  0.4530370501907298  0.952823196384635  1.0000
  C   C6        1.0  0.15760910906072936  0.9532567964933419  0.452583323031412  1.0000
  C   C7        1.0  0.32828531239028547  0.31655615906919377  0.15530016677893593  1.0000
  C   C8        1.0  0.20016367155263037  0.8166644565120579  0.6550483100446981  1.0000
  C   C9        1.0  0.4887930538354226  0.2802173890319111  0.21125187321835168  1.0000
  C   C10       1.0  0.02033825687107803  0.7799531667879124  0.7112450414987563  1.0000
  C   C11       1.0  0.650443716025677  0.14357961784006082  0.18321284199753043  1.0000
  C   C12       1.0  0.02343344317690594  0.6434440573284165  0.6829995393996455  1.0000
  C   C13       1.0  0.7995250454484907  0.09474663092436943  0.25179575902453877  1.0000
  C   C14       1.0  0.8544464461418925  0.5948499532466374  0.7513023554113402  1.0000
  C   C15       1.0  0.6781655135677481  0.13517091529413253  0.4523889198195619  1.0000
  C   C16       1.0  0.7345269970548429  0.6353921326722229  0.9519057820053192  1.0000
  C   C17       1.0  0.6151187435625616  0.9336961808302818  0.547679471258256  1.0000
  C   C18       1.0  0.9035922913671612  0.43380343820835787  0.04726519719000065  1.0000
  C   C19       1.0  0.6914316811456017  0.9203839600212618  0.43480816165260444  1.0000
  C   C20       1.0  0.9534308476917057  0.42045335716039045  0.9344029714086658  1.0000
  C   C21       1.0  0.09798974326596277  0.2884079090817835  0.627980214471549  1.0000
  C   C22       1.0  0.9857818670629325  0.7882811869308527  0.1279098587215302  1.0000
  C   C23       1.0  0.9711540866939006  0.33303107789889463  0.5588600426707656  1.0000
  C   C24       1.0  0.13707133123953247  0.8328956015086606  0.05873073757027918  1.0000
  C   C25       1.0  0.8018803667151245  0.2855229200555769  0.6074090710481386  1.0000
  C   C26       1.0  0.3054336594513244  0.7853245276140941  0.10719574194553869  1.0000
  C   C27       1.0  0.004092639308687811  0.42504703200922483  0.44929017308651703  1.0000
  C   C28       1.0  0.12141915911031718  0.9250114284195377  0.949212817220925  1.0000
  C   C29       1.0  0.8824256730284074  0.46833397883848  0.36537600529319997  1.0000
  C   C30       1.0  0.2837780477383233  0.9681177277133773  0.8652840196929219  1.0000
  C   C31       1.0  0.16014393611108355  0.47061038809018657  0.41681310140754846  1.0000
  C   C32       1.0  0.9521733035237362  0.9706699411355257  0.9168187140721428  1.0000
  C   C33       1.0  0.27809611854724636  0.42100745985059973  0.49206087022414363  1.0000
  C   C34       1.0  0.8087852207908461  0.9208729357738791  0.9920651007669361  1.0000
  N   N1        1.0  0.45086652843718866  0.2960337168669298  0.8551497521593417  1.0000
  N   N2        1.0  0.39733060664141845  0.7959497392259111  0.35490621148954926  1.0000
  N   N3        1.0  0.38379499654471516  0.33660399412969605  0.029557650760672488  1.0000
  N   N4        1.0  0.24989280052874116  0.8367956354316844  0.5293065394402204  1.0000
  N   N5        1.0  0.7300144740320178  0.0494202550220209  0.3758727093651686  1.0000
  N   N6        1.0  0.8448726924692594  0.5495426129202485  0.8754218159159278  1.0000
  N   N7        1.0  0.6084561493719176  0.06756886136987113  0.5575233028556994  1.0000
  N   N8        1.0  0.7666502010486624  0.5677669524421561  0.05706758358112293  1.0000
  N   N9        1.0  0.2481665967687691  0.33101106414537906  0.5964358078376506  1.0000
  N   N10       1.0  0.8245377235666065  0.8307819110256038  0.09638716185443727  1.0000
  O   O1        1.0  0.819784680914175  0.1592346796393187  0.675175068768297  1.0000
  O   O2        1.0  0.34598143797868636  0.6591071607333989  0.1750596781570195  1.0000
  O   O3        1.0  0.6494699662694003  0.37526620437724034  0.5805919799653765  1.0000
  O   O4        1.0  0.3950740467443624  0.8749566441162244  0.0802441989053904  1.0000
  O   O5        1.0  0.8827422661048915  0.3695523924841879  0.3254500563834455  1.0000
  O   O6        1.0  0.4221117918621218  0.8691740549238322  0.8254982604334344  1.0000
  O   O7        1.0  0.794581570021137  0.6066518037615867  0.3392377298959772  1.0000
  O   O8        1.0  0.25956767405105585  0.1063965410040097  0.8390678568844051  1.0000
