data_image0
_chemical_formula_structural       Cd6H28C24N20Cl12O4
_chemical_formula_sum              "Cd6 H28 C24 N20 Cl12 O4"
_cell_length_a       10.464159865537143
_cell_length_b       10.785554428635995
_cell_length_c       14.433843217041325
_cell_angle_alpha    100.611005023973
_cell_angle_beta     89.99917498899693
_cell_angle_gamma    119.0337777435531

_space_group_name_H-M_alt    "P 1"
_space_group_IT_number       1

loop_
  _space_group_symop_operation_xyz
  'x, y, z'

loop_
  _atom_site_type_symbol
  _atom_site_label
  _atom_site_symmetry_multiplicity
  _atom_site_fract_x
  _atom_site_fract_y
  _atom_site_fract_z
  _atom_site_occupancy
  Cd  Cd1       1.0  0.13138421614353046  0.42907154116801394  0.9886723077854996  1.0000
  Cd  Cd2       1.0  0.7022989092317927  0.5709195992175394  0.5113264024370281  1.0000
  Cd  Cd3       1.0  0.8686151233624885  0.5709286530644563  0.011327601781353318  1.0000
  Cd  Cd4       1.0  0.2976998877756786  0.4290795102669449  0.4886733555908478  1.0000
  Cd  Cd5       1.0  0.49999899997902747  0.49999915092697494  0.9999993166703832  1.0000
  Cd  Cd6       1.0  0.9999999842145398  0.500000704677845  0.4999997052007217  1.0000
  H   H1        1.0  0.9493746433677047  0.15516020416178122  0.8770466203481748  1.0000
  H   H2        1.0  0.7942209013795393  0.8448918798240258  0.6229098562346636  1.0000
  H   H3        1.0  0.05062510935272973  0.8448389054628012  0.1229531376940045  1.0000
  H   H4        1.0  0.20577939563681014  0.1551083181286685  0.37708936102668383  1.0000
  H   H5        1.0  0.836929093342583  0.1914390046620937  0.9337347217491256  1.0000
  H   H6        1.0  0.6454704939468243  0.8085660284763492  0.5662332508437871  1.0000
  H   H7        1.0  0.16306916116633374  0.8085590200744052  0.06626488473977332  1.0000
  H   H8        1.0  0.35453034377070475  0.19143525064420433  0.43376681027634595  1.0000
  H   H9        1.0  0.7525744972461937  0.08349956932303121  0.17456923908714833  1.0000
  H   H10       1.0  0.6690904722105059  0.9165549812286072  0.3253827495496751  1.0000
  H   H11       1.0  0.2474257961754206  0.9165006214694104  0.8254313628138092  1.0000
  H   H12       1.0  0.33091036730439083  0.08344630147206542  0.6746166192506565  1.0000
  H   H13       1.0  0.3411533160088354  0.0727504486701918  0.11354759094078302  1.0000
  H   H14       1.0  0.26842649527327483  0.9272909476644461  0.3864867159327758  1.0000
  H   H15       1.0  0.658846436711592  0.9272486609543905  0.886452167101396  1.0000
  H   H16       1.0  0.7315737999457069  0.07270924670812208  0.6135131936483731  1.0000
  H   H17       1.0  0.45801275778645584  0.33068835406264446  0.2050715363132056  1.0000
  H   H18       1.0  0.1272128135146034  0.6693689676830064  0.29497067234186153  1.0000
  H   H19       1.0  0.5419860428157435  0.6693107625820858  0.7949268370750602  1.0000
  H   H20       1.0  0.8727878949187868  0.3306301420816666  0.7050290857146067  1.0000
  H   H21       1.0  0.8517650394335945  0.34120239344022  0.2655027204776985  1.0000
  H   H22       1.0  0.5104353639196972  0.6588260320651289  0.23445633888937323  1.0000
  H   H23       1.0  0.1482343018697918  0.6587978043723767  0.7344964967693599  1.0000
  H   H24       1.0  0.4895669774014452  0.3411763426838804  0.7655417968246283  1.0000
  H   H25       1.0  0.7016174834142889  0.44375974021784254  0.2747755565868886  1.0000
  H   H26       1.0  0.2576446923204259  0.5562973495903307  0.22521467245007187  1.0000
  H   H27       1.0  0.29838185788909044  0.556240457594754  0.7252236606601629  1.0000
  H   H28       1.0  0.7423571047048014  0.4437039368305662  0.7747840040447471  1.0000
  C   C1        1.0  0.47713437775102824  0.9052306554083883  0.09192879340659489  1.0000
  C   C2        1.0  0.5720187536036434  0.09482897923231091  0.4080197258756826  1.0000
  C   C3        1.0  0.5228644156617009  0.09476844691585029  0.9080723492608911  1.0000
  C   C4        1.0  0.4279815416153384  0.9051712151402571  0.5919801837054663  1.0000
  C   C5        1.0  0.5377085208717106  0.05660914110320189  0.139397845217367  1.0000
  C   C6        1.0  0.4811517487558916  0.9434372432356213  0.3605746244789004  1.0000
  C   C7        1.0  0.462290270743658  0.9433899576409104  0.8606039897699136  1.0000
  C   C8        1.0  0.5188500446745935  0.05656403602502992  0.6394254366555289  1.0000
  C   C9        1.0  0.6841994819668855  0.13429041664409175  0.1805338482662791  1.0000
  C   C10       1.0  0.5499022030928061  0.8657465199705286  0.3193938516993384  1.0000
  C   C11       1.0  0.315800809657361  0.8657097705682233  0.81946744595448  1.0000
  C   C12       1.0  0.45009904963649927  0.1342536781222563  0.6806053655763122  1.0000
  C   C13       1.0  0.4532968605698713  0.1267281874952531  0.14730271656345914  1.0000
  C   C14       1.0  0.32658821593251747  0.873353623418119  0.3526850277942444  1.0000
  C   C15       1.0  0.5467028903531957  0.8732709185491961  0.8526977337985215  1.0000
  C   C16       1.0  0.6734120792864644  0.12664657095444914  0.6473148817869117  1.0000
  C   C17       1.0  0.5155797368666697  0.268813234827249  0.19663080071182293  1.0000
  C   C18       1.0  0.24669656388530833  0.7312550014330412  0.30338355002785994  1.0000
  C   C19       1.0  0.4844200086642942  0.7311858604768275  0.8033717266095622  1.0000
  C   C20       1.0  0.753304688844004  0.2687451966597436  0.6966156672477836  1.0000
  C   C21       1.0  0.7407782354020115  0.275668673306818  0.22994127821752391  1.0000
  C   C22       1.0  0.46501187783526643  0.7243574083340364  0.2700231666202839  1.0000
  C   C23       1.0  0.2592220598169704  0.7243315210657502  0.7700586313636323  1.0000
  C   C24       1.0  0.5349895059755455  0.2756449626947557  0.729975661399223  1.0000
  N   N1        1.0  0.5610478510612894  0.8420891777886085  0.07240947717924233  1.0000
  N   N2        1.0  0.7191034741963237  0.1580281662625751  0.4275486007301269  1.0000
  N   N3        1.0  0.4389503980555247  0.15790883620751123  0.9275922062690682  1.0000
  N   N4        1.0  0.2808958653096952  0.8419720279698952  0.5724513088367261  1.0000
  N   N5        1.0  0.33282994990752723  0.8081069118075919  0.06594028694737371  1.0000
  N   N6        1.0  0.5248135686251487  0.1919016681793835  0.434041647486474  1.0000
  N   N7        1.0  0.6671683010066547  0.19189110576865429  0.9340607041811282  1.0000
  N   N8        1.0  0.4751872672950127  0.8080996073610436  0.5659591059534606  1.0000
  N   N9        1.0  0.3293539602228322  0.6837594572192388  0.03020269569557142  1.0000
  N   N10       1.0  0.6457071648211183  0.3162694918547119  0.4698001425010148  1.0000
  N   N11       1.0  0.6706448367846322  0.31623965226524586  0.9697970623323047  1.0000
  N   N12       1.0  0.3542936710990433  0.6837317836857155  0.5302006109389197  1.0000
  N   N13       1.0  0.4659240633350167  0.7050675948426318  0.034147996566659324  1.0000
  N   N14       1.0  0.7609966336664087  0.2950222719749788  0.46583563490460017  1.0000
  N   N15       1.0  0.5340762318839651  0.29493259952993617  0.9658519130144967  1.0000
  N   N16       1.0  0.23900324833815034  0.704979007005484  0.5341644262012367  1.0000
  N   N17       1.0  0.6554469036439984  0.3378723115885834  0.23703687951340416  1.0000
  N   N18       1.0  0.31744935632514887  0.6621922753003133  0.26293977242357164  1.0000
  N   N19       1.0  0.3445533933723439  0.6621278863641107  0.7629623377479504  1.0000
  N   N20       1.0  0.6825524407000716  0.3378090111205836  0.7370589040712545  1.0000
  Cl  Cl1       1.0  0.28500905784142827  0.3792103181488855  0.8597119096043713  1.0000
  Cl  Cl2       1.0  0.9057583412147991  0.6207821397160984  0.6402940207068539  1.0000
  Cl  Cl3       1.0  0.7149906966763667  0.6207887950558161  0.14028715611799916  1.0000
  Cl  Cl4       1.0  0.09424195580155018  0.37921805823658883  0.3597051965545007  1.0000
  Cl  Cl5       1.0  0.005658901284128629  0.5133489158723563  0.8756012977382213  1.0000
  Cl  Cl6       1.0  0.4922802401838809  0.4866157228585096  0.6244080337526868  1.0000
  Cl  Cl7       1.0  0.9943409807204375  0.4866523631080996  0.12439876336761561  1.0000
  Cl  Cl8       1.0  0.5077200550350938  0.5133844715140513  0.3755918758284694  1.0000
  Cl  Cl9       1.0  0.285021194969012  0.38444393709874464  0.11122549203098232  1.0000
  Cl  Cl10      1.0  0.9006279062717298  0.61560722170519  0.388775822657145  1.0000
  Cl  Cl11      1.0  0.7149781445369996  0.6155562571337255  0.8887744175358706  1.0000
  Cl  Cl12      1.0  0.09937143503164951  0.38439297610740647  0.6112233945899135  1.0000
  O   O1        1.0  0.9315672699075109  0.1894478469491787  0.9402823847415576  1.0000
  O   O2        1.0  0.7420867367889414  0.8105451100913685  0.5596786884033875  1.0000
  O   O3        1.0  0.06843302531147093  0.8105523474233892  0.05971752483959853  1.0000
  O   O4        1.0  0.2579135584300332  0.18945508428119243  0.4403212211777685  1.0000
