data_image0
_chemical_formula_structural       CoP2H22C10O10
_chemical_formula_sum              "Co1 P2 H22 C10 O10"
_cell_length_a       4.8333334462162245
_cell_length_b       6.895223601412205
_cell_length_c       12.001965541477174
_cell_angle_alpha    98.69393537181485
_cell_angle_beta     89.33192623975593
_cell_angle_gamma    105.71477564414118

_space_group_name_H-M_alt    "P 1"
_space_group_IT_number       1

loop_
  _space_group_symop_operation_xyz
  'x, y, z'

loop_
  _atom_site_type_symbol
  _atom_site_label
  _atom_site_symmetry_multiplicity
  _atom_site_fract_x
  _atom_site_fract_y
  _atom_site_fract_z
  _atom_site_occupancy
  Co  Co1       1.0  0.9999979403161133  2.6775402090966277e-06  1.5966712111994553e-06  1.0000
  P   P1        1.0  0.7911852384903212  0.2872900075430991  0.7994946497777491  1.0000
  P   P2        1.0  0.20881450279208738  0.7127193918899974  0.20050707908264795  1.0000
  H   H1        1.0  0.2668083790456138  0.4248866196086851  0.8051249617283601  1.0000
  H   H2        1.0  0.7331982683916678  0.5751242351070972  0.19487526313730538  1.0000
  H   H3        1.0  0.6063677239377085  0.1474828588325181  0.0812790838255708  1.0000
  H   H4        1.0  0.39362917185094654  0.8525250294525576  0.918725001506054  1.0000
  H   H5        1.0  0.8789974884560151  0.2691172338755763  0.15336306500512353  1.0000
  H   H6        1.0  0.12100084529232187  0.7308891040614539  0.8466408980396521  1.0000
  H   H7        1.0  0.4226232661126091  0.2831143662081955  0.9542159556199934  1.0000
  H   H8        1.0  0.5773721032047519  0.7168889735792305  0.0457827364975003  1.0000
  H   H9        1.0  0.33758956984367927  0.3626357021082072  0.0774402994066818  1.0000
  H   H10       1.0  0.6624062221737645  0.6373737615228947  0.9225589113599567  1.0000
  H   H11       1.0  0.061599490788239626  0.3707309567091103  0.5242940715576268  1.0000
  H   H12       1.0  0.938410655553497  0.6292583874310792  0.4757068610467526  1.0000
  H   H13       1.0  0.4368599526005213  0.08629534201076439  0.6655545771709724  1.0000
  H   H14       1.0  0.5631439026531452  0.9137032991998523  0.3344429349452014  1.0000
  H   H15       1.0  0.61481994339173  0.32104300824314447  0.6232871243527426  1.0000
  H   H16       1.0  0.3852149239897215  0.6789399351899515  0.37670674514048835  1.0000
  H   H17       1.0  0.5792314750711681  0.5847187016351539  0.6090823508981913  1.0000
  H   H18       1.0  0.42072340933740543  0.41526674942920755  0.39091626404456287  1.0000
  H   H19       1.0  0.3661774346881118  0.7589881628456541  0.6208944717191612  1.0000
  H   H20       1.0  0.6338234509814455  0.2410167080699281  0.3790927128660113  1.0000
  H   H21       1.0  0.6378585192679863  0.7900038617359469  0.7239766471478858  1.0000
  H   H22       1.0  0.3621100660541785  0.20998449156112295  0.27602062542267447  1.0000
  C   C1        1.0  0.03346910656092208  0.20629682145774805  0.5127300929480114  1.0000
  C   C2        1.0  0.9665402244290034  0.793706304052513  0.48727533047605925  1.0000
  C   C3        1.0  0.7980824754389886  0.8777023396624627  0.5656494890608811  1.0000
  C   C4        1.0  0.20192203322537952  0.1222732798245332  0.4343510872652273  1.0000
  C   C5        1.0  0.6506982785812737  0.18982949271104838  0.6566170103590563  1.0000
  C   C6        1.0  0.3493141815459211  0.8101659369243208  0.3433869491543078  1.0000
  C   C7        1.0  0.8322139431818983  0.08923238675932049  0.5780066170948713  1.0000
  C   C8        1.0  0.16779333239361446  0.9107508302224048  0.4219996166868967  1.0000
  C   C9        1.0  0.5849811667469922  0.7454114948576702  0.6333535677590019  1.0000
  C   C10       1.0  0.4150085344673968  0.2545827321206744  0.3666426561826837  1.0000
  O   O1        1.0  0.5780962799669425  0.4046107942087502  0.8537665942575642  1.0000
  O   O2        1.0  0.42190212721087045  0.595398685236141  0.1462242982566195  1.0000
  O   O3        1.0  0.8433349409248688  0.1254797395618752  0.860169246921778  1.0000
  O   O4        1.0  0.15665558280515773  0.8745328256168463  0.1398351954364472  1.0000
  O   O5        1.0  0.08535643481307893  0.46288935096082895  0.7883648964017737  1.0000
  O   O6        1.0  0.9146420660294936  0.5371169994751881  0.21163656821708796  1.0000
  O   O7        1.0  0.7844755392900139  0.1297171964392021  0.11503237432406616  1.0000
  O   O8        1.0  0.21552135649864831  0.8702906918458739  0.8849717110075586  1.0000
  O   O9        1.0  0.34482647008528744  0.2333110481016973  0.0265235769360928  1.0000
  O   O10       1.0  0.6551738914170429  0.7666998758299501  0.9734782840450718  1.0000
