data_image0
_chemical_formula_structural       Ce2Zn2H34C42N6O32
_chemical_formula_sum              "Ce2 Zn2 H34 C42 N6 O32"
_cell_length_a       10.174120827227371
_cell_length_b       12.445032082009996
_cell_length_c       13.6442
_cell_angle_alpha    95.17852513548986
_cell_angle_beta     90.46729756620066
_cell_angle_gamma    111.46776709756752

_space_group_name_H-M_alt    "P 1"
_space_group_IT_number       1

loop_
  _space_group_symop_operation_xyz
  'x, y, z'

loop_
  _atom_site_type_symbol
  _atom_site_label
  _atom_site_symmetry_multiplicity
  _atom_site_fract_x
  _atom_site_fract_y
  _atom_site_fract_z
  _atom_site_occupancy
  Ce  Ce1       1.0  0.0346607135246373  0.8084962812724683  0.2336526714292191  1.0000
  Ce  Ce2       1.0  0.9653447002419497  0.191505852307472  0.7663444589141619  1.0000
  Zn  Zn1       1.0  0.49999123761045894  0.999989984340857  0.5000027134258431  1.0000
  Zn  Zn2       1.0  0.49999846883155646  7.810225128e-06  1.2932979842998366e-06  1.0000
  H   H1        1.0  0.4406263338300249  0.2631525186071997  0.3023443113579134  1.0000
  H   H2        1.0  0.5593744277955892  0.7368348623252814  0.6976677002259137  1.0000
  H   H3        1.0  0.3305450247776918  0.3580198520118287  0.1875400906197413  1.0000
  H   H4        1.0  0.6694560873946926  0.6419770747513596  0.8124756406199366  1.0000
  H   H5        1.0  0.0989178980174401  0.2335491619680781  0.0961770651263691  1.0000
  H   H6        1.0  0.9010808590249085  0.7664468969923278  0.9038334499621569  1.0000
  H   H7        1.0  0.9009376130280345  0.8203244333256804  0.627173599824097  1.0000
  H   H8        1.0  0.0990800925223567  0.17969852752126766  0.37282385408535385  1.0000
  H   H9        1.0  0.008147216713744897  0.6791945330863669  0.6786320689284651  1.0000
  H   H10       1.0  0.9918505186639451  0.3208102039019494  0.3213674277844589  1.0000
  H   H11       1.0  0.1227127351006203  0.5875111681251113  0.5496197653409354  1.0000
  H   H12       1.0  0.8772669765685208  0.4124796840185354  0.45037627993184504  1.0000
  H   H13       1.0  0.15564779446216187  0.6669810765935651  0.85355402635588  1.0000
  H   H14       1.0  0.8443565976397593  0.3330297350142999  0.1464416134698823  1.0000
  H   H15       1.0  0.9150627139033034  0.5063585900432273  0.8114607342972135  1.0000
  H   H16       1.0  0.08493383422285213  0.4936478825506754  0.18853010313596028  1.0000
  H   H17       1.0  0.7332043548218722  0.4651336184153578  0.9404417350850949  1.0000
  H   H18       1.0  0.2667949377271484  0.5348745897841312  0.059558056870720584  1.0000
  H   H19       1.0  0.4900495884471425  0.8099637357935237  0.37297015580923437  1.0000
  H   H20       1.0  0.509955640359543  0.1900357943780406  0.6270304236404272  1.0000
  H   H21       1.0  0.35557402715416947  0.8474128974739585  0.369406544986127  1.0000
  H   H22       1.0  0.6444218198784455  0.1525744834585225  0.630592244290554  1.0000
  H   H23       1.0  0.7565215790137997  0.0056806370755922  0.4493481181452664  1.0000
  H   H24       1.0  0.24347343131405097  0.9943180252931824  0.550647197331827  1.0000
  H   H25       1.0  0.6959231540103445  0.0673918292111821  0.36894550104731383  1.0000
  H   H26       1.0  0.3040598375883405  0.9326129077771412  0.6310605022098271  1.0000
  H   H27       1.0  0.2613432259252946  0.0461619017108248  0.986262183136759  1.0000
  H   H28       1.0  0.73865237802832  0.9538358928551602  0.013735263243752628  1.0000
  H   H29       1.0  0.3917290821219268  0.1691061266436762  0.0206152376623479  1.0000
  H   H30       1.0  0.6082564495666887  0.8309020815558057  0.9793778743966043  1.0000
  H   H31       1.0  0.5571727780199609  0.9309840419367957  0.16485531122391003  1.0000
  H   H32       1.0  0.4428337648790617  0.069029373079438  0.8351412889238503  1.0000
  H   H33       1.0  0.40022024406915346  0.9284509255873274  0.15696118725217192  1.0000
  H   H34       1.0  0.5997835737800302  0.0715564148093719  0.8430370949569903  1.0000
  C   C1        1.0  0.2735368348978255  0.0963304489117291  0.2703261170416553  1.0000
  C   C2        1.0  0.726466466817719  0.9036604032319246  0.7296730033439828  1.0000
  C   C3        1.0  0.3415783517571356  0.21451390772836726  0.2608121158254235  1.0000
  C   C4        1.0  0.6584204246582459  0.7854778122180761  0.7391958434283906  1.0000
  C   C5        1.0  0.2793455504582525  0.2661377602112367  0.1973971913616026  1.0000
  C   C6        1.0  0.7206541895026959  0.7338582987491619  0.8026133297045986  1.0000
  C   C7        1.0  0.1515950316460106  0.1984205049531056  0.1469826620351213  1.0000
  C   C8        1.0  0.8484070440719407  0.8015807608240451  0.853026836071109  1.0000
  C   C9        1.0  0.0903414790343078  0.0810015803961051  0.16153118617981477  1.0000
  C   C10       1.0  0.9096651219838138  0.9189988175782559  0.8384746034433164  1.0000
  C   C11       1.0  0.9531153001480632  0.9985450926923889  0.111946712382931  1.0000
  C   C12       1.0  0.0468889651130553  0.0014500984652202  0.888056435639406  1.0000
  C   C13       1.0  0.3285903529941834  0.0294827320510507  0.3348311468293516  1.0000
  C   C14       1.0  0.6714098150056671  0.9705055166842199  0.6651714047295273  1.0000
  C   C15       1.0  0.9539569708624  0.7997757310169504  0.4766061421457408  1.0000
  C   C16       1.0  0.04604627273405269  0.20022813816857618  0.5233889191495962  1.0000
  C   C17       1.0  0.9504214191714553  0.777275340229302  0.5750386180716163  1.0000
  C   C18       1.0  0.049587517603662014  0.222730264561811  0.4249610182064671  1.0000
  C   C19       1.0  0.011218582910380782  0.7000773394699706  0.6026658777687642  1.0000
  C   C20       1.0  0.9887795611331711  0.29992392630718  0.39733480148092326  1.0000
  C   C21       1.0  0.07374234382355381  0.6482738518091864  0.5319118779016705  1.0000
  C   C22       1.0  0.9262452118213603  0.3517213393484226  0.4680860381150822  1.0000
  C   C23       1.0  0.07220251787634879  0.6752165250884303  0.435012564960182  1.0000
  C   C24       1.0  0.9277873928986011  0.3247795338719754  0.5649876355591132  1.0000
  C   C25       1.0  0.13217721232325633  0.6244179530606289  0.3498903562713878  1.0000
  C   C26       1.0  0.8678101389887303  0.3755789737025665  0.6501062355648273  1.0000
  C   C27       1.0  0.8933400410117756  0.8808215693554401  0.4358201156790926  1.0000
  C   C28       1.0  0.10666379621044092  0.11918143202729681  0.5641734119588975  1.0000
  C   C29       1.0  0.09470311202676382  0.7083232015983327  0.9980851615134014  1.0000
  C   C30       1.0  0.9052979613995619  0.2916824031927732  0.0019114952946566002  1.0000
  C   C31       1.0  0.07112027436280499  0.6458162343026004  0.9053835239730786  1.0000
  C   C32       1.0  0.9288766824292125  0.3541867670801295  0.0946092289090146  1.0000
  C   C33       1.0  0.9392594631498737  0.5575103578073168  0.882963318219538  1.0000
  C   C34       1.0  0.06073630639061629  0.4424943791810065  0.11703103615295161  1.0000
  C   C35       1.0  0.8370495542200872  0.533808927955711  0.9539873052655494  1.0000
  C   C36       1.0  0.16294975770195924  0.46619494122981553  0.0460106637676958  1.0000
  C   C37       1.0  0.8696837626650834  0.5997792961938089  0.045460687111521715  1.0000
  C   C38       1.0  0.130322449060202  0.40022023397776246  0.954531836282129  1.0000
  C   C39       1.0  0.7705974979526715  0.5796601562670531  0.13035159991181186  1.0000
  C   C40       1.0  0.2294226789659533  0.42033763829893184  0.8696496604713815  1.0000
  C   C41       1.0  0.23034261929858255  0.8056533593262998  0.03171220557659641  1.0000
  C   C42       1.0  0.7696635536806368  0.19435484887318918  0.9682846965743366  1.0000
  N   N1        1.0  0.15149364974289634  0.0319776650776831  0.2213695571522578  1.0000
  N   N2        1.0  0.8485092433067862  0.9680166582771363  0.7786313123452189  1.0000
  N   N3        1.0  0.013467207497640672  0.7493676702454977  0.4092784625391843  1.0000
  N   N4        1.0  0.9865254477001743  0.2506301243204874  0.590721164644755  1.0000
  N   N5        1.0  0.9956198932491207  0.6852665492210974  0.06556857543213111  1.0000
  N   N6        1.0  0.00438453759886671  0.31473558435885  0.9344248843728096  1.0000
  O   O1        1.0  0.25746463586096274  0.9193919322429736  0.3279861384474287  1.0000
  O   O2        1.0  0.7425412253175594  0.0805980520978835  0.6720092614997525  1.0000
  O   O3        1.0  0.4373441695455114  0.0818407456958425  0.3894028244474441  1.0000
  O   O4        1.0  0.562651473154169  0.9181483708422249  0.610604168506697  1.0000
  O   O5        1.0  0.9188993662892386  0.8913662410794743  0.1258968868013994  1.0000
  O   O6        1.0  0.0811119449889546  0.108635892500466  0.87410027940804  1.0000
  O   O7        1.0  0.8813699621565619  0.0386961942923563  0.061281788440844295  1.0000
  O   O8        1.0  0.11863252222725862  0.9613016002736287  0.9387215630806338  1.0000
  O   O9        1.0  0.912778104360342  0.8948530726972165  0.34398506772423326  1.0000
  O   O10       1.0  0.08722417569053681  0.1051464574743548  0.6560154937923953  1.0000
  O   O11       1.0  0.8285472318373763  0.928195791566516  0.49160558779219343  1.0000
  O   O12       1.0  0.1714532673362115  0.0718063420134314  0.5083937113992647  1.0000
  O   O13       1.0  0.1296265380836772  0.6718815589592637  0.2681591642181189  1.0000
  O   O14       1.0  0.870366895699803  0.3281179712123077  0.7318457409723321  1.0000
  O   O15       1.0  0.1750742681176263  0.5446521238401516  0.3583379128338038  1.0000
  O   O16       1.0  0.8249032540083547  0.45534480292304375  0.6416556875770283  1.0000
  O   O17       1.0  0.23439818980815372  0.8503321860658204  0.1210625050173633  1.0000
  O   O18       1.0  0.7656027180312962  0.1496664763029614  0.8789350450622491  1.0000
  O   O19       1.0  0.3299338843421182  0.8371372446154055  0.973693347941726  1.0000
  O   O20       1.0  0.6700681526297672  0.1628726991896627  0.0262992744693449  1.0000
  O   O21       1.0  0.8235127082720127  0.6546895178494907  0.207596860139617  1.0000
  O   O22       1.0  0.17649745450070498  0.3453056733081183  0.7923953300664833  1.0000
  O   O23       1.0  0.6549868638885884  0.4985900194503898  0.12343161907917019  1.0000
  O   O24       1.0  0.34504633405082796  0.5013973614820912  0.8765791239436922  1.0000
  O   O25       1.0  0.42478204147867155  0.832766989755541  0.4136041738240764  1.0000
  O   O26       1.0  0.5752120440496711  0.1672186555713537  0.5863959276777918  1.0000
  O   O27       1.0  0.6981642392331864  0.0553649503186264  0.43813654253360573  1.0000
  O   O28       1.0  0.3018162703946529  0.9446232984166443  0.5618673552960445  1.0000
  O   O29       1.0  0.3596364528718611  0.0854820462105366  0.020573737298910495  1.0000
  O   O30       1.0  0.6403592972955963  0.914527029791742  0.9794268374690703  1.0000
  O   O31       1.0  0.5031354568555599  0.9803837158641001  0.15741081150193986  1.0000
  O   O32       1.0  0.4968679523277615  0.0196270957437648  0.8425877539947634  1.0000
