data_image0
_chemical_formula_structural       Cd2H24C20S4N12
_chemical_formula_sum              "Cd2 H24 C20 S4 N12"
_cell_length_a       6.889578831082793
_cell_length_b       10.037397201127783
_cell_length_c       10.037390575079288
_cell_angle_alpha    92.76908788662699
_cell_angle_beta     89.99959350197534
_cell_angle_gamma    90.0004066731994

_space_group_name_H-M_alt    "P 1"
_space_group_IT_number       1

loop_
  _space_group_symop_operation_xyz
  'x, y, z'

loop_
  _atom_site_type_symbol
  _atom_site_label
  _atom_site_symmetry_multiplicity
  _atom_site_fract_x
  _atom_site_fract_y
  _atom_site_fract_z
  _atom_site_occupancy
  Cd  Cd1       1.0  0.439036287901544  0.15156654171403258  0.8484328058311874  1.0000
  Cd  Cd2       1.0  0.9390334145513605  0.8484287752628532  0.151572004195252  1.0000
  H   H1        1.0  0.8051163634251352  0.5292475615061036  0.1723416376822939  1.0000
  H   H2        1.0  0.30511403498960726  0.47075817624217103  0.8276514372296546  1.0000
  H   H3        1.0  0.30511404147748766  0.17235006792373037  0.5292450802003756  1.0000
  H   H4        1.0  0.8051207113184731  0.8276576308483573  0.470754078257805  1.0000
  H   H5        1.0  0.8149510373302179  0.3646460085576208  0.9400926924466476  1.0000
  H   H6        1.0  0.3149511005611315  0.6353567771270006  0.05990117140776619  1.0000
  H   H7        1.0  0.31495109392535875  0.9401004946114  0.36464506064651664  1.0000
  H   H8        1.0  0.8149524954063024  0.05990623002002588  0.6353579823575615  1.0000
  H   H9        1.0  0.12390725134491015  0.3191786124790211  0.071855405454464  1.0000
  H   H10       1.0  0.623903315350674  0.6808202510235047  0.9281461543315928  1.0000
  H   H11       1.0  0.6239047800762804  0.07185367194243501  0.3191796439227872  1.0000
  H   H12       1.0  0.12390723809753007  0.928144211056647  0.6808188740817442  1.0000
  H   H13       1.0  0.181766308247937  0.3388464093843238  0.24465909024218752  1.0000
  H   H14       1.0  0.6817625076336213  0.6611507289470282  0.7553420937345053  1.0000
  H   H15       1.0  0.6817625167010987  0.2446576262894098  0.3388490717981014  1.0000
  H   H16       1.0  0.18176629919084059  0.7553395233193496  0.6611501202055123  1.0000
  H   H17       1.0  0.2288283630592574  0.18448728792873934  0.1543911885911342  1.0000
  H   H18       1.0  0.7288281224506219  0.8155120646075958  0.845609884885647  1.0000
  H   H19       1.0  0.72882958830764  0.15439021281527227  0.1844888962960098  1.0000
  H   H20       1.0  0.22882834866491206  0.8456081423015079  0.8155121233588576  1.0000
  H   H21       1.0  0.4723651842108011  0.4799628921174485  0.2768730983846126  1.0000
  H   H22       1.0  0.9723631648391375  0.5200386098508075  0.7231239121820892  1.0000
  H   H23       1.0  0.9723617186685443  0.2768772001597171  0.47996195642347317  1.0000
  H   H24       1.0  0.4723666303959887  0.7231272940773436  0.5200352155988527  1.0000
  C   C1        1.0  0.4751378173112285  0.914624558501188  0.0853746587046018  1.0000
  C   C2        1.0  0.9751336861427689  0.0853659227070338  0.9146327028640471  1.0000
  C   C3        1.0  0.6194864588096464  0.37174385769760215  0.6282545596072495  1.0000
  C   C4        1.0  0.11949337941095448  0.6282539990798879  0.3717449748520423  1.0000
  C   C5        1.0  0.4250082801787087  0.34202971899493656  0.1149527958684189  1.0000
  C   C6        1.0  0.9250045548758407  0.6579695504822922  0.885047314520122  1.0000
  C   C7        1.0  0.9250045666997123  0.11495354304949494  0.342031052801552  1.0000
  C   C8        1.0  0.4250097198321043  0.88504772127699  0.6579691652207131  1.0000
  C   C9        1.0  0.7002143130765431  0.4592121943476925  0.1290998758191364  1.0000
  C   C10       1.0  0.200215162008071  0.5407900678415273  0.8708925278556522  1.0000
  C   C11       1.0  0.20021371949898986  0.12910671398753948  0.45921008473086994  1.0000
  C   C12       1.0  0.700217207031443  0.8708985010029621  0.5407894523019579  1.0000
  C   C13       1.0  0.7030012968206732  0.37735911531932936  0.015519691805188503  1.0000
  C   C14       1.0  0.20300181357604427  0.6226431373041165  0.9844766828990856  1.0000
  C   C15       1.0  0.20300037533163356  0.015525858648523199  0.3773584466377358  1.0000
  C   C16       1.0  0.7030041865212765  0.9844793580536045  0.6226430694515059  1.0000
  C   C17       1.0  0.22893491131156196  0.29341742100996976  0.14871182308066008  1.0000
  C   C18       1.0  0.7289305854931383  0.7065789228285339  0.8512920764157386  1.0000
  C   C19       1.0  0.7289291461694559  0.14870803565092663  0.2934215995185028  1.0000
  C   C20       1.0  0.2289363506556725  0.8512893225266253  0.7065793658368165  1.0000
  S   S1        1.0  0.5608966898195432  0.8094705719484453  0.1905289769220104  1.0000
  S   S2        1.0  0.060904722779945096  0.19051898161966818  0.8094793624239783  1.0000
  S   S3        1.0  0.7736012580496947  0.4568292261724025  0.5431700470531027  1.0000
  S   S4        1.0  0.27360641995774415  0.5431703519739273  0.45682783093285206  1.0000
  N   N1        1.0  0.40912439762148983  0.9896362047425594  0.010362608530051904  1.0000
  N   N2        1.0  0.9091129101004964  0.010355974890863697  0.9896431746864138  1.0000
  N   N3        1.0  0.5037908078066379  0.3112420751656444  0.6887569074305802  1.0000
  N   N4        1.0  0.0037989789885130997  0.6887562397936191  0.3112432170841686  1.0000
  N   N5        1.0  0.5319977643301143  0.30455234390730357  0.0079760920880076  1.0000
  N   N6        1.0  0.0319945994120303  0.6954481086181871  0.9920220173801013  1.0000
  N   N7        1.0  0.0319960658445524  0.0079787705778358  0.30455318251573976  1.0000
  N   N8        1.0  0.5319977493492445  0.9920226568191733  0.6954489647137052  1.0000
  N   N9        1.0  0.5243264950277008  0.4355839011213972  0.1893184398948051  1.0000
  N   N10       1.0  0.024323856883810897  0.5644175187120621  0.8106787629597818  1.0000
  N   N11       1.0  0.0243238650442237  0.18932221992518805  0.4355846542159655  1.0000
  N   N12       1.0  0.5243279383289873  0.810681177841424  0.5644156442319641  1.0000
