data_image0
_chemical_formula_structural       Cd6H44C60O32
_chemical_formula_sum              "Cd6 H44 C60 O32"
_cell_length_a       6.674930816
_cell_length_b       15.264842163664657
_cell_length_c       19.4782
_cell_angle_alpha    113.00788628208969
_cell_angle_beta     90.0
_cell_angle_gamma    102.62875971877058

_space_group_name_H-M_alt    "P 1"
_space_group_IT_number       1

loop_
  _space_group_symop_operation_xyz
  'x, y, z'

loop_
  _atom_site_type_symbol
  _atom_site_label
  _atom_site_symmetry_multiplicity
  _atom_site_fract_x
  _atom_site_fract_y
  _atom_site_fract_z
  _atom_site_occupancy
  Cd  Cd1       1.0  0.5372758877799484  4.17630672587e-05  0.7499963638557219  1.0000
  Cd  Cd2       1.0  0.46272230076430537  0.9999580306818034  0.2500037269857245  1.0000
  Cd  Cd3       1.0  0.9437178372966315  0.8001832994210363  0.6471234526059675  1.0000
  Cd  Cd4       1.0  0.1430688172562924  0.1997227105980457  0.8527457457684022  1.0000
  Cd  Cd5       1.0  0.05628071758307843  0.19981722701341917  0.3528773760593893  1.0000
  Cd  Cd6       1.0  0.8569316021017388  0.8002785485217956  0.1472547939319426  1.0000
  H   H1        1.0  0.6974624541831674  0.5350134663160375  0.4104088288547771  1.0000
  H   H2        1.0  0.162691095939664  0.4648295327594597  0.08937124694037381  1.0000
  H   H3        1.0  0.3025387306468233  0.4649863274330316  0.5895922887755987  1.0000
  H   H4        1.0  0.8373089570829111  0.5351709936749957  0.9106295817249831  1.0000
  H   H5        1.0  0.7944851290391954  0.4488474663363534  0.590045070527168  1.0000
  H   H6        1.0  0.34614870078982574  0.5512102095585619  0.9098567230923111  1.0000
  H   H7        1.0  0.20551419131247434  0.5511515947273226  0.4099558226737586  1.0000
  H   H8        1.0  0.6538505867607896  0.44879178224667277  0.0901440410374832  1.0000
  H   H9        1.0  0.13708079473864396  0.9776309087769095  0.6314726429752824  1.0000
  H   H10       1.0  0.1599079751453658  0.0224590052751807  0.8685211686537143  1.0000
  H   H11       1.0  0.8629188919484818  0.022368884972152604  0.3685269344717028  1.0000
  H   H12       1.0  0.8400943414920479  0.9775400557884881  0.13147715757490633  1.0000
  H   H13       1.0  0.8960739862427902  0.9775700958894975  0.6300329394617279  1.0000
  H   H14       1.0  0.9188345319222153  0.0222948837477119  0.86989402590482  1.0000
  H   H15       1.0  0.1039253341088795  0.0224289651741714  0.3699664135558081  1.0000
  H   H16       1.0  0.08116964919351947  0.9777049100013572  0.13010555154216522  1.0000
  H   H17       1.0  0.5712439678336239  0.3588524525058858  0.3232527221272719  1.0000
  H   H18       1.0  0.21289217826853254  0.6409692986932856  0.17663122502312945  1.0000
  H   H19       1.0  0.42875794966727926  0.6411488066139628  0.6767478175730731  1.0000
  H   H20       1.0  0.7871063766111775  0.3590312277411699  0.8233701170366884  1.0000
  H   H21       1.0  0.9928844011857336  0.7342797139157966  0.752034787729464  1.0000
  H   H22       1.0  0.25853316800892406  0.265794081057706  0.748014153603684  1.0000
  H   H23       1.0  0.007115285501392084  0.2657200798332653  0.2479642763230601  1.0000
  H   H24       1.0  0.7414665186782018  0.7342057126913559  0.2519859372377624  1.0000
  H   H25       1.0  0.1138938028743368  0.8460699200576443  0.7970688866447233  1.0000
  H   H26       1.0  0.2675376147422029  0.15396870601711046  0.7028938130891191  1.0000
  H   H27       1.0  0.8861051511418837  0.1539284083206383  0.20293075533783167  1.0000
  H   H28       1.0  0.7324602074666019  0.8460303550465584  0.29710656671734637  1.0000
  H   H29       1.0  0.9692920951285658  0.2999723891540356  0.5644890268668589  1.0000
  H   H30       1.0  0.670549686510249  0.7001717436169557  0.935684651979983  1.0000
  H   H31       1.0  0.03070645975113713  0.7000281372804196  0.4355097482206531  1.0000
  H   H32       1.0  0.3294488683694539  0.2998287828174995  0.06431669007983488  1.0000
  H   H33       1.0  0.9146617814092723  0.18530419479827745  0.6300328468581853  1.0000
  H   H34       1.0  0.7308006276120552  0.8148091651863113  0.8701036826509566  1.0000
  H   H35       1.0  0.0853431323773606  0.814697064321564  0.36996666605323725  1.0000
  H   H36       1.0  0.2691986927396215  0.1851898958773575  0.12989669715550886  1.0000
  H   H37       1.0  0.2775931759610302  0.0794077099376551  0.5388812524073572  1.0000
  H   H38       1.0  0.19923346731806657  0.920510023047669  0.9610064252775531  1.0000
  H   H39       1.0  0.7224068770615449  0.9205928164968002  0.4611200896524609  1.0000
  H   H40       1.0  0.8007635894187717  0.0794905033867792  0.0389933765988815  1.0000
  H   H41       1.0  0.33269790035703295  0.19228009240128335  0.4740754625448673  1.0000
  H   H42       1.0  0.14134950766579382  0.8077541375611332  0.025886404006754984  1.0000
  H   H43       1.0  0.6672999218517789  0.8077189686623856  0.525924403867137  1.0000
  H   H44       1.0  0.8586494135493654  0.1922471215587152  0.97411413569359  1.0000
  C   C1        1.0  0.5562364957524721  0.20081807525685494  0.3532517147531706  1.0000
  C   C2        1.0  0.3558912009551492  0.7990740137398051  0.1467554297275414  1.0000
  C   C3        1.0  0.4437616927917888  0.7991817184922143  0.6467483760882757  1.0000
  C   C4        1.0  0.6441103502102976  0.2009265126946431  0.8532453989378155  1.0000
  C   C5        1.0  0.6165159549399917  0.30504330474173  0.4078767641606973  1.0000
  C   C6        1.0  0.31212284544770347  0.6948758936143806  0.092079130452028  1.0000
  C   C7        1.0  0.3834811017968463  0.6949572216927251  0.5921235511101983  1.0000
  C   C8        1.0  0.6878794383886487  0.30512609819085423  0.9079221470722273  1.0000
  C   C9        1.0  0.6932329393673555  0.4768419097368054  0.4298555032775724  1.0000
  C   C10       1.0  0.21677565065324705  0.523048713889068  0.06997971859409799  1.0000
  C   C11       1.0  0.30676524917690534  0.5231578840122566  0.570144587563874  1.0000
  C   C12       1.0  0.7832240360338789  0.476951079859994  0.9300198588528872  1.0000
  C   C13       1.0  0.7573859525586215  0.5017136480029265  0.5048862718481502  1.0000
  C   C14       1.0  0.25597203429583  0.4982429173080973  0.9949434789506952  1.0000
  C   C15       1.0  0.24261223598563939  0.4982861457461355  0.4951138189932962  1.0000
  C   C16       1.0  0.7440265205838801  0.5017576091263578  0.005056836320200395  1.0000
  C   C17       1.0  0.7485897709141796  0.4278765450892834  0.5310216213366488  1.0000
  C   C18       1.0  0.3212503072175608  0.5721261794013373  0.9688802820915257  1.0000
  C   C19       1.0  0.25140954943748994  0.5721225159743852  0.46897927186427774  1.0000
  C   C20       1.0  0.6787486139975984  0.427875079718504  0.031119744214357987  1.0000
  C   C21       1.0  0.6777945388465557  0.3289662154271441  0.48359593983524013  1.0000
  C   C22       1.0  0.3496156345020509  0.6710255187826277  0.016381146503825113  1.0000
  C   C23       1.0  0.3222051478405704  0.6710335783219181  0.5164036376117451  1.0000
  C   C24       1.0  0.6503832867131083  0.32897574033722077  0.983619906590981  1.0000
  C   C25       1.0  0.82885497625346  0.6065470063619216  0.5583016781560204  1.0000
  C   C26       1.0  0.22235855486569284  0.39343447025238026  0.9414663949917214  1.0000
  C   C27       1.0  0.17114171414792886  0.3934527873871404  0.44169943947434837  1.0000
  C   C28       1.0  0.7776418644923311  0.6065667888674682  0.05853311791969423  1.0000
  C   C29       1.0  0.6222589542194044  0.3788774769138072  0.3816989320030332  1.0000
  C   C30       1.0  0.24389892291309684  0.6209860373526226  0.11818753973663121  1.0000
  C   C31       1.0  0.37773996699575463  0.6211237822060411  0.6183010943028507  1.0000
  C   C32       1.0  0.7561007637740291  0.37901375639643936  0.8818130644992763  1.0000
  C   C33       1.0  0.6545592710991813  0.254224246056225  0.5156169060723101  1.0000
  C   C34       1.0  0.4014049860305633  0.745847350861105  0.9844380361004994  1.0000
  C   C35       1.0  0.34543891744507965  0.7457755476928369  0.48438267137467517  1.0000
  C   C36       1.0  0.5985950669920115  0.2541531755733502  0.015562279170396206  1.0000
  C   C37       1.0  0.8184364345213739  0.2514971910327617  0.5594710273601038  1.0000
  C   C38       1.0  0.5681787524764347  0.7486469417382295  0.9406626067187388  1.0000
  C   C39       1.0  0.18156624845148883  0.7485026027163002  0.4405285500868814  1.0000
  C   C40       1.0  0.43182279868901224  0.25135358469622565  0.059338221946617906  1.0000
  C   C41       1.0  0.7890554682646426  0.1867893480848295  0.5949167166881112  1.0000
  C   C42       1.0  0.6035701311937558  0.8133335368098358  0.9051837124247655  1.0000
  C   C43       1.0  0.21094644923625347  0.813211911035012  0.4050827962233043  1.0000
  C   C44       1.0  0.3964276910150489  0.18666552425384003  0.0948166673816999  1.0000
  C   C45       1.0  0.5929437448052114  0.1260138276277445  0.5888309370949614  1.0000
  C   C46       1.0  0.4680272291415761  0.8739976890875668  0.9111650437007198  1.0000
  C   C47       1.0  0.4070600371740055  0.87398816417749  0.4111703404292867  1.0000
  C   C48       1.0  0.5319735893529653  0.1260013719761091  0.088833795922362  1.0000
  C   C49       1.0  0.42964082106131946  0.1270608350507771  0.5440140057198732  1.0000
  C   C50       1.0  0.30367268752155513  0.8729294337882083  0.9559616049713854  1.0000
  C   C51       1.0  0.5703592319612555  0.8729396913836711  0.45598682294549064  1.0000
  C   C52       1.0  0.6963266328301148  0.1270696272754677  0.0440377480461578  1.0000
  C   C53       1.0  0.4614661457333256  0.18951420505212727  0.5068288820980129  1.0000
  C   C54       1.0  0.2729883572962352  0.81052881713498  0.9931782893472842  1.0000
  C   C55       1.0  0.538536537239537  0.8104855886969418  0.49317120874343345  1.0000
  C   C56       1.0  0.7270120620617961  0.1894724419848686  0.006821736958599398  1.0000
  C   C57       1.0  0.555184214323795  0.068953754785916  0.6359450313859015  1.0000
  C   C58       1.0  0.48691038356305694  0.9310042758958873  0.8640181374373697  1.0000
  C   C59       1.0  0.44481770317710106  0.9310475043339252  0.3640555083144434  1.0000
  C   C60       1.0  0.5130896694595182  0.06899625053856791  0.135982177833526  1.0000
  O   O1        1.0  0.6926121689337066  0.150110384750711  0.3376172360741804  1.0000
  O   O2        1.0  0.5428808904690713  0.8498630323242935  0.16243689603701478  1.0000
  O   O3        1.0  0.3073830233248103  0.8498894089983509  0.6623823413728046  1.0000
  O   O4        1.0  0.45711916255351076  0.1501374941101545  0.8375634192338809  1.0000
  O   O5        1.0  0.3743115395174641  0.16222020888499605  0.3204632818508841  1.0000
  O   O6        1.0  0.21243392785849116  0.8375898193479259  0.17954850341050832  1.0000
  O   O7        1.0  0.6256866490267968  0.837779584864073  0.6795368089905693  1.0000
  O   O8        1.0  0.7875661251640906  0.1624107070865222  0.8204523252548483  1.0000
  O   O9        1.0  0.3795141365879432  0.05975928582045501  0.6634461493881005  1.0000
  O   O10       1.0  0.3202276358878536  0.9401174167830038  0.8365983804200638  1.0000
  O   O11       1.0  0.6204874145775039  0.9402412406140003  0.33655365248833397  1.0000
  O   O12       1.0  0.679773548942137  0.0598823769660584  0.1634011970269285  1.0000
  O   O13       1.0  0.696802470859872  0.035428269372531  0.6535284894961393  1.0000
  O   O14       1.0  0.6618595571761645  0.9646543178256624  0.8463680998630068  1.0000
  O   O15       1.0  0.303199446641024  0.9645729897473105  0.3464730769931279  1.0000
  O   O16       1.0  0.3381404958464174  0.035346208608793006  0.15363272880235  1.0000
  O   O17       1.0  0.8802697927566359  0.6271230101835031  0.626756890619653  1.0000
  O   O18       1.0  0.2532462563769969  0.3729104870935203  0.8730368715136194  1.0000
  O   O19       1.0  0.11972989393049015  0.372876783565559  0.3732442270107228  1.0000
  O   O20       1.0  0.7467605218879569  0.6270915047117143  0.1269638926161747  1.0000
  O   O21       1.0  0.8342492294872059  0.6731576332689997  0.5329833485361277  1.0000
  O   O22       1.0  0.1608722633650004  0.3267967339858516  0.9667538313657714  1.0000
  O   O23       1.0  0.16574746091418294  0.3268421604800622  0.46701725569978686  1.0000
  O   O24       1.0  0.8391236615644219  0.6732045251339898  0.03324568154565107  1.0000
  O   O25       1.0  0.9957196833027311  0.9353630212840116  0.6197320095808435  1.0000
  O   O26       1.0  0.06059399087958181  0.06461039579099291  0.8802302249217391  1.0000
  O   O27       1.0  0.004279270713489297  0.0646353070942709  0.380266605612789  1.0000
  O   O28       1.0  0.9394079594223756  0.9353879325872897  0.11976787687742534  1.0000
  O   O29       1.0  0.9810811295567846  0.8018245146957668  0.7678077108492616  1.0000
  O   O30       1.0  0.17903731681304444  0.1982536763900811  0.7321419517461223  1.0000
  O   O31       1.0  0.018918557130341192  0.1981752790532951  0.23219237999218478  1.0000
  O   O32       1.0  0.8209608717312166  0.8017461173589809  0.26785813909533124  1.0000
