data_image0
_chemical_formula_structural       Ag2H34C40N4O8
_chemical_formula_sum              "Ag2 H34 C40 N4 O8"
_cell_length_a       8.355099132299923
_cell_length_b       9.77945414711091
_cell_length_c       11.765800288650103
_cell_angle_alpha    89.40803805461685
_cell_angle_beta     73.90146565053554
_cell_angle_gamma    77.62857452625687

_space_group_name_H-M_alt    "P 1"
_space_group_IT_number       1

loop_
  _space_group_symop_operation_xyz
  'x, y, z'

loop_
  _atom_site_type_symbol
  _atom_site_label
  _atom_site_symmetry_multiplicity
  _atom_site_fract_x
  _atom_site_fract_y
  _atom_site_fract_z
  _atom_site_occupancy
  Ag  Ag1       1.0  0.6382268112105154  0.44681832646686803  0.5543722826167045  1.0000
  Ag  Ag2       1.0  0.3617730632278723  0.5531815984208349  0.4456284998877822  1.0000
  H   H1        1.0  0.5362789104821246  0.30295624933263804  0.7841179608602789  1.0000
  H   H2        1.0  0.4637181903324503  0.6970447190300249  0.21588338772085797  1.0000
  H   H3        1.0  0.3168690186429688  0.34245104069248095  0.9836306542249393  1.0000
  H   H4        1.0  0.6831298518970996  0.657547831718844  0.016368650881766204  1.0000
  H   H5        1.0  0.09533334467032269  0.5679717408760749  0.026950827188741814  1.0000
  H   H6        1.0  0.904664323847939  0.43202713090237665  0.9730504289822266  1.0000
  H   H7        1.0  0.34136465961653056  0.6938603712938659  0.6814035302869503  1.0000
  H   H8        1.0  0.658634647118177  0.3061416501780414  0.3185973446277047  1.0000
  H   H9        1.0  0.12887647622898166  0.8735457127131953  0.8603881865241764  1.0000
  H   H10       1.0  0.8711248840830593  0.12645316451529004  0.13961059871095233  1.0000
  H   H11       1.0  0.9925587640744596  0.7860616057123336  0.8102410897666135  1.0000
  H   H12       1.0  0.007441394215774717  0.21393727088327094  0.18975964653279226  1.0000
  H   H13       1.0  0.7532331965097471  0.8236655595452474  0.19961813545543822  1.0000
  H   H14       1.0  0.24676827328091386  0.17633751326021496  0.800380574664246  1.0000
  H   H15       1.0  0.504244254948027  0.016432768174006195  0.28045435527059237  1.0000
  H   H16       1.0  0.49575529277434077  0.9835682032300997  0.7195447823104929  1.0000
  H   H17       1.0  0.6099331654372194  0.21156601815182793  0.9454362380987935  1.0000
  H   H18       1.0  0.3900660984333086  0.7884360015443831  0.05456294568737976  1.0000
  H   H19       1.0  0.8594962393761706  0.017632354554976394  0.8640023695202788  1.0000
  H   H20       1.0  0.1405042693803438  0.9823696675498113  0.13599655433010588  1.0000
  H   H21       1.0  0.3775641743930224  0.24310905097370744  0.33605369442018695  1.0000
  H   H22       1.0  0.622435285282819  0.7568877257412651  0.6639463638405874  1.0000
  H   H23       1.0  0.24906832484569472  0.14311236601935917  0.29026814285397523  1.0000
  H   H24       1.0  0.7509330140342525  0.8568865103212674  0.7097297968169162  1.0000
  H   H25       1.0  0.9831909125845473  0.2639233508084899  0.4304104409368606  1.0000
  H   H26       1.0  0.016808306103627078  0.7360744759742842  0.5695913546574831  1.0000
  H   H27       1.0  0.2814800098721833  0.49982284192083887  0.17665270290194007  1.0000
  H   H28       1.0  0.7185214361682172  0.5001760388590455  0.823349464590159  1.0000
  H   H29       1.0  0.03271246613714143  0.7066248640561383  0.2363253404759079  1.0000
  H   H30       1.0  0.9672893518016327  0.29337716312077333  0.7636758601314144  1.0000
  H   H31       1.0  0.7688087057277998  0.6785651862150175  0.3959674718708046  1.0000
  H   H32       1.0  0.23119394233440727  0.3214336951977401  0.6040327445570173  1.0000
  H   H33       1.0  0.6856102560556395  0.9270416709135035  0.4925945884837548  1.0000
  H   H34       1.0  0.3143966943682059  0.07295512114077239  0.5074047557265404  1.0000
  C   C1        1.0  0.43985574071335515  0.40057624007667414  0.8093532737343028  1.0000
  C   C2        1.0  0.5601438284411062  0.5994247322152831  0.19064670941102702  1.0000
  C   C3        1.0  0.31728724945651987  0.42257319361070966  0.9186479647461215  1.0000
  C   C4        1.0  0.6827098299259691  0.5774277738640946  0.08135253827077796  1.0000
  C   C5        1.0  0.19425010992885217  0.5479664877377459  0.9428586596680905  1.0000
  C   C6        1.0  0.8057460298515766  0.452033429924235  0.057142902643747134  1.0000
  C   C7        1.0  0.19771607040019035  0.6480795755900602  0.8573944692672132  1.0000
  C   C8        1.0  0.8022825377201247  0.35192034600122196  0.1426057276088103  1.0000
  C   C9        1.0  0.32837106031447416  0.6191008514971584  0.7511669252200693  1.0000
  C   C10       1.0  0.6716275478058408  0.38089907009412355  0.2488332716559612  1.0000
  C   C11       1.0  0.06654852520083678  0.7836165601112411  0.8750948501033381  1.0000
  C   C12       1.0  0.9334525941235369  0.21638336718503842  0.12490567246536  1.0000
  C   C13       1.0  0.8219069664358684  0.9059202369779057  0.026933844816433388  1.0000
  C   C14       1.0  0.17809450335479232  0.09408283582755671  0.9730648653032506  1.0000
  C   C15       1.0  0.7205407668236108  0.9087070314065285  0.14393086956588522  1.0000
  C   C16       1.0  0.27945945808106404  0.0912960389903574  0.8560681004895871  1.0000
  C   C17       1.0  0.5793549032902946  0.0178483832932841  0.18905827224985225  1.0000
  C   C18       1.0  0.4206436619658479  0.9821515365222949  0.8109402334976895  1.0000
  C   C19       1.0  0.5382238407103729  0.12688469382690218  0.11696844458714396  1.0000
  C   C20       1.0  0.4617757070120022  0.8731162775772033  0.8830306929939414  1.0000
  C   C21       1.0  0.6407875918530194  0.1253512105000283  0.00048443135671766133  1.0000
  C   C22       1.0  0.35921195586935545  0.8746497609040773  0.9995147062243678  1.0000
  C   C23       1.0  0.7816991429982992  0.0154510465105275  0.9548297962843154  1.0000
  C   C24       1.0  0.2183026106442013  0.9845509780028296  0.04516886763028794  1.0000
  C   C25       1.0  0.2988634934534105  0.23964677760162093  0.2747159873331457  1.0000
  C   C26       1.0  0.7011359876545173  0.7603500000012032  0.725284916491866  1.0000
  C   C27       1.0  0.1539977718984673  0.36605698994573993  0.3001323648803052  1.0000
  C   C28       1.0  0.8460020811078339  0.6339429340541185  0.6998675720599369  1.0000
  C   C29       1.0  0.0021616980969128238  0.360499581605147  0.38612131795572696  1.0000
  C   C30       1.0  0.9978372153073284  0.6394992925818812  0.613879678279453  1.0000
  C   C31       1.0  0.1656968844788196  0.4924057093324806  0.24499493421480892  1.0000
  C   C32       1.0  0.834303273811415  0.5075931672631242  0.7550058020845899  1.0000
  C   C33       1.0  0.02741231824223439  0.6069635324871354  0.27803310438795154  1.0000
  C   C34       1.0  0.9725862684459942  0.39303638821629516  0.7219662469238345  1.0000
  C   C35       1.0  0.8817106426790816  0.593330148279314  0.36590065680106704  1.0000
  C   C36       1.0  0.11828669912315352  0.4066697700155401  0.6340989544465077  1.0000
  C   C37       1.0  0.6031826490179667  0.15829886407687607  0.5122350954046484  1.0000
  C   C38       1.0  0.3968202614639936  0.8416989681559246  0.4877642292538484  1.0000
  C   C39       1.0  0.5757662973600545  0.013576601414456501  0.4993043576021495  1.0000
  C   C40       1.0  0.42423844714366515  0.9864191375305681  0.5006954602746349  1.0000
  N   N1        1.0  0.4462497940746106  0.4980422375263131  0.7272872641530912  1.0000
  N   N2        1.0  0.5537485516259582  0.501958733244919  0.27271382449226433  1.0000
  N   N3        1.0  0.8696412983788802  0.471481149556361  0.41881095516117767  1.0000
  N   N4        1.0  0.1303597995134069  0.5285187768520742  0.5811887218432761  1.0000
  O   O1        1.0  0.734156236395563  0.1694657507737247  0.5429773635792403  1.0000
  O   O2        1.0  0.26584339705516413  0.830535224181787  0.4570251562588156  1.0000
  O   O3        1.0  0.4914052293152977  0.26109011400105697  0.4929705938226763  1.0000
  O   O4        1.0  0.508597943586409  0.7389066690517935  0.5070278390664955  1.0000
  O   O5        1.0  0.9562097091958962  0.7919842513164781  0.9925111825232736  1.0000
  O   O6        1.0  0.043791824891030715  0.2080188241525391  0.007490064289136506  1.0000
  O   O7        1.0  0.4004630479720603  0.23826976217047505  0.15417597936553318  1.0000
  O   O8        1.0  0.5995337046944088  0.7617322518207317  0.8458228787279725  1.0000
