data_image0
_chemical_formula_structural       Mg6H54C108O30
_chemical_formula_sum              "Mg6 H54 C108 O30"
_cell_length_a       6.917323851200858
_cell_length_b       43.61599709472162
_cell_length_c       43.61882533542488
_cell_angle_alpha    119.72687138574365
_cell_angle_beta     93.0348997906082
_cell_angle_gamma    93.02714897665638

_space_group_name_H-M_alt    "P 1"
_space_group_IT_number       1

loop_
  _space_group_symop_operation_xyz
  'x, y, z'

loop_
  _atom_site_type_symbol
  _atom_site_label
  _atom_site_symmetry_multiplicity
  _atom_site_fract_x
  _atom_site_fract_y
  _atom_site_fract_z
  _atom_site_occupancy
  Mg  Mg1       1.0  0.9869956767303235  0.6702961592165835  0.31142080647919795  1.0000
  Mg  Mg2       1.0  0.6756341538296978  0.6885827354487617  0.3588795872428391  1.0000
  Mg  Mg3       1.0  0.31660454199455745  0.6411142392827711  0.3297133547579917  1.0000
  Mg  Mg4       1.0  0.7055338890571788  0.33745159984006523  0.692350276927229  1.0000
  Mg  Mg5       1.0  0.013304076988490005  0.3076771725845973  0.645088520115081  1.0000
  Mg  Mg6       1.0  0.3681756003914812  0.35495826463618835  0.662580563416803  1.0000
  H   H1        1.0  0.8772136169434077  0.9878502538032805  0.6244476476524098  1.0000
  H   H2        1.0  0.25360020199888567  0.3755400787081341  0.36341369839410476  1.0000
  H   H3        1.0  0.8900098782905063  0.6365619039866671  0.01217509228732881  1.0000
  H   H4        1.0  0.30101314080715  0.9723373227376298  0.553968410335507  1.0000
  H   H5        1.0  0.7474847426651579  0.44593940886606015  0.4182621150905844  1.0000
  H   H6        1.0  0.3289528182743311  0.5817099806285243  0.027695712878831078  1.0000
  H   H7        1.0  0.3867891696112478  0.849976966060964  0.46557512895640213  1.0000
  H   H8        1.0  0.9218747160652466  0.5344483916830853  0.3843626927545002  1.0000
  H   H9        1.0  0.5373857339985904  0.6156056451710298  0.1500648648310089  1.0000
  H   H10       1.0  0.6818097728596513  0.8345575714846872  0.42509232972246724  1.0000
  H   H11       1.0  0.257224421687681  0.574893084957125  0.40952775832031546  1.0000
  H   H12       1.0  0.8476350273011376  0.5904335680656416  0.16535063037093067  1.0000
  H   H13       1.0  0.8235479621748709  0.8902069473950008  0.4784323541437771  1.0000
  H   H14       1.0  0.3459027756614717  0.5215504669423368  0.41178595223291836  1.0000
  H   H15       1.0  0.9340188967680447  0.5881109042981548  0.10972069458452428  1.0000
  H   H16       1.0  0.7161101668394992  0.7721098435215197  0.3797731002299044  1.0000
  H   H17       1.0  0.3365415969283416  0.6202173472283831  0.39239932942952976  1.0000
  H   H18       1.0  0.9437502962264401  0.6076690955541223  0.22781832883227784  1.0000
  H   H19       1.0  0.4176418262121757  0.7871782276218794  0.4204220026909055  1.0000
  H   H20       1.0  0.9973486805705392  0.5796276298254385  0.36675893392367687  1.0000
  H   H21       1.0  0.6305709366620746  0.6332195119315428  0.21289818646834385  1.0000
  H   H22       1.0  0.46975050056588685  0.8664052230790347  0.5149062882881735  1.0000
  H   H23       1.0  0.9556349569581001  0.48511828568641846  0.3515409891714255  1.0000
  H   H24       1.0  0.6035130271860538  0.6485066600751423  0.13360750311328218  1.0000
  H   H25       1.0  0.795409142449131  0.89194995712613  0.5470094578628846  1.0000
  H   H26       1.0  0.249140876891488  0.4529930855125386  0.344968836417074  1.0000
  H   H27       1.0  0.9037748199627557  0.6550249570903048  0.1080696905088273  1.0000
  H   H28       1.0  0.0041177064113992815  0.949195090282728  0.5625682059523524  1.0000
  H   H29       1.0  0.44216862253642103  0.4373957685017088  0.3865787158577304  1.0000
  H   H30       1.0  0.05528222662498906  0.6133742498973759  0.050852051225710675  1.0000
  H   H31       1.0  0.4580179954541137  0.0189772493151068  0.5586063227226674  1.0000
  H   H32       1.0  0.8996723713061171  0.4413526242401673  0.4603009062443133  1.0000
  H   H33       1.0  0.43895952813510053  0.5396979179386959  0.9810672485835636  1.0000
  H   H34       1.0  0.28751920005398546  0.14583853908881386  0.5997605582857872  1.0000
  H   H35       1.0  0.6875447932684863  0.40020482261175516  0.5460140581301758  1.0000
  H   H36       1.0  0.141232475277917  0.454032225235764  0.8541895899992367  1.0000
  H   H37       1.0  0.004988850714582298  0.1708726034293875  0.6318047857264304  1.0000
  H   H38       1.0  0.3729861776042398  0.3681632684057021  0.5390045941747345  1.0000
  H   H39       1.0  0.8337814934821138  0.460948619550777  0.829153027230113  1.0000
  H   H40       1.0  0.8460270153253617  0.11069315846295069  0.6093216005194009  1.0000
  H   H41       1.0  0.23654053182261237  0.3906454852627447  0.5013105127701322  1.0000
  H   H42       1.0  0.7351481600742106  0.4986013579913332  0.8893544441629542  1.0000
  H   H43       1.0  0.9789313993731525  0.23463659106719353  0.6522097911044326  1.0000
  H   H44       1.0  0.326598039723038  0.3477698255058145  0.5823726499388328  1.0000
  H   H45       1.0  0.7440152655780778  0.41761246945264213  0.765395557245071  1.0000
  H   H46       1.0  0.26727965872246523  0.21005641692715216  0.6170413302951019  1.0000
  H   H47       1.0  0.6503366078184242  0.3830244339244188  0.5930341952791947  1.0000
  H   H48       1.0  0.056846371562137656  0.4070593987581717  0.7899820758111743  1.0000
  H   H49       1.0  0.6482232075343999  0.11178094065594725  0.6582262189800259  1.0000
  H   H50       1.0  0.9898985158159233  0.341722691973004  0.4534836658996113  1.0000
  H   H51       1.0  0.5366784531347476  0.5464532710096035  0.8882458601815342  1.0000
  H   H52       1.0  0.804263767398183  0.07408758457530949  0.6787829268095393  1.0000
  H   H53       1.0  0.12592824754596424  0.3212031577568196  0.3952978526039032  1.0000
  H   H54       1.0  0.7309480177646321  0.6046436881712154  0.9259235982814785  1.0000
  C   C1        1.0  0.7263596629262636  0.0256462917299416  0.6300209246347136  1.0000
  C   C2        1.0  0.09699695447172732  0.3699657710970783  0.3956177827887686  1.0000
  C   C3        1.0  0.7014419449712931  0.6043294879706735  0.9743568493529222  1.0000
  C   C4        1.0  0.6227829192530976  0.0088625818601358  0.5957566584660725  1.0000
  C   C5        1.0  0.02754334639969606  0.40421530511858345  0.413071332621726  1.0000
  C   C6        1.0  0.6142852298597957  0.5869036003961482  0.9911565029500407  1.0000
  C   C7        1.0  0.5896454033268697  0.9698564852839412  0.5726022729527074  1.0000
  C   C8        1.0  0.017746153003358158  0.4273825590108373  0.39724011678083565  1.0000
  C   C9        1.0  0.6201332272061819  0.6027635615946494  0.03016083785104225  1.0000
  C   C10       1.0  0.4108917851269637  0.9548121148800277  0.5526148405440664  1.0000
  C   C11       1.0  0.8589512372213688  0.44734483173242257  0.4021602559762129  1.0000
  C   C12       1.0  0.4564600069923799  0.5978387294666803  0.04521012124112635  1.0000
  C   C13       1.0  0.3661452167657798  0.9180554216348751  0.5299766440433938  1.0000
  C   C14       1.0  0.8368172391040858  0.4699980725129508  0.3880619915755474  1.0000
  C   C15       1.0  0.4484026250199378  0.6119293161444546  0.08195479042895927  1.0000
  C   C16       1.0  0.1726085224426367  0.9075308534563997  0.5101266257095811  1.0000
  C   C17       1.0  0.6630361442522741  0.4898298308067551  0.39735121511790067  1.0000
  C   C18       1.0  0.2654276936679025  0.6026002425395092  0.09248122306735944  1.0000
  C   C19       1.0  0.11305432151294065  0.87343392334229  0.4768094423952717  1.0000
  C   C20       1.0  0.6368752097526736  0.523144639282357  0.39656714772077345  1.0000
  C   C21       1.0  0.2401767634725758  0.6033626648352026  0.1265661280690367  1.0000
  C   C22       1.0  0.2312073368024626  0.8465628521328908  0.45809617925879537  1.0000
  C   C23       1.0  0.7737209197867543  0.5418988733831185  0.3884517696576139  1.0000
  C   C24       1.0  0.3851775427771286  0.6115241717551995  0.15345260241632983  1.0000
  C   C25       1.0  0.1524332138878464  0.8136511229754434  0.42874400915523125  1.0000
  C   C26       1.0  0.7241024145889836  0.5712798074983142  0.3849441435065586  1.0000
  C   C27       1.0  0.33909614825618917  0.6150557886513256  0.18634658144934232  1.0000
  C   C28       1.0  0.9496588162707978  0.808818791239794  0.41680808995174334  1.0000
  C   C29       1.0  0.5332639225754079  0.5832096329069857  0.39206009888968646  1.0000
  C   C30       1.0  0.14105360642905396  0.6079470087853449  0.19114236093793818  1.0000
  C   C31       1.0  0.8345474001291322  0.8376480209726579  0.4346980221640208  1.0000
  C   C32       1.0  0.4003898902290074  0.5653017138907471  0.4029943941334934  1.0000
  C   C33       1.0  0.997286074694436  0.5969912781964408  0.16229435107840826  1.0000
  C   C34       1.0  0.9124053471039275  0.8684472691962172  0.4639474243947105  1.0000
  C   C35       1.0  0.44909168159686874  0.536026258585977  0.4044888570705323  1.0000
  C   C36       1.0  0.04450150044434754  0.5954439408153149  0.1315109827153264  1.0000
  C   C37       1.0  0.870101521052497  0.7758423998611047  0.38873648720919335  1.0000
  C   C38       1.0  0.48158153266312087  0.6112662650050352  0.38714682650923027  1.0000
  C   C39       1.0  0.09410737550205533  0.6128705113294897  0.2241067227651212  1.0000
  C   C40       1.0  0.977991071979396  0.7466470894312492  0.37276195980626153  1.0000
  C   C41       1.0  0.6052022539890629  0.6272499078553365  0.3738976614845341  1.0000
  C   C42       1.0  0.2310062056007709  0.6261011837371342  0.2533404347773143  1.0000
  C   C43       1.0  0.18343224072893344  0.7513556031163658  0.38458327614662113  1.0000
  C   C44       1.0  0.7988129999031058  0.6154391170033691  0.3667847326517018  1.0000
  C   C45       1.0  0.4318224242858049  0.6332354131154572  0.24867162876642357  1.0000
  C   C46       1.0  0.2639564273158753  0.7845114577280156  0.4115785750231422  1.0000
  C   C47       1.0  0.8525621818307343  0.5884665848888133  0.37296370851081656  1.0000
  C   C48       1.0  0.4795100459444796  0.6270475458212273  0.2155239332591207  1.0000
  C   C49       1.0  0.3098528766353397  0.7217859547698566  0.37074471108934404  1.0000
  C   C50       1.0  0.9390421927902679  0.6292778571734274  0.3510667917063087  1.0000
  C   C51       1.0  0.5878729735504109  0.6489422860117668  0.27823539092946686  1.0000
  C   C52       1.0  0.5041688665432035  0.8950037366892051  0.5289839116923717  1.0000
  C   C53       1.0  0.9759825454709342  0.4710411753434514  0.366062215076539  1.0000
  C   C54       1.0  0.6095188434155572  0.6339612946359806  0.10500904832045414  1.0000
  C   C55       1.0  0.6846841196317824  0.9091281110202726  0.5477395852592648  1.0000
  C   C56       1.0  0.13770277012871185  0.45226982481455735  0.3614215628223717  1.0000
  C   C57       1.0  0.7759063770044747  0.6385823127634964  0.09088265562810692  1.0000
  C   C58       1.0  0.7307821963016393  0.9459430775727068  0.5678566572874642  1.0000
  C   C59       1.0  0.16364614749634396  0.4321244045883858  0.378083276332667  1.0000
  C   C60       1.0  0.785235022263187  0.6219030856746528  0.05406700224917668  1.0000
  C   C61       1.0  0.5352127830905147  0.03068670094570079  0.5849344296630079  1.0000
  C   C62       1.0  0.9505316610302258  0.41502657083410094  0.44568959305603767  1.0000
  C   C63       1.0  0.5046508888668411  0.554279465680217  0.969341104555596  1.0000
  C   C64       1.0  0.5465201557160739  0.0675136814024029  0.6063116531369772  1.0000
  C   C65       1.0  0.9404098993168261  0.3936565946176884  0.4611442151968887  1.0000
  C   C66       1.0  0.47916839602513045  0.5388087157516991  0.9325125330109784  1.0000
  C   C67       1.0  0.4550526512742294  0.08904452471225709  0.5925718887374103  1.0000
  C   C68       1.0  0.8624803514355149  0.40739174102871084  0.49639754824988097  1.0000
  C   C69       1.0  0.3658452369057911  0.5035758068392793  0.9109776491817881  1.0000
  C   C70       1.0  0.5533532170977864  0.1250341851876726  0.6045775810177075  1.0000
  C   C71       1.0  0.9486236869970026  0.3954086346750997  0.5204059928738117  1.0000
  C   C72       1.0  0.427992299658399  0.47958766560120836  0.8749881232422964  1.0000
  C   C73       1.0  0.4437832912470441  0.15184526787560768  0.6073548744684771  1.0000
  C   C74       1.0  0.8362654953804807  0.3926472822475517  0.5444470693344953  1.0000
  C   C75       1.0  0.2915046076019152  0.45559182231903605  0.8481757420811106  1.0000
  C   C76       1.0  0.5309488394470349  0.1867034346953673  0.6204589666746543  1.0000
  C   C77       1.0  0.9103822586939926  0.37954454648438934  0.5662061067913482  1.0000
  C   C78       1.0  0.3438490216921083  0.4338347097406513  0.8133268067018306  1.0000
  C   C79       1.0  0.7372669328284545  0.1939827018042664  0.6301925765845624  1.0000
  C   C80       1.0  0.10690114343416464  0.36978197723880146  0.5637271880094373  1.0000
  C   C81       1.0  0.5429031618465743  0.4362905724707176  0.8060500410844113  1.0000
  C   C82       1.0  0.8478803890866401  0.16559437174213085  0.6252580914710961  1.0000
  C   C83       1.0  0.22239430602291319  0.37468736559851107  0.5402517262277442  1.0000
  C   C84       1.0  0.6819342522218433  0.4597206761609129  0.8344387658441759  1.0000
  C   C85       1.0  0.7587529429013387  0.13218537482824638  0.6130355061822073  1.0000
  C   C86       1.0  0.14554367562841003  0.38692635509738676  0.5190797056800844  1.0000
  C   C87       1.0  0.6262966214943617  0.48086719271540096  0.8678561392355206  1.0000
  C   C88       1.0  0.8229217576208756  0.22884407897373638  0.6446020780291448  1.0000
  C   C89       1.0  0.17826751493565496  0.35541167902751164  0.5842107455239898  1.0000
  C   C90       1.0  0.5938010055657088  0.41581585024879075  0.771198134299233  1.0000
  C   C91       1.0  0.7156607593375028  0.25693282859415933  0.6500979923940873  1.0000
  C   C92       1.0  0.06561335781970709  0.3499420920597558  0.6068260054357281  1.0000
  C   C93       1.0  0.4584657908894556  0.3932261783986704  0.7431024107942719  1.0000
  C   C94       1.0  0.5081515578143723  0.24955438988254747  0.6394485440071733  1.0000
  C   C95       1.0  0.8687465481987289  0.3605965436380245  0.61011085104969  1.0000
  C   C96       1.0  0.2583164100893924  0.38995242263884927  0.7504771209141053  1.0000
  C   C97       1.0  0.4230800245127426  0.21503236632106845  0.6250539825770713  1.0000
  C   C98       1.0  0.798047185665382  0.3749875272881482  0.5899810352286678  1.0000
  C   C99       1.0  0.2076723542283929  0.4100785042084709  0.7849959531010808  1.0000
  C   C100      1.0  0.3821135122771864  0.2772663893640441  0.6427093588420192  1.0000
  C   C101      1.0  0.7394809336728584  0.35735032263083605  0.6345812974733106  1.0000
  C   C102      1.0  0.10465506994314917  0.3654846752069573  0.722762199589944  1.0000
  C   C103      1.0  0.6420364673453065  0.0831793932252722  0.6406644167673079  1.0000
  C   C104      1.0  0.0015060140795953286  0.3592994873987934  0.44245884549562214  1.0000
  C   C105      1.0  0.55916872512298  0.5574814999784649  0.9168442184438064  1.0000
  C   C106      1.0  0.7285170571734129  0.06245792966070948  0.652348492687949  1.0000
  C   C107      1.0  0.07655598298076426  0.34763340458907516  0.4100841808498784  1.0000
  C   C108      1.0  0.6667121282758972  0.5898518954862696  0.9375539504746797  1.0000
  O   O1        1.0  0.4881917924100918  0.7264657964584202  0.3821963956855468  1.0000
  O   O2        1.0  0.10589027786087973  0.6178076089827016  0.34427924465933296  1.0000
  O   O3        1.0  0.7615180781166586  0.6557218293867066  0.2735646192830146  1.0000
  O   O4        1.0  0.23362876606782368  0.6906569983730717  0.3466651571535165  1.0000
  O   O5        1.0  0.8870572240296324  0.6533740765192987  0.34403705916731997  1.0000
  O   O6        1.0  0.542848027648553  0.655957283906389  0.3093538524016281  1.0000
  O   O7        1.0  0.8849757864773194  0.7154582287480977  0.3479380522370689  1.0000
  O   O8        1.0  0.5368981301736325  0.652077370575526  0.3675477959689743  1.0000
  O   O9        1.0  0.16905375503162648  0.6324449257728588  0.28451323170076387  1.0000
  O   O10       1.0  0.20289182055166322  0.2697561246431307  0.6313702760823218  1.0000
  O   O11       1.0  0.5717124800203378  0.3687373423145317  0.6384549368589632  1.0000
  O   O12       1.0  0.9329634476788512  0.3616095044275979  0.7302602737790237  1.0000
  O   O13       1.0  0.4598243261089863  0.3095945653483767  0.6577241914712033  1.0000
  O   O14       1.0  0.8021470078377958  0.34230285629157453  0.6518587179288601  1.0000
  O   O15       1.0  0.15009660612499687  0.3481986178750915  0.6904422943385882  1.0000
  O   O16       1.0  0.8090353742448927  0.289576466514049  0.6648467801111622  1.0000
  O   O17       1.0  0.14431732046686113  0.33518067618717856  0.6247048923886708  1.0000
  O   O18       1.0  0.5192801750928809  0.3753385306097528  0.7104687714308112  1.0000
  O   O19       1.0  0.8195887990865385  0.007987531626319799  0.6438002891962924  1.0000
  O   O20       1.0  0.17671587965562444  0.3561848335434589  0.36420843020354704  1.0000
  O   O21       1.0  0.8125410417016283  0.6357437908374167  0.9919950497462436  1.0000
  O   O22       1.0  0.04512127498197298  0.9290389403294763  0.5218233035735903  1.0000
  O   O23       1.0  0.5237430361438413  0.47813977122152823  0.4071442548551545  1.0000
  O   O24       1.0  0.11635687160311649  0.5928012019323815  0.07098974968552335  1.0000
  O   O25       1.0  0.9169464847714294  0.9589968065693308  0.5826930725021026  1.0000
  O   O26       1.0  0.3348875597410056  0.4172635466436247  0.3762795791606805  1.0000
  O   O27       1.0  0.9583507256932932  0.6236928924796814  0.041030974963945255  1.0000
  O   O28       1.0  0.30450242346411466  0.0777072791839615  0.5721653458941417  1.0000
  O   O29       1.0  0.7323045802976509  0.4277809696926552  0.5054197795443329  1.0000
  O   O30       1.0  0.22646859689817223  0.49455236065470126  0.9223029247606573  1.0000
