data_image0
_chemical_formula_structural       Cd8H96C128N8O52
_chemical_formula_sum              "Cd8 H96 C128 N8 O52"
_cell_length_a       13.118954040156245
_cell_length_b       15.373336199695961
_cell_length_c       19.173884248106994
_cell_angle_alpha    101.44891359708272
_cell_angle_beta     89.99961400141962
_cell_angle_gamma    89.99968185031638

_space_group_name_H-M_alt    "P 1"
_space_group_IT_number       1

loop_
  _space_group_symop_operation_xyz
  'x, y, z'

loop_
  _atom_site_type_symbol
  _atom_site_label
  _atom_site_symmetry_multiplicity
  _atom_site_fract_x
  _atom_site_fract_y
  _atom_site_fract_z
  _atom_site_occupancy
  Cd  Cd1       1.0  0.6605006677395765  0.777890918703356  0.6038367951686536  1.0000
  Cd  Cd2       1.0  0.1605031364070655  0.22210534928612444  0.8961615776048927  1.0000
  Cd  Cd3       1.0  0.3395045927395018  0.22210933561516544  0.3961632944628731  1.0000
  Cd  Cd4       1.0  0.839495263787214  0.7778935195434187  0.10383570257317835  1.0000
  Cd  Cd5       1.0  0.7977152314554632  0.7470956172773171  0.757151543315359  1.0000
  Cd  Cd6       1.0  0.2977121272778049  0.2529024127989885  0.7428438253103308  1.0000
  Cd  Cd7       1.0  0.20228316876520583  0.25289791957087704  0.24284391872001973  1.0000
  Cd  Cd8       1.0  0.7022816993390322  0.7471038137760571  0.2571571322953757  1.0000
  H   H1        1.0  0.7309671155746784  0.8590584984689966  0.4533280193328792  1.0000
  H   H2        1.0  0.2309697044508283  0.14093183802915374  0.04667384716393738  1.0000
  H   H3        1.0  0.26902213755772664  0.14093055672398686  0.546674094133344  1.0000
  H   H4        1.0  0.7690370804858946  0.8590680094419906  0.9533376590512145  1.0000
  H   H5        1.0  0.6641786764865787  0.7734395331057295  0.42447961171112764  1.0000
  H   H6        1.0  0.16418575698983065  0.22655645956792367  0.07552078608887307  1.0000
  H   H7        1.0  0.3358090521468072  0.22655076756309703  0.5755190313998638  1.0000
  H   H8        1.0  0.8358179789412503  0.7734446100439242  0.9244862031366237  1.0000
  H   H9        1.0  0.5469522244974601  0.4902601242186292  0.748618326810252  1.0000
  H   H10       1.0  0.04696182906862132  0.5097410020226008  0.7513896376212938  1.0000
  H   H11       1.0  0.45304083992694916  0.5097321321649203  0.2513790356416122  1.0000
  H   H12       1.0  0.9530380955799915  0.4902639907326003  0.24861531364611972  1.0000
  H   H13       1.0  0.6764640451610762  0.549543403799106  0.5575306594173737  1.0000
  H   H14       1.0  0.1764805674904935  0.4504629659031209  0.9424800596260922  1.0000
  H   H15       1.0  0.32353054372527623  0.4504562453210637  0.44247195040303194  1.0000
  H   H16       1.0  0.8235361267743927  0.5495459966124159  0.057524946902674394  1.0000
  H   H17       1.0  0.4925302311981667  0.31340202300522435  0.5489157022346516  1.0000
  H   H18       1.0  0.992532610944075  0.6866029611053504  0.9510875754765987  1.0000
  H   H19       1.0  0.5074696935133433  0.6865942148386635  0.4510822388258544  1.0000
  H   H20       1.0  0.007473411769744602  0.3134019499421257  0.04891371253810918  1.0000
  H   H21       1.0  0.7514045202001683  0.45463147693980926  0.4548215480552002  1.0000
  H   H22       1.0  0.25140827186962167  0.5453833344963284  0.04518586473977136  1.0000
  H   H23       1.0  0.24859845352422388  0.5453680671259205  0.545176351867333  1.0000
  H   H24       1.0  0.748609184640252  0.45463088997894363  0.9548178200133816  1.0000
  H   H25       1.0  0.65078884331939  0.5278535882355654  0.44350123490799814  1.0000
  H   H26       1.0  0.15079296713787474  0.4721498085437758  0.05650134581990328  1.0000
  H   H27       1.0  0.34920955684900445  0.4721460492031396  0.5565008515823064  1.0000
  H   H28       1.0  0.8492199158786067  0.5278583620344149  0.9434978077686509  1.0000
  H   H29       1.0  0.5169834316269687  0.23809421221648813  0.27977281734279547  1.0000
  H   H30       1.0  0.016968048733865305  0.7619048408718994  0.22023654919311036  1.0000
  H   H31       1.0  0.48302411563563663  0.7619027125242109  0.7202262667729469  1.0000
  H   H32       1.0  0.9830250156277319  0.23809551851264385  0.7797682503470255  1.0000
  H   H33       1.0  0.5994919401063116  0.2747667211986381  0.17132313147899225  1.0000
  H   H34       1.0  0.099482604879654  0.7252310734986833  0.32868148704259426  1.0000
  H   H35       1.0  0.400511033634004  0.725228841385906  0.8286741898155652  1.0000
  H   H36       1.0  0.9005028369338532  0.27476467585729125  0.6713242074111248  1.0000
  H   H37       1.0  0.7224555415596188  0.39992407886121834  0.18321802883546912  1.0000
  H   H38       1.0  0.22244790826343325  0.6000763681277732  0.31679004210416645  1.0000
  H   H39       1.0  0.2775459076430878  0.6000716004268014  0.8167845256569846  1.0000
  H   H40       1.0  0.7775443938501498  0.3999226524287991  0.6832140412427632  1.0000
  H   H41       1.0  0.7647621566096562  0.49129124208371866  0.30109222204400504  1.0000
  H   H42       1.0  0.26475398386670435  0.5087155135773141  0.19891343492781732  1.0000
  H   H43       1.0  0.23523929259535245  0.5087070331756748  0.6989081016036349  1.0000
  H   H44       1.0  0.7352459407790448  0.49129209848901906  0.8010903321334976  1.0000
  H   H45       1.0  0.0040650542714076  0.9940094327515749  0.7498443477679186  1.0000
  H   H46       1.0  0.5040639591845634  0.005982965853682698  0.7501463818047254  1.0000
  H   H47       1.0  0.9959356326828728  0.0059888191703621  0.250154929243152  1.0000
  H   H48       1.0  0.4959367278062886  0.9940112112279919  0.24984813002349418  1.0000
  H   H49       1.0  0.8216313270594501  0.9409248668114711  0.5606188691203184  1.0000
  H   H50       1.0  0.3216298755959316  0.059080200596568495  0.9393721923378848  1.0000
  H   H51       1.0  0.17836554861006704  0.059074712282445284  0.4393806007774756  1.0000
  H   H52       1.0  0.678367000104281  0.9409218460999823  0.06061929020214048  1.0000
  H   H53       1.0  0.031871817845754415  0.16223081557964036  0.5972546399235553  1.0000
  H   H54       1.0  0.5318622383100405  0.8377654772302349  0.9027401748221349  1.0000
  H   H55       1.0  0.9681235332992132  0.8377675180477056  0.40274830033806797  1.0000
  H   H56       1.0  0.4681338751424492  0.16223262299710228  0.09725229905014027  1.0000
  H   H57       1.0  0.012979949316942905  0.14588996351282893  0.47586941153686974  1.0000
  H   H58       1.0  0.5129762290915211  0.8541074132739935  0.024123038433629094  1.0000
  H   H59       1.0  0.9870176885773392  0.8541110594380112  0.5241354844283704  1.0000
  H   H60       1.0  0.4870229333583681  0.14589406319448978  0.9758725342168331  1.0000
  H   H61       1.0  0.920932195542328  0.22090412371022689  0.5224736475066292  1.0000
  H   H62       1.0  0.4209363040231936  0.7790937860815959  0.9775195531480915  1.0000
  H   H63       1.0  0.07906925367314703  0.7790928010489964  0.47752543662630126  1.0000
  H   H64       1.0  0.5790598093873529  0.22091036805671385  0.022477451901664787  1.0000
  H   H65       1.0  0.6856611957882421  0.0215396257660032  0.3349406538973056  1.0000
  H   H66       1.0  0.18565864392950007  0.9784568066011657  0.1650555327410074  1.0000
  H   H67       1.0  0.31434482695964056  0.9784605702007738  0.6650568191352801  1.0000
  H   H68       1.0  0.8143359449820978  0.021547941102660697  0.8349384288348884  1.0000
  H   H69       1.0  0.7126901595498654  0.11585115504549039  0.24386733689188123  1.0000
  H   H70       1.0  0.21269039240623044  0.8841545082003744  0.2561347574139673  1.0000
  H   H71       1.0  0.28731433863115546  0.8841571089172572  0.7561360032751876  1.0000
  H   H72       1.0  0.7873110568055851  0.11585220688343867  0.7438584468178602  1.0000
  H   H73       1.0  0.8435690120331433  0.23485757656495568  0.2628387061569909  1.0000
  H   H74       1.0  0.343571737401007  0.7651478965069883  0.23716013037131484  1.0000
  H   H75       1.0  0.15643243711413393  0.765149430265971  0.7371675810588341  1.0000
  H   H76       1.0  0.6564289495161976  0.23485899362740534  0.7628409236530586  1.0000
  H   H77       1.0  0.9512073120602554  0.2623297018601959  0.37109930978146355  1.0000
  H   H78       1.0  0.4512036480572236  0.7376744418250283  0.12889830037570954  1.0000
  H   H79       1.0  0.04879718610506961  0.7376805878528002  0.628905889657666  1.0000
  H   H80       1.0  0.5487909408336479  0.2623310511481946  0.8710994208736975  1.0000
  H   H81       1.0  0.8230355299367745  0.6826843638251033  0.5524692547074251  1.0000
  H   H82       1.0  0.3230383969731749  0.3173075868104008  0.9475271965358725  1.0000
  H   H83       1.0  0.1769628702950072  0.3173019553301088  0.4475288097455205  1.0000
  H   H84       1.0  0.6769638144776807  0.6826881274849582  0.052476927912508055  1.0000
  H   H85       1.0  0.7668551744629399  0.716779314943011  0.4901845401086715  1.0000
  H   H86       1.0  0.2668548979938309  0.28321604208169043  0.009814755724825404  1.0000
  H   H87       1.0  0.23314703702190806  0.28321233618196817  0.5098153424762157  1.0000
  H   H88       1.0  0.7331419776629888  0.7167816396307102  0.9901886114138703  1.0000
  H   H89       1.0  0.612223229244073  0.953445350252174  0.6338658987638722  1.0000
  H   H90       1.0  0.11222257216609681  0.046548626844405284  0.8661355002663738  1.0000
  H   H91       1.0  0.38777059739715014  0.0465503407288992  0.36613717906942606  1.0000
  H   H92       1.0  0.8877720167132994  0.9534438862719694  0.1338733752071163  1.0000
  H   H93       1.0  0.6497449215542517  0.9470931328373237  0.554149345277544  1.0000
  H   H94       1.0  0.14974878358176372  0.052906565094929185  0.9458516635771088  1.0000
  H   H95       1.0  0.3502481427884803  0.05291447924985699  0.4458544218031051  1.0000
  H   H96       1.0  0.8502541900775783  0.9470978340901083  0.05415633115987357  1.0000
  C   C1        1.0  0.6689831523810953  0.6061643711836737  0.6993653964189972  1.0000
  C   C2        1.0  0.16898770557984483  0.39383799251846324  0.8006416462751458  1.0000
  C   C3        1.0  0.33101219878194865  0.393833880754478  0.3006338806071084  1.0000
  C   C4        1.0  0.8310129813349932  0.6061669535548759  0.1993612117126772  1.0000
  C   C5        1.0  0.4452924659654799  0.3415790185967325  0.6877857341790727  1.0000
  C   C6        1.0  0.9452979055710031  0.6584223061136283  0.8122188010779465  1.0000
  C   C7        1.0  0.5547036474825691  0.6584125858672395  0.31221205514555805  1.0000
  C   C8        1.0  0.054703543581574414  0.3415833735569009  0.18778729326188426  1.0000
  C   C9        1.0  0.5584588125984028  0.4729142591858703  0.6913504463074387  1.0000
  C   C10       1.0  0.058463935046809516  0.527085446639198  0.808656213772778  1.0000
  C   C11       1.0  0.4415357763142681  0.5270807098632629  0.3086499184889106  1.0000
  C   C12       1.0  0.9415398008864245  0.47291952276464133  0.19134769084516984  1.0000
  C   C13       1.0  0.6171761384719616  0.5268030205826475  0.6564223964425719  1.0000
  C   C14       1.0  0.11718356299809332  0.4732016136912732  0.843583657575209  1.0000
  C   C15       1.0  0.3828184504143907  0.47319662853752914  0.3435802133778265  1.0000
  C   C16       1.0  0.8828224597051816  0.5268052997666786  0.15641844307285166  1.0000
  C   C17       1.0  0.6308842163757404  0.5050950553559943  0.5826053165685747  1.0000
  C   C18       1.0  0.13089611625713363  0.4949108110859937  0.9174003297367502  1.0000
  C   C19       1.0  0.36911342154980537  0.49490321991498104  0.41739500708980143  1.0000
  C   C20       1.0  0.8691129554749397  0.5050954271126142  0.08260115114536144  1.0000
  C   C21       1.0  0.586759957832868  0.42745187901395093  0.5429754944005294  1.0000
  C   C22       1.0  0.08677096129544282  0.572553533659871  0.9570276875495975  1.0000
  C   C23       1.0  0.4132369178500569  0.5725430783583434  0.45702434707001766  1.0000
  C   C24       1.0  0.9132419217083414  0.4274527395368039  0.042975363279850874  1.0000
  C   C25       1.0  0.5275052403565824  0.3734896996082212  0.5782001118851382  1.0000
  C   C26       1.0  0.027506321573689308  0.6265134305567414  0.9218035416101741  1.0000
  C   C27       1.0  0.47249087306514803  0.6265065849267871  0.42179992246354897  1.0000
  C   C28       1.0  0.9724997011300831  0.3734889195290164  0.07820154720742775  1.0000
  C   C29       1.0  0.5130394754423477  0.39702816429821997  0.6517349935615824  1.0000
  C   C30       1.0  0.0130391396241762  0.602977056195108  0.8482695540977543  1.0000
  C   C31       1.0  0.48695816250442914  0.6029648023311722  0.34826455859283095  1.0000
  C   C32       1.0  0.9869661207971776  0.3970319296949469  0.15173649910195755  1.0000
  C   C33       1.0  0.5553680959344478  0.3398510837028537  0.4202764416903333  1.0000
  C   C34       1.0  0.05536542032992031  0.6601542201632069  0.07972686970838075  1.0000
  C   C35       1.0  0.4446333532703407  0.6601491472874769  0.5797226013132146  1.0000
  C   C36       1.0  0.9446398401123732  0.33985206472652146  0.9202767044619118  1.0000
  C   C37       1.0  0.6737246399111785  0.4576111062243554  0.43365798895963786  1.0000
  C   C38       1.0  0.1737320167980131  0.5423942585955857  0.06634998500430807  1.0000
  C   C39       1.0  0.32627452250542893  0.5423879143113765  0.5663460943679581  1.0000
  C   C40       1.0  0.8262854397093522  0.45761932563925695  0.9336546499495665  1.0000
  C   C41       1.0  0.665088796512592  0.41452072092138786  0.3567063343398757  1.0000
  C   C42       1.0  0.16508142113286084  0.585479993015653  0.14329839667306024  1.0000
  C   C43       1.0  0.334914177212582  0.5854716521308985  0.6432962612776618  1.0000
  C   C44       1.0  0.8349192657898572  0.41452361422740575  0.8567037451194108  1.0000
  C   C45       1.0  0.5951840974218074  0.34458970572348585  0.34972481904237174  1.0000
  C   C46       1.0  0.0951800050114002  0.6554146692509731  0.15027712488717523  1.0000
  C   C47       1.0  0.4048204008065426  0.6554105252575794  0.6502742239525856  1.0000
  C   C48       1.0  0.9048191573916571  0.34459027682699866  0.8497257331049395  1.0000
  C   C49       1.0  0.5706147949509843  0.29279662177538757  0.2836445300907754  1.0000
  C   C50       1.0  0.07060362117141493  0.7072039794051717  0.21635959029610055  1.0000
  C   C51       1.0  0.42939351454915453  0.707202992293439  0.7163565097328826  1.0000
  C   C52       1.0  0.9293940167225118  0.29280030309723043  0.7836431712623193  1.0000
  C   C53       1.0  0.6174937541046149  0.3137032474150985  0.22383185261964655  1.0000
  C   C54       1.0  0.11748975916783884  0.686293797622163  0.27617361463234846  1.0000
  C   C55       1.0  0.382505408340606  0.6862936890209567  0.7761677548390863  1.0000
  C   C56       1.0  0.8825063542198992  0.31370655008322484  0.723830661579832  1.0000
  C   C57       1.0  0.6870470519971477  0.3842132312142608  0.23067477697709646  1.0000
  C   C58       1.0  0.18703672751645686  0.6157854402322442  0.2693332042125646  1.0000
  C   C59       1.0  0.3129566839599677  0.6157857659677999  0.7693282596988948  1.0000
  C   C60       1.0  0.8129570990985119  0.3842142789095531  0.7306725455261469  1.0000
  C   C61       1.0  0.7121293516493667  0.4355692080927368  0.2972637608596073  1.0000
  C   C62       1.0  0.2121184880583584  0.5644325237934211  0.20273985128758906  1.0000
  C   C63       1.0  0.28786904853501494  0.5644257959544702  0.7027381738840858  1.0000
  C   C64       1.0  0.7878745762952736  0.43556982633171504  0.7972652375665275  1.0000
  C   C65       1.0  0.8679875581960064  0.8783237980067398  0.6772786148698129  1.0000
  C   C66       1.0  0.3679906397884026  0.12167172088129519  0.8227118818262935  1.0000
  C   C67       1.0  0.1320100797452497  0.12167245151398019  0.3227198495164955  1.0000
  C   C68       1.0  0.6320115717166743  0.8783237483464886  0.17728125291553448  1.0000
  C   C69       1.0  0.1104621900995113  0.1339842049879039  0.7186258815682435  1.0000
  C   C70       1.0  0.6104574156162244  0.8660062665346188  0.7813661487794332  1.0000
  C   C71       1.0  0.889530111985245  0.8660188553992823  0.2813813970034572  1.0000
  C   C72       1.0  0.38954327140331213  0.13398517453706657  0.21862431406128013  1.0000
  C   C73       1.0  0.02523930300409211  0.0831121675441011  0.6768448384861614  1.0000
  C   C74       1.0  0.5252360742417042  0.9168786935346416  0.8231419156463955  1.0000
  C   C75       1.0  0.9747560481718626  0.9168860260446223  0.32315182194314207  1.0000
  C   C76       1.0  0.47476232597867357  0.08311745095480208  0.17685183886353426  1.0000
  C   C77       1.0  0.9805960754050463  0.011879064628310202  0.7001772330297483  1.0000
  C   C78       1.0  0.4805921500757935  0.988113814188253  0.7998139096870885  1.0000
  C   C79       1.0  0.019406136076931105  0.9881152058078013  0.2998214653490478  1.0000
  C   C80       1.0  0.5194115859252832  0.011884332695458999  0.20018065744114463  1.0000
  C   C81       1.0  0.9087528323684708  0.9604062751671304  0.6568350818351617  1.0000
  C   C82       1.0  0.4087478708772424  0.039593000821305686  0.8431568104039183  1.0000
  C   C83       1.0  0.09125014132701642  0.03959796063952579  0.34316558643078565  1.0000
  C   C84       1.0  0.591255865144774  0.9604024450620725  0.1568352776948955  1.0000
  C   C85       1.0  0.8764456120730559  0.9830470346509227  0.59347615247281  1.0000
  C   C86       1.0  0.3764409460660759  0.0169530779194531  0.906514971642899  1.0000
  C   C87       1.0  0.12355431262010093  0.0169518925234087  0.4065237442977575  1.0000
  C   C88       1.0  0.6235544051514667  0.9830423213098667  0.09347502320210302  1.0000
  C   C89       1.0  0.9157102725835602  0.05876348061980958  0.5721952646049073  1.0000
  C   C90       1.0  0.41570160069579043  0.9412323885165463  0.9277940129662168  1.0000
  C   C91       1.0  0.08429270115940571  0.9412314183845393  0.4278019602516563  1.0000
  C   C92       1.0  0.584296799532055  0.0587663286044986  0.07219646406016977  1.0000
  C   C93       1.0  0.9933472014121849  0.10672441844024408  0.6134051150675857  1.0000
  C   C94       1.0  0.49334534391636015  0.8932703736175254  0.8865862450941644  1.0000
  C   C95       1.0  0.0066473875027100015  0.8932737984905684  0.3865925920025857  1.0000
  C   C96       1.0  0.5066561053039892  0.10672913544318158  0.11341008487458738  1.0000
  C   C97       1.0  0.9306887038369499  0.15810273291355503  0.4837096335785914  1.0000
  C   C98       1.0  0.4306801123617918  0.8418994980653591  0.016285709640548842  1.0000
  C   C99       1.0  0.0693127453575144  0.841897544756314  0.516291502702394  1.0000
  C   C100      1.0  0.569318287819364  0.1581013848445493  0.9837129064902252  1.0000
  C   C101      1.0  0.8767319917684662  0.15848469735097126  0.414844219003612  1.0000
  C   C102      1.0  0.37672730698353973  0.8415164993600612  0.08514966546161419  1.0000
  C   C103      1.0  0.12327098192451301  0.8415188982152558  0.5851573994630568  1.0000
  C   C104      1.0  0.6232695686803852  0.15848701453550967  0.9148482897867253  1.0000
  C   C105      1.0  0.8029266886978876  0.0466855034040563  0.46515160676932493  1.0000
  C   C106      1.0  0.30291642100180394  0.9533134291946791  0.034839691317408425  1.0000
  C   C107      1.0  0.1970732360343491  0.9533099891704494  0.534842574617663  1.0000
  C   C108      1.0  0.697080454685427  0.04668932776161228  0.9651539809380477  1.0000
  C   C109      1.0  0.8021729640786578  0.09202683045862159  0.40430193420714017  1.0000
  C   C110      1.0  0.3021654524870386  0.9079727819624707  0.09568998787705844  1.0000
  C   C111      1.0  0.19783077189122625  0.90797341219465  0.5956976321093277  1.0000
  C   C112      1.0  0.6978321854557237  0.09203323454306656  0.9043015499694317  1.0000
  C   C113      1.0  0.7420160837493627  0.07478875688862269  0.34301930547574944  1.0000
  C   C114      1.0  0.24201243650948362  0.9252112794648113  0.15697557222865294  1.0000
  C   C115      1.0  0.2579876522227381  0.9252147336463278  0.6569776031145336  1.0000
  C   C116      1.0  0.7579867259213986  0.07479875352694167  0.8430181141996014  1.0000
  C   C117      1.0  0.7583947503214716  0.1271306533180621  0.2922861819396231  1.0000
  C   C118      1.0  0.25839019235828437  0.8728639865274842  0.20770835527526532  1.0000
  C   C119      1.0  0.24161508369001444  0.872872872208013  0.707712296591559  1.0000
  C   C120      1.0  0.7416074455740828  0.12714272856791098  0.7922848489672986  1.0000
  C   C121      1.0  0.8323729355377769  0.19444351668736456  0.30296628681487897  1.0000
  C   C122      1.0  0.3323734981202905  0.8055566107631261  0.1970271314405635  1.0000
  C   C123      1.0  0.16763003815527366  0.8055594269685498  0.6970357585331539  1.0000
  C   C124      1.0  0.6676188040029775  0.19444823030672606  0.8029710166966523  1.0000
  C   C125      1.0  0.8927013252641419  0.21088428418428853  0.3644141977849101  1.0000
  C   C126      1.0  0.3927033556116158  0.7891188178655213  0.13558040929419948  1.0000
  C   C127      1.0  0.10730317292742343  0.7891219773679834  0.6355883297488062  1.0000
  C   C128      1.0  0.6072912332794759  0.21088471937676442  0.8644185925992997  1.0000
  N   N1        1.0  0.6031473668271021  0.4056707106767305  0.46887183079748934  1.0000
  N   N2        1.0  0.10315245726533112  0.5943316484733927  0.031130825551237293  1.0000
  N   N3        1.0  0.39685027110640203  0.5943255738536519  0.531128203546906  1.0000
  N   N4        1.0  0.8968611879992923  0.40567655711213746  0.9688698979932509  1.0000
  N   N5        1.0  0.8818305024340776  0.08477598147209159  0.5098344147413129  1.0000
  N   N6        1.0  0.3818206333867381  0.9152254488883783  0.9901579185554109  1.0000
  N   N7        1.0  0.11817170904747344  0.9152222004259085  0.49016172234929906  1.0000
  N   N8        1.0  0.6181785290867412  0.08477266299957617  0.009835078627638395  1.0000
  O   O1        1.0  0.7037023511186933  0.6658001226062706  0.6656721761586224  1.0000
  O   O2        1.0  0.20370925628983377  0.33419469569602706  0.8343320400811576  1.0000
  O   O3        1.0  0.2962945245565578  0.3341942178653737  0.3343296621513686  1.0000
  O   O4        1.0  0.7962899061317972  0.6658056053205568  0.16567014284499482  1.0000
  O   O5        1.0  0.7636193949558675  0.6717537281597998  0.5213538355950289  1.0000
  O   O6        1.0  0.2636196008064929  0.32823924715687264  0.9786430469533441  1.0000
  O   O7        1.0  0.23637900525476147  0.3282372477266761  0.47864542724325065  1.0000
  O   O8        1.0  0.7363780371271602  0.671755733552878  0.02135784115377248  1.0000
  O   O9        1.0  0.6824259612436452  0.6117315473929492  0.7647362882872668  1.0000
  O   O10       1.0  0.18242661295989393  0.3882733772752403  0.7352705410890292  1.0000
  O   O11       1.0  0.3175701521860433  0.38826274640146596  0.23526345674743243  1.0000
  O   O12       1.0  0.8175748362134885  0.6117309052155873  0.26473222045864725  1.0000
  O   O13       1.0  0.70779466543177  0.802913619533811  0.4648295771577863  1.0000
  O   O14       1.0  0.20780995474978434  0.19708087424378107  0.03517456848541658  1.0000
  O   O15       1.0  0.292184678363583  0.19707678618945573  0.5351737758510706  1.0000
  O   O16       1.0  0.7922021659831203  0.8029209056023275  0.9648346104318859  1.0000
  O   O17       1.0  0.43861625021720146  0.3574476442868856  0.754949020566414  1.0000
  O   O18       1.0  0.9386216848854902  0.6425497745256832  0.7450565436467753  1.0000
  O   O19       1.0  0.5613836744942375  0.6425492454673214  0.24504849361272812  1.0000
  O   O20       1.0  0.061379764280431515  0.35745193533354325  0.2549494953844373  1.0000
  O   O21       1.0  0.6088323038913118  0.9179034675737723  0.585697979896082  1.0000
  O   O22       1.0  0.10883704263473253  0.08209580374619209  0.9143026397755418  1.0000
  O   O23       1.0  0.39116304725337164  0.082097473694823  0.41430325284008507  1.0000
  O   O24       1.0  0.8911659310456274  0.9179052425281994  0.08570330281338555  1.0000
  O   O25       1.0  0.3928245011134593  0.27983780131307867  0.6483564726235256  1.0000
  O   O26       1.0  0.8928283887081251  0.7201617698386111  0.8516444057891942  1.0000
  O   O27       1.0  0.6071678010576423  0.7201544434029047  0.35164036651112696  1.0000
  O   O28       1.0  0.1071677246691394  0.27983992836694677  0.14836110993770288  1.0000
  O   O29       1.0  0.4901312839831036  0.2873148169063028  0.43606657274538907  1.0000
  O   O30       1.0  0.990128870231388  0.712692559829861  0.06393810338080635  1.0000
  O   O31       1.0  0.5098724520130987  0.712680745675925  0.5639307485470225  1.0000
  O   O32       1.0  0.0098786769861761  0.2873149938638874  0.9360630470622339  1.0000
  O   O33       1.0  0.8289368610674474  0.8185749422138923  0.6283657353826367  1.0000
  O   O34       1.0  0.32893831155281833  0.18142867193742518  0.8716214287830937  1.0000
  O   O35       1.0  0.17105925235456715  0.1814187346798661  0.37163600649150647  1.0000
  O   O36       1.0  0.6710623754298624  0.8185694516157866  0.12837209171501476  1.0000
  O   O37       1.0  0.8766838415927511  0.87212845717287  0.7419822769499118  1.0000
  O   O38       1.0  0.37668903583651325  0.12786499477798688  0.7580068347767152  1.0000
  O   O39       1.0  0.12331532087592482  0.12786641850328806  0.25801390127867296  1.0000
  O   O40       1.0  0.6233070776317577  0.8721304277887821  0.2419842067048633  1.0000
  O   O41       1.0  0.11762403624204154  0.13088912217569507  0.7845515882341301  1.0000
  O   O42       1.0  0.6176198821655916  0.8691078716025372  0.7154382262126118  1.0000
  O   O43       1.0  0.882370552628821  0.8691105969637858  0.21545416150242852  1.0000
  O   O44       1.0  0.3823907141565075  0.13089084548144567  0.2845522507794128  1.0000
  O   O45       1.0  0.16801711197751254  0.1763963177707737  0.6840157552976505  1.0000
  O   O46       1.0  0.6680138048608342  0.8235950844465093  0.8159740502743558  1.0000
  O   O47       1.0  0.8319713788403436  0.823609943830135  0.315986772281171  1.0000
  O   O48       1.0  0.3319792596026617  0.1763937373372002  0.18401759679392873  1.0000
  O   O49       1.0  0.7448213495683832  0.986619154639811  0.47578218129220295  1.0000
  O   O50       1.0  0.24480365344469857  0.013378897306893095  0.024213437966501793  1.0000
  O   O51       1.0  0.25518086189524075  0.013377805126758296  0.5242184727966545  1.0000
  O   O52       1.0  0.7551924599866456  0.986623859651715  0.9757802342911075  1.0000
