data_image0
_chemical_formula_structural       Al4H12C29O24
_chemical_formula_sum              "Al4 H12 C29 O24"
_cell_length_a       6.678871671256747
_cell_length_b       16.826555298600862
_cell_length_c       18.66939200754139
_cell_angle_alpha    74.87551599604652
_cell_angle_beta     89.42685288239636
_cell_angle_gamma    89.96645788062095

_space_group_name_H-M_alt    "P 1"
_space_group_IT_number       1

loop_
  _space_group_symop_operation_xyz
  'x, y, z'

loop_
  _atom_site_type_symbol
  _atom_site_label
  _atom_site_symmetry_multiplicity
  _atom_site_fract_x
  _atom_site_fract_y
  _atom_site_fract_z
  _atom_site_occupancy
  Al  Al1       1.0  0.1051106607867567  0.4997006300781379  0.5001185804043544  1.0000
  Al  Al2       1.0  0.6068640116869659  0.4999582145759549  0.5006491917124051  1.0000
  Al  Al3       1.0  0.6289599480419739  0.001392500383445802  0.9997592796789975  1.0000
  Al  Al4       1.0  0.1317926299701782  0.002269011305045901  0.9979810768405314  1.0000
  H   H1        1.0  0.5855314633287491  0.8148169554541342  0.19236100537201384  1.0000
  H   H2        1.0  0.010993217552901101  0.6993981094913339  0.30174715230798194  1.0000
  H   H3        1.0  0.07947099229298969  0.17782501861349692  0.80064256421997  1.0000
  H   H4        1.0  0.5406808897108419  0.1931972341169583  0.7909471588470964  1.0000
  H   H5        1.0  0.49050326884199796  0.3240287587143983  0.7187381673461742  1.0000
  H   H6        1.0  0.1608305570481647  0.841964645098692  0.16318895140524592  1.0000
  H   H7        1.0  0.41716925363206764  0.7350282307015236  0.2758971653018278  1.0000
  H   H8        1.0  0.9487173806138357  0.24382362496540827  0.5702894263037379  1.0000
  H   H9        1.0  0.3579014711091658  0.6013237894017892  0.4538091446371979  1.0000
  H   H10       1.0  0.8517454714366082  0.40233363600739125  0.5574880086881604  1.0000
  H   H11       1.0  0.3815899659170015  0.9061607970761474  0.9807413738055856  1.0000
  H   H12       1.0  0.8796751970436248  0.10764948600880334  0.989872011504147  1.0000
  C   C1        1.0  0.3569311544934024  0.41077787693894424  0.41688533603490896  1.0000
  C   C2        1.0  0.3562923976723766  0.3905285931271011  0.614481534746666  1.0000
  C   C3        1.0  0.8558934582282305  0.5859455185518601  0.5869762500735192  1.0000
  C   C4        1.0  0.8561985104524013  0.6102603408020644  0.3886078543544115  1.0000
  C   C5        1.0  0.7232056386801631  0.7878511909235756  0.21925558298877226  1.0000
  C   C6        1.0  0.8908244810048345  0.8235377358923303  0.18310220986955977  1.0000
  C   C7        1.0  0.7027339286673496  0.72067644686107  0.28547115406824025  1.0000
  C   C8        1.0  0.8627549531482971  0.6790859181408211  0.3229004553837099  1.0000
  C   C9        1.0  0.8803182588117905  0.862505450077343  0.8641451834717199  1.0000
  C   C10       1.0  0.8745743638357838  0.8181718498812032  0.8213912299381931  1.0000
  C   C11       1.0  0.8684482369355562  0.7697061160322534  0.7747405015344099  1.0000
  C   C12       1.0  0.8628035663991299  0.7251215768168892  0.7317550694726549  1.0000
  C   C13       1.0  0.8582858303206322  0.6774167164705746  0.6844278924512253  1.0000
  C   C14       1.0  0.8555608647994718  0.6344308108925959  0.6405497292203606  1.0000
  C   C15       1.0  0.35985825842494995  0.3619357475607218  0.36354087717068495  1.0000
  C   C16       1.0  0.3614514505378494  0.319178416743661  0.31941988869732535  1.0000
  C   C17       1.0  0.3634080629211028  0.27188365960920186  0.271636025685801  1.0000
  C   C18       1.0  0.3656432648376368  0.2278488057940748  0.2281051756518764  1.0000
  C   C19       1.0  0.3692371976250329  0.18002927152675605  0.1808021228518797  1.0000
  C   C20       1.0  0.37352753446028697  0.13635066402844132  0.13742608910884968  1.0000
  C   C21       1.0  0.22318527798223897  0.20318155355475653  0.7766381224015715  1.0000
  C   C22       1.0  0.39178584383653003  0.1737594622128213  0.8132516193110035  1.0000
  C   C23       1.0  0.21694366896695527  0.2657315360460971  0.706060652182451  1.0000
  C   C24       1.0  0.3600049482636862  0.32405824688198953  0.6840574537717713  1.0000
  C   C25       1.0  0.38489761830791736  0.11146842843014332  0.8853331376400319  1.0000
  C   C26       1.0  0.37681044603986885  0.08612439874151788  0.0859627770617664  1.0000
  C   C27       1.0  0.8764274399664346  0.8908732358577895  0.11271641722538554  1.0000
  C   C28       1.0  0.8818118365629745  0.9131544710561316  0.9151223388050338  1.0000
  C   C29       1.0  0.03230091888590891  0.2632891392387792  0.6612013331332206  1.0000
  O   O1        1.0  0.5264653466139109  0.41927602054791185  0.5892022647958939  1.0000
  O   O2        1.0  0.1844337523419171  0.4308661924755271  0.43557077951032136  1.0000
  O   O3        1.0  0.026411468604244696  0.5835772327232505  0.4166385469537914  1.0000
  O   O4        1.0  0.18744815216676614  0.4143742209168196  0.585725454877945  1.0000
  O   O5        1.0  0.027674126714536795  0.5654099527434228  0.5679920121418789  1.0000
  O   O6        1.0  0.5267030930002861  0.42705690688499937  0.43982897434546697  1.0000
  O   O7        1.0  0.35602699103466057  0.5487751918837134  0.491072836825495  1.0000
  O   O8        1.0  0.6852902105467892  0.570172834955628  0.5644137340237164  1.0000
  O   O9        1.0  0.6875418050723782  0.5800277315698071  0.41542563672182803  1.0000
  O   O10       1.0  0.8555986586872208  0.4479979857142241  0.513128249748135  1.0000
  O   O11       1.0  0.20767898451403977  0.0661581305886756  0.0647544561453088  1.0000
  O   O12       1.0  0.5541474077965844  0.0868714284450434  0.9142934896214354  1.0000
  O   O13       1.0  0.7113297613447785  0.9324175334701085  0.9370282100009959  1.0000
  O   O14       1.0  0.548136856690654  0.06613317609412661  0.06558817093194588  1.0000
  O   O15       1.0  0.7068184298011673  0.9155924654237495  0.0867819800179816  1.0000
  O   O16       1.0  0.2135436357699589  0.0870593139780311  0.9138303297577863  1.0000
  O   O17       1.0  0.37983470989752277  0.9503779925047131  0.0053869752526267715  1.0000
  O   O18       1.0  0.048237723511583376  0.9159378297736753  0.08462120802988696  1.0000
  O   O19       1.0  0.05251685262153669  0.9336767210165606  0.9347592504243705  1.0000
  O   O20       1.0  0.8802582026657645  0.049294096471349705  0.9929371299956102  1.0000
  O   O21       1.0  0.0824743716191065  0.8037255643532009  0.20336787671637774  1.0000
  O   O22       1.0  0.5115921026404848  0.69974646948954  0.30923270787702956  1.0000
  O   O23       1.0  0.8628731727079212  0.27315181870310573  0.6826354714070603  1.0000
  O   O24       1.0  0.074763989919937  0.24363666419681354  0.5969362381190775  1.0000
