data_image0
_chemical_formula_structural       Ba2V2H16C16N2O22
_chemical_formula_sum              "Ba2 V2 H16 C16 N2 O22"
_cell_length_a       7.028396882538495
_cell_length_b       10.805794223814832
_cell_length_c       11.470042544648463
_cell_angle_alpha    112.71586631747884
_cell_angle_beta     99.79091434057152
_cell_angle_gamma    96.19928448046302

_space_group_name_H-M_alt    "P 1"
_space_group_IT_number       1

loop_
  _space_group_symop_operation_xyz
  'x, y, z'

loop_
  _atom_site_type_symbol
  _atom_site_label
  _atom_site_symmetry_multiplicity
  _atom_site_fract_x
  _atom_site_fract_y
  _atom_site_fract_z
  _atom_site_occupancy
  Ba  Ba1       1.0  0.4328883607213567  0.7716417282659332  0.3791078632194029  1.0000
  Ba  Ba2       1.0  0.5671088929154208  0.22836083094208692  0.6208947542527882  1.0000
  V   V1        1.0  0.1333820805875092  0.25061371605502814  0.822582403679597  1.0000
  V   V2        1.0  0.8666128818862618  0.7493797087958141  0.1774113412595995  1.0000
  H   H1        1.0  0.4115574985845356  0.2904171448303073  0.2813805329361116  1.0000
  H   H2        1.0  0.5884244233742636  0.7095711602681263  0.7186114989350614  1.0000
  H   H3        1.0  0.26322954434548507  0.8767446899220274  0.9857561031844498  1.0000
  H   H4        1.0  0.7367723743090124  0.12325188025745597  0.014232660971799815  1.0000
  H   H5        1.0  0.14991539469984608  0.7302039909622449  0.57091842939154  1.0000
  H   H6        1.0  0.8500985119295591  0.2697913633478207  0.42908616019235524  1.0000
  H   H7        1.0  0.014890834919043364  0.6136094498297096  0.4478010571190083  1.0000
  H   H8        1.0  0.9851268953628747  0.3863857725099534  0.5522144114159816  1.0000
  H   H9        1.0  0.8542774799990837  0.9936715053436695  0.5657406385410368  1.0000
  H   H10       1.0  0.14571171125325583  0.0063279950648364985  0.4342598805413689  1.0000
  H   H11       1.0  0.8242944789501507  1.2584801176299658e-05  0.4284199194506045  1.0000
  H   H12       1.0  0.17569960625915115  0.9999889552907245  0.5715819407378859  1.0000
  H   H13       1.0  0.7738176303652009  0.4660990614878172  0.45090922297089264  1.0000
  H   H14       1.0  0.22619695581163762  0.533899316338477  0.5491000505518502  1.0000
  H   H15       1.0  0.6926265365169613  0.5081732362413617  0.3359012744567807  1.0000
  H   H16       1.0  0.3073935386202463  0.4918241137619645  0.6641082825502309  1.0000
  C   C1        1.0  0.31218552414949824  0.40714384181328694  0.09646147317789658  1.0000
  C   C2        1.0  0.6878160407872685  0.5928689467624223  0.9035445581521913  1.0000
  C   C3        1.0  0.2981705978475659  0.26263663299179996  0.08344151506010179  1.0000
  C   C4        1.0  0.7018227722855171  0.7373702115199023  0.9165465121603021  1.0000
  C   C5        1.0  0.35640607119041334  0.21856438274573256  0.180253379082842  1.0000
  C   C6        1.0  0.6436026113457558  0.7814371853737397  0.8197467628632255  1.0000
  C   C7        1.0  0.3443059653609097  0.07804545537538131  0.14511890130146554  1.0000
  C   C8        1.0  0.6556895994151829  0.9219653800460743  0.854878709749805  1.0000
  C   C9        1.0  0.4182833708787683  0.03052492416257729  0.25028983289247014  1.0000
  C   C10       1.0  0.581704563216661  0.9694643865149501  0.749704166398992  1.0000
  C   C11       1.0  0.27025076231473105  0.9860809511987367  0.014960627370342507  1.0000
  C   C12       1.0  0.7297558402332811  0.013923675243496797  0.9850412619501441  1.0000
  C   C13       1.0  0.20851308651276665  0.03859010936083959  0.9245426598057949  1.0000
  C   C14       1.0  0.7914859416687534  0.9614278893730841  0.07545713402021896  1.0000
  C   C15       1.0  0.13201638214816566  0.961575180630831  0.7807177457767838  1.0000
  C   C16       1.0  0.8679800475459698  0.03842241737162769  0.21927073489519697  1.0000
  N   N1        1.0  0.22368128324098538  0.17308274585685976  0.9604842586919063  1.0000
  N   N2        1.0  0.7763245439805216  0.8269258531279106  0.03952859396462562  1.0000
  O   O1        1.0  0.3816708285298062  0.504863999937534  0.20273011704635024  1.0000
  O   O2        1.0  0.6183227331327714  0.4951294369991927  0.7972625912175888  1.0000
  O   O3        1.0  0.24779347943036356  0.4142790928233566  0.9860440477567067  1.0000
  O   O4        1.0  0.7522078932073414  0.5857355483636936  0.01397834214614595  1.0000
  O   O5        1.0  0.08185006321003388  0.04143599917414059  0.7225665818397147  1.0000
  O   O6        1.0  0.9181424895097693  0.9585748072453552  0.2774332719306684  1.0000
  O   O7        1.0  0.12351484783308544  0.837230056308861  0.726042195108235  1.0000
  O   O8        1.0  0.8764983310032051  0.16275941048998277  0.27394007838906737  1.0000
  O   O9        1.0  0.43822256998120673  0.1181572932121924  0.36528027572224187  1.0000
  O   O10       1.0  0.5617741481328762  0.8818381104158276  0.6347196426839334  1.0000
  O   O11       1.0  0.45474770738896797  0.9111302053512556  0.21414232322742768  1.0000
  O   O12       1.0  0.5452348219196638  0.0888601544187466  0.7858496661519184  1.0000
  O   O13       1.0  0.2503435793694422  0.283558124062381  0.7230682724622569  1.0000
  O   O14       1.0  0.7496532896978465  0.7164475558257521  0.27693108656212223  1.0000
  O   O15       1.0  0.9066045069564126  0.27075161905067097  0.7940249277915116  1.0000
  O   O16       1.0  0.0933924219620508  0.7292499075041974  0.20597814253356014  1.0000
  O   O17       1.0  0.7667963272089011  0.5444647553103436  0.42578866783697583  1.0000
  O   O18       1.0  0.23321668980961618  0.4555335920628494  0.5742230218662243  1.0000
  O   O19       1.0  0.15706407416835325  0.6563028355406003  0.4881090595319649  1.0000
  O   O20       1.0  0.8429505660712379  0.3436946053452843  0.5118928979183297  1.0000
  O   O21       1.0  0.7601180269677529  0.006933686647265296  0.5000616893374642  1.0000
  O   O22       1.0  0.23987180137477518  0.9930627568896209  0.49993690890919135  1.0000
