data_image0
_chemical_formula_structural       K4Cd6H40C40O48
_chemical_formula_sum              "K4 Cd6 H40 C40 O48"
_cell_length_a       8.226537608695851
_cell_length_b       14.121235756855803
_cell_length_c       14.121333916842907
_cell_angle_alpha    77.86686782359831
_cell_angle_beta     73.06718787123717
_cell_angle_gamma    73.06524481807448

_space_group_name_H-M_alt    "P 1"
_space_group_IT_number       1

loop_
  _space_group_symop_operation_xyz
  'x, y, z'

loop_
  _atom_site_type_symbol
  _atom_site_label
  _atom_site_symmetry_multiplicity
  _atom_site_fract_x
  _atom_site_fract_y
  _atom_site_fract_z
  _atom_site_occupancy
  K   K1        1.0  0.5000044015948079  0.6294000294170842  0.3705682931432577  1.0000
  K   K2        1.0  0.5000392181081708  0.8705376254158919  0.12943606375960567  1.0000
  K   K3        1.0  0.5000233315761732  0.3705834084610231  0.6294396556729821  1.0000
  K   K4        1.0  0.4999735432060178  0.12945046541010194  0.8705614685563815  1.0000
  Cd  Cd1       1.0  9.608097287169874e-06  0.7499903299856923  0.2500068668114536  1.0000
  Cd  Cd2       1.0  0.999992898124745  0.2500100207905263  0.7499923409250115  1.0000
  Cd  Cd3       1.0  0.792807676798148  0.957265837205398  0.4573277474516573  1.0000
  Cd  Cd4       1.0  0.20717610424393507  0.5426877693064327  0.0427434876835164  1.0000
  Cd  Cd5       1.0  0.20717747050933624  0.042739334715967935  0.5426760231436774  1.0000
  Cd  Cd6       1.0  0.7928337271705818  0.4573146533009905  0.9572460151530747  1.0000
  H   H1        1.0  0.3857352620801822  0.43120883053925496  0.43158221931699353  1.0000
  H   H2        1.0  0.61426296388418  0.5685968761697637  0.5686208471147934  1.0000
  H   H3        1.0  0.248471464968766  0.0686305378559169  0.06871572782767289  1.0000
  H   H4        1.0  0.7515285551683489  0.931361029804826  0.9312938363588968  1.0000
  H   H5        1.0  0.21647611420233653  0.49579753790182934  0.49595238296921446  1.0000
  H   H6        1.0  0.783528899940137  0.504105413868082  0.5041562415078359  1.0000
  H   H7        1.0  0.20845033656693351  0.00407249571035349  0.0041832341644223  1.0000
  H   H8        1.0  0.791557857179157  0.9958949433083149  0.9958439524671758  1.0000
  H   H9        1.0  0.6360661705008178  0.7513401833105248  0.5154254533223721  1.0000
  H   H10       1.0  0.36397672121000096  0.48456081214091284  0.24866441178493656  1.0000
  H   H11       1.0  0.9027615019410793  0.7483945612178999  0.9845690834956144  1.0000
  H   H12       1.0  0.09723456225358974  0.015411886793003813  0.25159880800277523  1.0000
  H   H13       1.0  0.3638758738311555  0.2486669197494251  0.4846262711239361  1.0000
  H   H14       1.0  0.636083175132896  0.5154000455166569  0.7513319771044563  1.0000
  H   H15       1.0  0.09723554495192131  0.2515997145109168  0.015430036084580902  1.0000
  H   H16       1.0  0.9027634694120649  0.9845839373617834  0.7484048271254692  1.0000
  H   H17       1.0  0.44234189883567193  0.7760230201456579  0.5798157087513188  1.0000
  H   H18       1.0  0.5577323535651145  0.42023988710869986  0.22387640075692158  1.0000
  H   H19       1.0  0.7981602837338639  0.7238681944311693  0.9200243080627573  1.0000
  H   H20       1.0  0.20183701899311055  0.080005184083781  0.2760555665909976  1.0000
  H   H21       1.0  0.5575488204877319  0.22412911634390303  0.42012054978834357  1.0000
  H   H22       1.0  0.442374298293828  0.5798251584965044  0.7759747256174946  1.0000
  H   H23       1.0  0.20184869074310546  0.27614469186899276  0.0799578580578029  1.0000
  H   H24       1.0  0.798149514967257  0.920009095944337  0.7239303637885114  1.0000
  H   H25       1.0  0.5230290698372572  0.6393155835098056  0.1283674397734345  1.0000
  H   H26       1.0  0.4769839478834754  0.8716148511771066  0.3606864576966585  1.0000
  H   H27       1.0  0.29095227281266045  0.8606855625945113  0.3715194418498839  1.0000
  H   H28       1.0  0.7090689355308943  0.6284794902294449  0.1392887980082591  1.0000
  H   H29       1.0  0.4769672921072541  0.36068634578588643  0.8716287954172159  1.0000
  H   H30       1.0  0.5230191179363715  0.12839575125544664  0.6393121498834305  1.0000
  H   H31       1.0  0.7090627704954926  0.13930758928286485  0.6284721731129251  1.0000
  H   H32       1.0  0.29092578521419926  0.3715245466925552  0.8607089654306394  1.0000
  H   H33       1.0  0.9260341146180122  0.5661081774679603  0.5660982254182514  1.0000
  H   H34       1.0  0.07396107328560934  0.43390410256560596  0.4338914202624267  1.0000
  H   H35       1.0  0.058145433094126044  0.9339233588446871  0.9339153879427614  1.0000
  H   H36       1.0  0.9418435529160833  0.06608437809639874  0.0660861733461076  1.0000
  H   H37       1.0  0.1625609026541498  0.7428931157080072  0.742893001240219  1.0000
  H   H38       1.0  0.8374540899121927  0.2571079156459746  0.25709423492093453  1.0000
  H   H39       1.0  0.647834904779657  0.7569026538071952  0.7569060434987945  1.0000
  H   H40       1.0  0.352150905542459  0.24310580482986674  0.24308878860742308  1.0000
  C   C1        1.0  0.9930567094579532  0.7311957009064403  0.45476351621399397  1.0000
  C   C2        1.0  0.0069477657938959774  0.5452363456050123  0.2688107318729465  1.0000
  C   C3        1.0  0.17879443058743058  0.7687229841413695  0.0451581499538207  1.0000
  C   C4        1.0  0.8211976904654326  0.9548406607828425  0.2312848005885968  1.0000
  C   C5        1.0  0.006919651967741836  0.268822433464706  0.5452359492270773  1.0000
  C   C6        1.0  0.9930818195415297  0.454762707799425  0.7311719826424649  1.0000
  C   C7        1.0  0.8212044999994746  0.23127932266260837  0.9548395884278094  1.0000
  C   C8        1.0  0.17878846548175895  0.0451639132944806  0.7687182124973974  1.0000
  C   C9        1.0  0.123853334358401  0.8455377679677981  0.5618664097138009  1.0000
  C   C10       1.0  0.876166572867405  0.43813206654024833  0.1544523953472705  1.0000
  C   C11       1.0  0.5309215351872469  0.6543802858015297  0.938051408258154  1.0000
  C   C12       1.0  0.4690677785120556  0.06195417375342061  0.34561252850679836  1.0000
  C   C13       1.0  0.8761281769765646  0.15447388362651537  0.43811948250143473  1.0000
  C   C14       1.0  0.12386463638825515  0.5618739682758616  0.8455311692844562  1.0000
  C   C15       1.0  0.4690539668164605  0.34561839492044294  0.0619470261807891  1.0000
  C   C16       1.0  0.5309326547478438  0.9380500451114953  0.6543859864663091  1.0000
  C   C17       1.0  0.981124592156029  0.6042065581032573  0.6042006903592706  1.0000
  C   C18       1.0  0.01887315780211222  0.39579915667061266  0.39579335320519954  1.0000
  C   C19       1.0  0.18940385366116894  0.8957686365500024  0.8957612649834913  1.0000
  C   C20       1.0  0.8105887924748317  0.10423753276869262  0.10423652936525232  1.0000
  C   C21       1.0  0.01722689409024269  0.6961558099859319  0.5589927683947309  1.0000
  C   C22       1.0  0.9827844406441033  0.44100644118450555  0.30384203628734946  1.0000
  C   C23       1.0  0.27214266308639934  0.803770353171174  0.9409183278710386  1.0000
  C   C24       1.0  0.7278432661891685  0.05908352262255081  0.1962327761792082  1.0000
  C   C25       1.0  0.9827744380908996  0.303854891528175  0.4409998498317549  1.0000
  C   C26       1.0  0.01722357428801048  0.5589974277910983  0.6961459898174097  1.0000
  C   C27       1.0  0.7278400573990497  0.1962338929386434  0.05908018734718469  1.0000
  C   C28       1.0  0.27215056222255646  0.9409209744182332  0.803767989313485  1.0000
  C   C29       1.0  0.083831747509251  0.7469125803517328  0.6090455558425346  1.0000
  C   C30       1.0  0.9161792477592744  0.3909535853466294  0.25307756962584455  1.0000
  C   C31       1.0  0.43946609667880676  0.7529569469058899  0.8908022995964445  1.0000
  C   C32       1.0  0.5605249017379208  0.10920044188942057  0.2470396237176189  1.0000
  C   C33       1.0  0.9161634944301228  0.25309529158922567  0.3909470212933853  1.0000
  C   C34       1.0  0.08383776373344895  0.6090479860112693  0.7469074278434249  1.0000
  C   C35       1.0  0.5605231107015173  0.24704542306130864  0.10919244423094197  1.0000
  C   C36       1.0  0.43947503748868405  0.890801267070515  0.7529573571546705  1.0000
  C   C37       1.0  0.11391068175073153  0.7030767274665662  0.7030755258977378  1.0000
  C   C38       1.0  0.8861047442252854  0.2969242791170217  0.2969132076018113  1.0000
  C   C39       1.0  0.5197007074599612  0.7967903824675985  0.796794196584166  1.0000
  C   C40       1.0  0.48027987943974904  0.20321519705554178  0.20320358910827713  1.0000
  O   O1        1.0  0.8429800027967222  0.7807040825151218  0.4409893563668632  1.0000
  O   O2        1.0  0.1570120385586763  0.5590130019273332  0.2193026016992334  1.0000
  O   O3        1.0  0.06463995929254902  0.7191172033889617  0.0588792351486802  1.0000
  O   O4        1.0  0.9353639984437129  0.9411252960408517  0.2808904125396836  1.0000
  O   O5        1.0  0.15698740622230656  0.21930152722916327  0.5590204112041802  1.0000
  O   O6        1.0  0.84300796839824  0.44098197940049016  0.7806882909922308  1.0000
  O   O7        1.0  0.9353637947697281  0.28088921686070734  0.9411208094745334  1.0000
  O   O8        1.0  0.06462882462224678  0.05888327022795893  0.7191096631159368  1.0000
  O   O9        1.0  0.12388827335018271  0.7013716922936267  0.3843812895260256  1.0000
  O   O10       1.0  0.8761115262106711  0.6156223973000367  0.29863885127840456  1.0000
  O   O11       1.0  0.20928345814374416  0.798675160936739  0.1155231501371858  1.0000
  O   O12       1.0  0.7907161575468676  0.884474381692698  0.20134275861998668  1.0000
  O   O13       1.0  0.8761013984459896  0.2986565727305006  0.615617574111681  1.0000
  O   O14       1.0  0.12389890594788976  0.38437904165571274  0.7013423999798576  1.0000
  O   O15       1.0  0.790716839883679  0.20133654899941433  0.8844762223292335  1.0000
  O   O16       1.0  0.20928436020370358  0.11553022557757227  0.7986505200581462  1.0000
  O   O17       1.0  0.07739423176692416  0.8898324453178574  0.481767016524195  1.0000
  O   O18       1.0  0.9226014337508419  0.5182368900111882  0.11016707253196499  1.0000
  O   O19       1.0  0.4487560334135028  0.6101885354201215  0.0182495118328134  1.0000
  O   O20       1.0  0.5512473820976002  0.9817519264305473  0.38980759270064874  1.0000
  O   O21       1.0  0.9225887534330897  0.1101780575314208  0.5182270963595244  1.0000
  O   O22       1.0  0.07740853783705857  0.48176324860097713  0.8898194017916977  1.0000
  O   O23       1.0  0.5512460459867227  0.38981878289446575  0.9817453038724293  1.0000
  O   O24       1.0  0.44875365025937  0.018249573090706406  0.6101833943673326  1.0000
  O   O25       1.0  0.2078033083902326  0.8809828139992746  0.6035063806081523  1.0000
  O   O26       1.0  0.7922265426855548  0.39648627104566  0.11900232226851408  1.0000
  O   O27       1.0  0.6919963112936431  0.6189151277689291  0.8964334399653495  1.0000
  O   O28       1.0  0.3080034181123707  0.10357331455083597  0.38107736322089636  1.0000
  O   O29       1.0  0.7921777456680063  0.11903100863543156  0.39648328732606325  1.0000
  O   O30       1.0  0.20780324015293458  0.6035095616548959  0.8809788478427973  1.0000
  O   O31       1.0  0.30798750671182523  0.3810729926488321  0.10354612020680781  1.0000
  O   O32       1.0  0.6920125611386394  0.8964450659299031  0.6189408273000724  1.0000
  O   O33       1.0  0.3433926816303058  0.4798082274036943  0.4798048126446943  1.0000
  O   O34       1.0  0.656611973000182  0.5202064111871536  0.5201886115586943  1.0000
  O   O35       1.0  0.3030791481340104  0.020273604254548213  0.020260868174780497  1.0000
  O   O36       1.0  0.6969262405398097  0.9797237656008306  0.9797405428930119  1.0000
  O   O37       1.0  0.5313162934594617  0.724706317403289  0.5434982092577129  1.0000
  O   O38       1.0  0.4687740100375993  0.4564824772640605  0.2752539967776996  1.0000
  O   O39       1.0  0.7993702334985712  0.775039421456455  0.9565651156205845  1.0000
  O   O40       1.0  0.2006345507574068  0.04340212726512502  0.22493033103296506  1.0000
  O   O41       1.0  0.4685982325778681  0.2753303533690143  0.45660935847118367  1.0000
  O   O42       1.0  0.5313231415055385  0.5434291307754008  0.7247049846280191  1.0000
  O   O43       1.0  0.20060344844257835  0.2249501759291448  0.0434496616957816  1.0000
  O   O44       1.0  0.7993774295888448  0.9565810788784289  0.7750746189008879  1.0000
  O   O45       1.0  0.5863489205189794  0.6634983561366141  0.1635243726882436  1.0000
  O   O46       1.0  0.4136721681401099  0.8364544845803509  0.3365026696835116  1.0000
  O   O47       1.0  0.41364149271789324  0.3364931369621047  0.836484441488544  1.0000
  O   O48       1.0  0.5863526587120232  0.16353408048860976  0.6635083488587982  1.0000
