data_image0
_chemical_formula_structural       Cu8H16C16O32
_chemical_formula_sum              "Cu8 H16 C16 O32"
_cell_length_a       6.238056895004062
_cell_length_b       8.979525653005885
_cell_length_c       14.322560689000124
_cell_angle_alpha    89.99998537115951
_cell_angle_beta     90.00000040483111
_cell_angle_gamma    89.9998693955957

_space_group_name_H-M_alt    "P 1"
_space_group_IT_number       1

loop_
  _space_group_symop_operation_xyz
  'x, y, z'

loop_
  _atom_site_type_symbol
  _atom_site_label
  _atom_site_symmetry_multiplicity
  _atom_site_fract_x
  _atom_site_fract_y
  _atom_site_fract_z
  _atom_site_occupancy
  Cu  Cu1       1.0  0.0019221621862542005  0.9425406923281083  0.8832763375636858  1.0000
  Cu  Cu2       1.0  0.501923852033997  0.05745685098553818  0.6167228125401394  1.0000
  Cu  Cu3       1.0  0.9980775247472242  0.5574595326706129  0.383277086289624  1.0000
  Cu  Cu4       1.0  0.4980790579985594  0.44254077423425986  0.1167235048541002  1.0000
  Cu  Cu5       1.0  0.998078334762383  0.0574599032486418  0.116723533059961  1.0000
  Cu  Cu6       1.0  0.4980766449182853  0.9425415173020751  0.3832770580836851  1.0000
  Cu  Cu7       1.0  0.0019229722014344004  0.4425410629059882  0.6167234825331959  1.0000
  Cu  Cu8       1.0  0.5019214389519036  0.5574587076979184  0.883276365769632  1.0000
  H   H1        1.0  0.9659807669131908  0.6872315192209368  0.035525713395358594  1.0000
  H   H2        1.0  0.4659795433808896  0.3127688385791173  0.4644741797732975  1.0000
  H   H3        1.0  0.03401889593388321  0.812771078680562  0.5355270792298228  1.0000
  H   H4        1.0  0.5340185815409345  0.18723086831985813  0.9644734670479096  1.0000
  H   H5        1.0  0.03402133309871401  0.3127690763546837  0.964473459029108  1.0000
  H   H6        1.0  0.5340193505081317  0.6872295297096186  0.5355263890497  1.0000
  H   H7        1.0  0.9659799979515143  0.18722951689716885  0.4644741877921703  1.0000
  H   H8        1.0  0.4659819154113053  0.8127674999680463  0.0355250071775686  1.0000
  H   H9        1.0  0.8291143465764537  0.7526859401642337  0.7389243690327163  1.0000
  H   H10       1.0  0.3291133234567668  0.24731108435300075  0.7610761751850461  1.0000
  H   H11       1.0  0.1708901395537055  0.74731211798624  0.2389243958015115  1.0000
  H   H12       1.0  0.6708863904479685  0.25268536677946674  0.2610775940252097  1.0000
  H   H13       1.0  0.1708861503740309  0.2473135417678023  0.2610761997901818  1.0000
  H   H14       1.0  0.6708903796202466  0.7526883975767757  0.2389229972395057  1.0000
  H   H15       1.0  0.8291103573949317  0.2526884775905101  0.7610754748221353  1.0000
  H   H16       1.0  0.32911250343745024  0.7473152287981147  0.7389243711959566  1.0000
  C   C1        1.0  0.8459963435946707  0.6738420679529395  0.9798393954663708  1.0000
  C   C2        1.0  0.3459982515403581  0.326159384372488  0.5201590540356591  1.0000
  C   C3        1.0  0.154004953085753  0.8261603438996302  0.4798408064861874  1.0000
  C   C4        1.0  0.6540030487378844  0.17384050857218367  0.020158390661471497  1.0000
  C   C5        1.0  0.1540057564172344  0.32615852762268804  0.020159776958102803  1.0000
  C   C6        1.0  0.6540038484734154  0.6738400975582761  0.47984151478723897  1.0000
  C   C7        1.0  0.8459971469261944  0.17384025167570624  0.5201597623366254  1.0000
  C   C8        1.0  0.3459974482143551  0.8261578597157139  0.9798400835640066  1.0000
  C   C9        1.0  0.7649227002907824  0.8640437697763087  0.7226032567736098  1.0000
  C   C10       1.0  0.26491563096022475  0.13595669746187863  0.7773986842904321  1.0000
  C   C11       1.0  0.23508659389705852  0.6359554088495115  0.22260120581928788  1.0000
  C   C12       1.0  0.7350776718125475  0.3640453150642457  0.2773979907622959  1.0000
  C   C13       1.0  0.23507298746432076  0.13595905309354347  0.2773959156507075  1.0000
  C   C14       1.0  0.7350848659829412  0.8640472390485879  0.2226011863329518  1.0000
  C   C15       1.0  0.7649155061148676  0.3640451867259671  0.7773986648043518  1.0000
  C   C16       1.0  0.2649212220728502  0.635955280513485  0.7226032762596971  1.0000
  O   O1        1.0  0.847458199289328  0.7565669415125739  0.9082027576815719  1.0000
  O   O2        1.0  0.3474619863490815  0.2434333948487149  0.5917963900094918  1.0000
  O   O3        1.0  0.15253988630711757  0.7434332730498311  0.4082041815803663  1.0000
  O   O4        1.0  0.652539318890284  0.25656646809908773  0.0917964119759489  1.0000
  O   O5        1.0  0.1525422976592878  0.24343365406432574  0.09179641474290179  1.0000
  O   O6        1.0  0.652540113662866  0.7565672007266214  0.4082041788133139  1.0000
  O   O7        1.0  0.8474606106433742  0.25656620888220516  0.5917963872425389  1.0000
  O   O8        1.0  0.34745957499686153  0.7434330138345117  0.908202760448617  1.0000
  O   O9        1.0  0.8094331772543841  0.9739715792140512  0.774893478583607  1.0000
  O   O10       1.0  0.30943127372756873  0.026026590155495893  0.7251049711739698  1.0000
  O   O11       1.0  0.1905697083016094  0.5260275775210487  0.2748928414386569  1.0000
  O   O12       1.0  0.690565231557656  0.47397098968632867  0.2251063554538959  1.0000
  O   O13       1.0  0.1905625105062114  0.02602790272194259  0.22510639204014637  1.0000
  O   O14       1.0  0.6905676201613604  0.973971778133815  0.2748928048523425  1.0000
  O   O15       1.0  0.8094291855837668  0.47397301805682446  0.7251077273841702  1.0000
  O   O16       1.0  0.3094336623277485  0.526029605891402  0.7748949115680972  1.0000
  O   O17       1.0  0.7046832748133127  0.5726274770957783  0.9910455005270364  1.0000
  O   O18       1.0  0.2046864533712096  0.42737197200606386  0.5089550445593005  1.0000
  O   O19       1.0  0.2953148165201895  0.9273727027781429  0.49104549841723605  1.0000
  O   O20       1.0  0.7953164491944092  0.0726279256287938  0.008954395942979  1.0000
  O   O21       1.0  0.29531561907386117  0.42737200483767157  0.008954370096702698  1.0000
  O   O22       1.0  0.7953156466425712  0.5726275099246932  0.4910455242635976  1.0000
  O   O23       1.0  0.7046856804302948  0.07262677915388588  0.5089550704056691  1.0000
  O   O24       1.0  0.20468404775785135  0.9273704426589614  0.9910447764816652  1.0000
  O   O25       1.0  0.6468827233352104  0.8715309109423114  0.6503473225932481  1.0000
  O   O26       1.0  0.14688049273873105  0.12846640252379157  0.8496525246976674  1.0000
  O   O27       1.0  0.3531217566607482  0.6284671842979179  0.15034806477624577  1.0000
  O   O28       1.0  0.8531160211681624  0.3715333524551737  0.3496546219770806  1.0000
  O   O29       1.0  0.3531145674906  0.12846745734725568  0.3496553408272689  1.0000
  O   O30       1.0  0.8531184011466166  0.8715341930542305  0.15034734592598648  1.0000
  O   O31       1.0  0.6468787402897436  0.3715322976341112  0.8496525040466593  1.0000
  O   O32       1.0  0.14688607884381363  0.6284672431200063  0.6503466450449052  1.0000
