data_image0
_chemical_formula_structural       Zn2H36C40N6O10
_chemical_formula_sum              "Zn2 H36 C40 N6 O10"
_cell_length_a       7.61198222816858
_cell_length_b       11.281072808697786
_cell_length_c       13.403935209804477
_cell_angle_alpha    63.016778821591565
_cell_angle_beta     72.51162739104598
_cell_angle_gamma    82.52532492365698

_space_group_name_H-M_alt    "P 1"
_space_group_IT_number       1

loop_
  _space_group_symop_operation_xyz
  'x, y, z'

loop_
  _atom_site_type_symbol
  _atom_site_label
  _atom_site_symmetry_multiplicity
  _atom_site_fract_x
  _atom_site_fract_y
  _atom_site_fract_z
  _atom_site_occupancy
  Zn  Zn1       1.0  0.32545385518398  0.39708192035165985  0.7669288189523442  1.0000
  Zn  Zn2       1.0  0.6745453869549535  0.6029181197327347  0.23307078152809887  1.0000
  H   H1        1.0  0.16370616871809318  0.646229039487693  0.03099910732316864  1.0000
  H   H2        1.0  0.836294492371273  0.35377500298818626  0.9689980509974206  1.0000
  H   H3        1.0  0.17967722455919946  0.49035447339676347  0.23267064661977355  1.0000
  H   H4        1.0  0.8203192956873334  0.5096475690243382  0.767327913571343  1.0000
  H   H5        1.0  0.3175296641312926  0.26266669277291743  0.26767603204253027  1.0000
  H   H6        1.0  0.6824696197424202  0.7373373460408106  0.7323213501206782  1.0000
  H   H7        1.0  0.46900239383213443  0.12318256840922001  0.20225180869582005  1.0000
  H   H8        1.0  0.5309982159731559  0.8768204383471385  0.7977472300598265  1.0000
  H   H9        1.0  0.5468624009693669  0.16429407710564445  0.05249406536449194  1.0000
  H   H10       1.0  0.45313958605157717  0.8357089333128587  0.9475047495485428  1.0000
  H   H11       1.0  0.4786040995321413  0.9169635406957753  0.1239408402865081  1.0000
  H   H12       1.0  0.5214033963514452  0.08303948437132648  0.8760570792560929  1.0000
  H   H13       1.0  0.24520526712267804  0.7591234353258828  0.15775525446191108  1.0000
  H   H14       1.0  0.7548049973394623  0.2408776285898711  0.8422421901063191  1.0000
  H   H15       1.0  0.8183990676968802  0.0429638328987565  0.18354232078292654  1.0000
  H   H16       1.0  0.18160423181533494  0.9570302097817562  0.8164603144614803  1.0000
  H   H17       1.0  0.046069016441471385  0.19946822381687926  0.15048674522945765  1.0000
  H   H18       1.0  0.9539316262561995  0.8005318405223463  0.8495118737765281  1.0000
  H   H19       1.0  0.6183037444946108  0.630829842000658  0.5656559520337083  1.0000
  H   H20       1.0  0.3816830935075329  0.3691681760560712  0.43434639337290554  1.0000
  H   H21       1.0  0.9077706164157036  0.5684903719874085  0.41031323869220426  1.0000
  H   H22       1.0  0.09222034828203356  0.4315116145997421  0.5896877321330437  1.0000
  H   H23       1.0  0.5767788906588647  0.22639741737649643  0.649381593517461  1.0000
  H   H24       1.0  0.42322033768628836  0.7735996391054131  0.3506191024770189  1.0000
  H   H25       1.0  0.04460483776513509  0.328005774799017  0.441339498041998  1.0000
  H   H26       1.0  0.9553915937070129  0.671997179785535  0.5586617275051752  1.0000
  H   H27       1.0  0.8761010118099434  0.331713667465543  0.3715833215947911  1.0000
  H   H28       1.0  0.12389816984906324  0.6682833478310144  0.628418889663401  1.0000
  H   H29       1.0  0.7356958890287401  0.12206077470000312  0.5391758881961337  1.0000
  H   H30       1.0  0.26430726547362576  0.877937101968428  0.4608305897858429  1.0000
  H   H31       1.0  0.8929611700442875  0.1185432130671273  0.6148888574021925  1.0000
  H   H32       1.0  0.10704208207486228  0.8814606925843051  0.3851131566561394  1.0000
  H   H33       1.0  0.9987492164089954  0.1088774360258995  0.3782759743369086  1.0000
  H   H34       1.0  0.0012566971226136035  0.891121442500989  0.6217296907884985  1.0000
  H   H35       1.0  0.15501226530679443  0.10024464648853379  0.4563079484454563  1.0000
  H   H36       1.0  0.8449880926760257  0.8997541762044037  0.5437001273140896  1.0000
  C   C1        1.0  0.27584581918287643  0.6140490640594081  0.8379919369970852  1.0000
  C   C2        1.0  0.7241548702009478  0.3859510414651695  0.16200516674519613  1.0000
  C   C3        1.0  0.2778768018851138  0.5093265493847028  0.9595410971660174  1.0000
  C   C4        1.0  0.7221155916658191  0.4906715245059773  0.04045883760645812  1.0000
  C   C5        1.0  0.21760887146459842  0.5462267978455132  0.04986765593086059  1.0000
  C   C6        1.0  0.782389021399673  0.4537742537035712  0.9501310455889964  1.0000
  C   C7        1.0  0.22686524761404306  0.45933653928602075  0.16320322354333427  1.0000
  C   C8        1.0  0.7731312959755737  0.5406655237277606  0.8367945790159298  1.0000
  C   C9        1.0  0.2998905002554719  0.33527970379442  0.18364721222415173  1.0000
  C   C10       1.0  0.7001059966479841  0.6647223180340022  0.8163521055988101  1.0000
  C   C11       1.0  0.3470116970285914  0.3771420713101037  0.9838813988935161  1.0000
  C   C12       1.0  0.6529834276105929  0.6228559893121927  0.016118845825594977  1.0000
  C   C13       1.0  0.42418815346126587  0.1594580950905566  0.12280459797894143  1.0000
  C   C14       1.0  0.5758124284030187  0.8405438965389607  0.8771955635799032  1.0000
  C   C15       1.0  0.27999148197000057  0.06891836012981399  0.13603589420793585  1.0000
  C   C16       1.0  0.7200105237960979  0.9310836763472068  0.8639625282445923  1.0000
  C   C17       1.0  0.33380691327855044  0.9450084000438324  0.1363529966330291  1.0000
  C   C18       1.0  0.6661964463601321  0.05499361950266041  0.8636459596087463  1.0000
  C   C19       1.0  0.20243553214573495  0.8559614136621576  0.15587029822232532  1.0000
  C   C20       1.0  0.7975761049341442  0.14403865938158586  0.8441272876746456  1.0000
  C   C21       1.0  0.015205508170801393  0.8898592418138946  0.17412602804660082  1.0000
  C   C22       1.0  0.9848033748312087  0.1101358718274099  0.8258730737604695  1.0000
  C   C23       1.0  0.962861937171894  0.015120566779053499  0.17051026893680904  1.0000
  C   C24       1.0  0.03714281878105647  0.9848755304099653  0.8294891392267446  1.0000
  C   C25       1.0  0.09382418097059995  0.103576004429776  0.15184735870713698  1.0000
  C   C26       1.0  0.9061778110017257  0.8964230484447598  0.8481521592594348  1.0000
  C   C27       1.0  0.8692320886654911  0.7965115820047545  0.19892406530026113  1.0000
  C   C28       1.0  0.13077547760078548  0.2034865527622429  0.8010726495716798  1.0000
  C   C29       1.0  0.6560288389456443  0.5372681356695139  0.560654981485243  1.0000
  C   C30       1.0  0.34396216359586146  0.46272695095652955  0.43934627264388854  1.0000
  C   C31       1.0  0.799454775394018  0.50785330786956  0.48446536031470805  1.0000
  C   C32       1.0  0.20053348155855127  0.49214871257864706  0.5155345429320592  1.0000
  C   C33       1.0  0.6291569986840669  0.3271977176518064  0.6060623140814627  1.0000
  C   C34       1.0  0.37084222506316405  0.6727983442959413  0.3939387470843771  1.0000
  C   C35       1.0  0.9028331553783031  0.2993554333562898  0.4564853290512546  1.0000
  C   C36       1.0  0.09716738015328019  0.7006415650097395  0.5435174159961776  1.0000
  C   C37       1.0  0.876708685413298  0.1495918985423828  0.5275004202827206  1.0000
  C   C38       1.0  0.12329176134389999  0.8504060119871044  0.47250499012076136  1.0000
  C   C39       1.0  0.01310195935057119  0.0753522591487226  0.4665226552404037  1.0000
  C   C40       1.0  0.9868998175826815  0.9246505659356928  0.533482978359288  1.0000
  N   N1        1.0  0.35723867582088076  0.2956304579956139  0.09733654731783767  1.0000
  N   N2        1.0  0.6427578118867314  0.7043695747644847  0.9026635008478223  1.0000
  N   N3        1.0  0.5507796939671152  0.42374292126432067  0.6356396681944291  1.0000
  N   N4        1.0  0.44921267164281886  0.5762541374995179  0.36436138938125157  1.0000
  N   N5        1.0  0.7806545562408825  0.3743821278686569  0.5150123824192576  1.0000
  N   N6        1.0  0.21934054965314684  0.6256169066951287  0.48498825476036  1.0000
  O   O1        1.0  0.27247834920999026  0.7328417321263174  0.8198066600286398  1.0000
  O   O2        1.0  0.727523717389495  0.26715837706041157  0.18019021987102962  1.0000
  O   O3        1.0  0.27734003644250277  0.5771853501293053  0.7591342048786915  1.0000
  O   O4        1.0  0.7226578797648456  0.42281572201245887  0.2408637390093133  1.0000
  O   O5        1.0  0.40386279905667505  0.32548107632490547  0.9129554346653992  1.0000
  O   O6        1.0  0.5961267887788678  0.6745159545219579  0.0870468282273507  1.0000
  O   O7        1.0  0.7025847916772462  0.8304659795098958  0.21528533728771046  1.0000
  O   O8        1.0  0.297421355285138  0.16953310494376692  0.7847127515191945  1.0000
  O   O9        1.0  0.918606385811891  0.6787846381697804  0.20510742420054137  1.0000
  O   O10       1.0  0.08140526081728437  0.3212124718641505  0.794890499578621  1.0000
