data_image0
_chemical_formula_structural       Nb4Ag4H16C16N8O4F16
_chemical_formula_sum              "Nb4 Ag4 H16 C16 N8 O4 F16"
_cell_length_a       7.835648750888542
_cell_length_b       8.086746454048576
_cell_length_c       15.176802550359097
_cell_angle_alpha    89.99966950468297
_cell_angle_beta     90.0007862604095
_cell_angle_gamma    118.99204197020363

_space_group_name_H-M_alt    "P 1"
_space_group_IT_number       1

loop_
  _space_group_symop_operation_xyz
  'x, y, z'

loop_
  _atom_site_type_symbol
  _atom_site_label
  _atom_site_symmetry_multiplicity
  _atom_site_fract_x
  _atom_site_fract_y
  _atom_site_fract_z
  _atom_site_occupancy
  Nb  Nb1       1.0  0.9661981706943266  9.295424732000185e-07  0.24774598961536753  1.0000
  Nb  Nb2       1.0  0.5338104677896994  5.986087941800012e-06  0.7477437143606595  1.0000
  Nb  Nb3       1.0  0.4661957150936402  0.9999981454575605  0.2522535002855477  1.0000
  Nb  Nb4       1.0  0.03380884403486561  4.062469649600001e-06  0.7522527739753144  1.0000
  Ag  Ag1       1.0  0.25322005752697413  3.9387665400001436e-07  0.9786233675044756  1.0000
  Ag  Ag2       1.0  0.24677901099575902  0.9999966720948237  0.47861990304982543  1.0000
  Ag  Ag3       1.0  0.7532208215546135  0.9999981162926803  0.5213757626454836  1.0000
  Ag  Ag4       1.0  0.7467769157977601  0.9999980817924838  0.0213804361210137  1.0000
  H   H1        1.0  0.03743117072829693  0.709789275355192  0.12199903908674513  1.0000
  H   H2        1.0  0.4625643986566815  0.29020698127202854  0.6219806857038179  1.0000
  H   H3        1.0  0.8276621856391415  0.29016191335610836  0.3780017349362198  1.0000
  H   H4        1.0  0.6723446941446056  0.7098430234777526  0.8780188996442819  1.0000
  H   H5        1.0  0.9625745990645741  0.2902063742112517  0.8780106946771441  1.0000
  H   H6        1.0  0.5374335753094143  0.7097858398967247  0.3780119166286014  1.0000
  H   H7        1.0  0.17234299642940692  0.709847872675553  0.6219941618970495  1.0000
  H   H8        1.0  0.32763867145589387  0.2901512093719845  0.12199346964366241  1.0000
  H   H9        1.0  0.13673158467021546  0.641801173479479  0.8574851141254598  1.0000
  H   H10       1.0  0.3632720609375397  0.3582012729873369  0.35747721564660406  1.0000
  H   H11       1.0  0.9951079923173725  0.35824841151342923  0.6424887632329188  1.0000
  H   H12       1.0  0.5048631634253269  0.6417460906818137  0.14250511995349066  1.0000
  H   H13       1.0  0.8632722017592515  0.3581930621573902  0.14252264293264014  1.0000
  H   H14       1.0  0.636735692017929  0.6417957904922175  0.6425199990161163  1.0000
  H   H15       1.0  0.004857780173423819  0.6417514735274777  0.3574992266722248  1.0000
  H   H16       1.0  0.49513096364925974  0.3582594528892287  0.8575079082553998  1.0000
  C   C1        1.0  0.02152439650981815  0.616190279864341  0.06745799511561763  1.0000
  C   C2        1.0  0.4784720768793136  0.38380302589057186  0.5674565959335851  1.0000
  C   C3        1.0  0.9053115475431711  0.38375662865597354  0.4325337731188129  1.0000
  C   C4        1.0  0.5946975499410668  0.6162498458059958  0.9325388172099738  1.0000
  C   C5        1.0  0.9784844951063505  0.3838039564676308  0.9325471263593105  1.0000
  C   C6        1.0  0.5215295700837856  0.6161996913807994  0.4325425953996885  1.0000
  C   C7        1.0  0.09465652012447373  0.6162248791541814  0.5674410388166038  1.0000
  C   C8        1.0  0.4053270340123802  0.383778320412084  0.06746037416515803  1.0000
  C   C9        1.0  0.07528706169169647  0.579090126248474  0.9212085608943996  1.0000
  C   C10       1.0  0.4247131246621052  0.4208969140551843  0.4211989269604572  1.0000
  C   C11       1.0  0.9962624185868523  0.42092576885104904  0.5787888232657538  1.0000
  C   C12       1.0  0.503730790297787  0.5790728328270233  0.07878296343233161  1.0000
  C   C13       1.0  0.9247181388255896  0.4209069368962588  0.07880117286528332  1.0000
  C   C14       1.0  0.5752849869947309  0.5790987344394265  0.5787890630658554  1.0000
  C   C15       1.0  0.0037216539525956314  0.5790698777440114  0.4212169570193467  1.0000
  C   C16       1.0  0.49626506280584676  0.42091574710202206  0.9212261114070444  1.0000
  N   N1        1.0  0.09681778677690281  0.6954610785141001  0.9888465511100435  1.0000
  N   N2        1.0  0.40317645959644466  0.30453600997140745  0.48883119493528693  1.0000
  N   N3        1.0  0.9014472332196701  0.30452641807994496  0.511143984378478  1.0000
  N   N4        1.0  0.5985283730022815  0.6954635458643779  0.011167427548265602  1.0000
  N   N5        1.0  0.9031861374163198  0.3045359844546097  0.0111618648444818  1.0000
  N   N6        1.0  0.5968243425544202  0.6954624662138186  0.5111660197006103  1.0000
  N   N7        1.0  0.09853387327996885  0.695460746159327  0.48884993570356283  1.0000
  N   N8        1.0  0.40145994185537864  0.3045405832587562  0.9888482362434704  1.0000
  O   O1        1.0  0.7414426556307061  0.9999933422017548  0.22489100450540891  1.0000
  O   O2        1.0  0.7585589993305746  4.178348966400021e-06  0.7248885766783318  1.0000
  O   O3        1.0  0.24144307911696206  0.9999942980100301  0.27510797906177237  1.0000
  O   O4        1.0  0.2585663554008875  1.644435722169999e-05  0.7751081868430064  1.0000
  F   F1        1.0  0.04322856348176148  0.9998836184379271  0.1253155144845834  1.0000
  F   F2        1.0  0.4567671162667467  9.99228393894e-05  0.6253131734174391  1.0000
  F   F3        1.0  0.5432300129875214  0.9998886572514536  0.3746847001210867  1.0000
  F   F4        1.0  0.9567731017201384  0.00010637592929190003  0.8746823590678263  1.0000
  F   F5        1.0  0.133940490648527  0.27132748134165036  0.24890228446853516  1.0000
  F   F6        1.0  0.3660611293475212  0.7286817868710855  0.7489082447571537  1.0000
  F   F7        1.0  0.3624872506028325  0.7286736652186719  0.2509719919045992  1.0000
  F   F8        1.0  0.13751798006784097  0.2713299535513158  0.750972477926851  1.0000
  F   F9        1.0  0.8660720736725549  0.72867665106898  0.7510883411971252  1.0000
  F   F10       1.0  0.6339406554249721  0.27132375773586404  0.2510948999741203  1.0000
  F   F11       1.0  0.6375285734148406  0.2713318812983019  0.7490225871723197  1.0000
  F   F12       1.0  0.8624843739619835  0.7286741774758527  0.2490293490080049  1.0000
  F   F13       1.0  0.5499903524514309  0.9998604628078311  0.8754819094955764  1.0000
  F   F14       1.0  0.9500339953062991  0.0001769847728994  0.3754836418701331  1.0000
  F   F15       1.0  0.049985483433068946  0.9998511807478395  0.6245162083872345  1.0000
  F   F16       1.0  0.4500134155931976  0.00014649572121070006  0.12451662293832302  1.0000
