data_image0
_chemical_formula_structural       La2H16C14Se2N2O18
_chemical_formula_sum              "La2 H16 C14 Se2 N2 O18"
_cell_length_a       7.159620866987047
_cell_length_b       7.151551467219523
_cell_length_c       12.722912953552578
_cell_angle_alpha    76.2820321474518
_cell_angle_beta     73.66139281244476
_cell_angle_gamma    70.84273799240624

_space_group_name_H-M_alt    "P 1"
_space_group_IT_number       1

loop_
  _space_group_symop_operation_xyz
  'x, y, z'

loop_
  _atom_site_type_symbol
  _atom_site_label
  _atom_site_symmetry_multiplicity
  _atom_site_fract_x
  _atom_site_fract_y
  _atom_site_fract_z
  _atom_site_occupancy
  La  La1       1.0  0.1806851155914018  0.0555271832574107  0.0905675414810929  1.0000
  La  La2       1.0  0.8193105563758605  0.9444719722084188  0.9094308902646303  1.0000
  H   H1        1.0  0.5522642961485147  0.34715676448308125  0.27143937623054626  1.0000
  H   H2        1.0  0.44773991640575883  0.6528378958516966  0.7285622400268251  1.0000
  H   H3        1.0  0.9346999183440586  0.7458507234516317  0.2590169879754214  1.0000
  H   H4        1.0  0.06529995838296539  0.25414394730616147  0.7409790186279962  1.0000
  H   H5        1.0  0.790411612370022  0.9761229368610884  0.23624122031469597  1.0000
  H   H6        1.0  0.20959159491764723  0.0238702357503513  0.7637560339402113  1.0000
  H   H7        1.0  0.11774016946394282  0.43719401288038995  0.8891664206625902  1.0000
  H   H8        1.0  0.882261058461019  0.5628111541660203  0.11083113277332035  1.0000
  H   H9        1.0  0.35455106336347336  0.3252396815157184  0.8867652612452659  1.0000
  H   H10       1.0  0.6454472658631188  0.6747654866464926  0.11323038843992346  1.0000
  H   H11       1.0  0.4169977551587323  0.6802088375096818  0.5000006406151555  1.0000
  H   H12       1.0  0.5829987526009718  0.3197873038966463  0.5000027738529196  1.0000
  H   H13       1.0  0.27910538204360336  0.981020137140838  0.5961209763722977  1.0000
  H   H14       1.0  0.720896094303427  0.018979021092988494  0.4038796891446734  1.0000
  H   H15       1.0  0.10147851777806235  0.3112566473153748  0.4957506049674834  1.0000
  H   H16       1.0  0.8985196140422573  0.6887439990655936  0.5042519603584167  1.0000
  C   C1        1.0  0.3991809802263189  0.6766652509978784  0.28633074415800747  1.0000
  C   C2        1.0  0.6008306747344035  0.32333392707874253  0.713669109268025  1.0000
  C   C3        1.0  0.3154484044424563  0.8475977285689498  0.3513261568243067  1.0000
  C   C4        1.0  0.6845561540431574  0.15240594033111426  0.6486726442630939  1.0000
  C   C5        1.0  0.3394353279191051  0.8254664743567872  0.45915162644879354  1.0000
  C   C6        1.0  0.6605622200223492  0.17453117977088786  0.5408482813707067  1.0000
  C   C7        1.0  0.2624497597076427  0.9937292386644498  0.5121401055737849  1.0000
  C   C8        1.0  0.7375423877842026  0.0062668956662861  0.48786320729605837  1.0000
  C   C9        1.0  0.16342784661690496  0.17660620871927785  0.45715943431476797  1.0000
  C   C10       1.0  0.8365655140223607  0.8233959426154412  0.5428389643215183  1.0000
  C   C11       1.0  0.1447618641962478  0.1845200262035931  0.3494779920814963  1.0000
  C   C12       1.0  0.8552289946917854  0.8154806042183793  0.6505257153558617  1.0000
  C   C13       1.0  0.03959928679875451  0.3762181034934216  0.2836604639705058  1.0000
  C   C14       1.0  0.9603974044011707  0.623782549694951  0.716339182317263  1.0000
  Se  Se1       1.0  0.39456888385853267  0.7070511058601312  0.9135580509940978  1.0000
  Se  Se2       1.0  0.6054311413935523  0.29294805168169097  0.08644205608006662  1.0000
  N   N1        1.0  0.22041142981565534  0.023823391442078904  0.297849222485162  1.0000
  N   N2        1.0  0.7795839727804437  0.9761817578375299  0.7021508183701214  1.0000
  O   O1        1.0  0.3877029506213889  0.7165851370521847  0.1840978576125636  1.0000
  O   O2        1.0  0.6123052008130117  0.28341103488813957  0.8159021557469684  1.0000
  O   O3        1.0  0.48144656585897383  0.5052880832583994  0.3348305901044881  1.0000
  O   O4        1.0  0.5185665401966945  0.49471109551021897  0.6651698217643582  1.0000
  O   O5        1.0  0.03417479670066829  0.3651547222604491  0.1848622061434568  1.0000
  O   O6        1.0  0.9658214521624302  0.6348474204590672  0.8151404568388685  1.0000
  O   O7        1.0  0.9669817655314928  0.5303632182219573  0.3290183263289492  1.0000
  O   O8        1.0  0.03301944842741018  0.46964193882524796  0.6709823745673802  1.0000
  O   O9        1.0  0.48336775406051663  0.8879880305821215  0.9335178009476335  1.0000
  O   O10       1.0  0.5166356157182861  0.11200963881255886  0.06648040631759496  1.0000
  O   O11       1.0  0.1464737153503108  0.8060079701005236  0.9751707411402888  1.0000
  O   O12       1.0  0.8535306736611546  0.1939911970167003  0.02482868066699236  1.0000
  O   O13       1.0  0.3948410105608391  0.7824170371102284  0.7697359143738396  1.0000
  O   O14       1.0  0.6051584203378441  0.21757912067890564  0.2302638957892285  1.0000
  O   O15       1.0  0.9286516012551546  0.8872407503434798  0.21843889125228333  1.0000
  O   O16       1.0  0.07135117417023909  0.1127539192985054  0.7815590191018698  1.0000
  O   O17       1.0  0.21641385318550016  0.34769068844757806  0.9344827268264239  1.0000
  O   O18       1.0  0.7835867873690886  0.6523114838457358  0.0655129559681953  1.0000
