data_image0
_chemical_formula_structural       Al4H20C56Br8N8O20
_chemical_formula_sum              "Al4 H20 C56 Br8 N8 O20"
_cell_length_a       6.704957654053508
_cell_length_b       23.07397993035635
_cell_length_c       26.149277631030998
_cell_angle_alpha    100.43185053215875
_cell_angle_beta     89.99848675728218
_cell_angle_gamma    90.00158920511093

_space_group_name_H-M_alt    "P 1"
_space_group_IT_number       1

loop_
  _space_group_symop_operation_xyz
  'x, y, z'

loop_
  _atom_site_type_symbol
  _atom_site_label
  _atom_site_symmetry_multiplicity
  _atom_site_fract_x
  _atom_site_fract_y
  _atom_site_fract_z
  _atom_site_occupancy
  Al  Al1       1.0  0.7950303207560834  0.7491020298000419  0.24954796889439018  1.0000
  Al  Al2       1.0  0.2049788330780871  0.25089584211497146  0.75044982717845  1.0000
  Al  Al3       1.0  0.2950272027417356  0.7508958457953766  0.2504474363377227  1.0000
  Al  Al4       1.0  0.704977476953779  0.2491033576691422  0.74954841361577  1.0000
  H   H1        1.0  0.6986506546198754  0.008708647857965006  0.556419442768842  1.0000
  H   H2        1.0  0.3013346363096048  0.9912911980977057  0.4435795180142037  1.0000
  H   H3        1.0  0.1986612801297198  0.4912868011564768  0.9435776716857589  1.0000
  H   H4        1.0  0.8013195360271295  0.5087035927040945  0.0564216883994533  1.0000
  H   H5        1.0  0.2602649281587475  0.1705526940256732  0.8776158746414991  1.0000
  H   H6        1.0  0.7397457171631955  0.8294492064596284  0.1223846395567705  1.0000
  H   H7        1.0  0.760288650330402  0.32945181293644765  0.6223828202146748  1.0000
  H   H8        1.0  0.2397234862372812  0.6705478090875941  0.3776192522141385  1.0000
  H   H9        1.0  0.264534363368547  0.10520817121791028  0.9442050040576645  1.0000
  H   H10       1.0  0.7354718077381363  0.8947975971777141  0.055797450589764694  1.0000
  H   H11       1.0  0.7645338104008983  0.39479793754959047  0.5557928866928492  1.0000
  H   H12       1.0  0.23544700621125259  0.605207365775719  0.444211513210483  1.0000
  H   H13       1.0  0.6595883175889554  0.1154760555245673  0.8364370930251965  1.0000
  H   H14       1.0  0.3404238192304874  0.8845255236869534  0.1635618657819151  1.0000
  H   H15       1.0  0.159612758079966  0.38452132519518756  0.6635688004641409  1.0000
  H   H16       1.0  0.8403949043683028  0.6154763057555142  0.3364278290728464  1.0000
  H   H17       1.0  0.5488404006200015  0.8260325168162908  0.27186042792878595  1.0000
  H   H18       1.0  0.45116726144896546  0.17396379950476157  0.7281424260036359  1.0000
  H   H19       1.0  0.04883220807566599  0.6739633294545015  0.2281410624670386  1.0000
  H   H20       1.0  0.9511724713361929  0.32603407746199753  0.7718586788015926  1.0000
  C   C1        1.0  0.5440425917211584  0.6855744661223894  0.313375572187411  1.0000
  C   C2        1.0  0.45596805332997536  0.3144234227329931  0.6866265021443494  1.0000
  C   C3        1.0  0.0440296583672293  0.8144246041933414  0.18662283080222145  1.0000
  C   C4        1.0  0.9559720383444628  0.1855746478884086  0.8133753527148213  1.0000
  C   C5        1.0  0.5432795461700266  0.6733576969565434  0.1734257478153225  1.0000
  C   C6        1.0  0.4567251332211341  0.32663927666907  0.8265739939279728  1.0000
  C   C7        1.0  0.04326100136276519  0.8266397955676509  0.3265734391761654  1.0000
  C   C8        1.0  0.9567451695130629  0.1733590718660807  0.6734270783576193  1.0000
  C   C9        1.0  0.8303348716273007  0.004540189265782071  0.5316897169738937  1.0000
  C   C10       1.0  0.1696563848474568  0.9954589993955805  0.4683123559896956  1.0000
  C   C11       1.0  0.3303463625077113  0.4954569686606617  0.9683105277060803  1.0000
  C   C12       1.0  0.6696419110869485  0.5045390580070404  0.031688826187057394  1.0000
  C   C13       1.0  0.9874781067028948  0.04534776714201881  0.5443662264622731  1.0000
  C   C14       1.0  0.0125161327780319  0.9546501850414373  0.45563195850022714  1.0000
  C   C15       1.0  0.4874899742703889  0.45464637965256566  0.9556342846707508  1.0000
  C   C16       1.0  0.5125117220988499  0.5453465337053842  0.0443646836596585  1.0000
  C   C17       1.0  0.1574444360979186  0.0398616563365692  0.5116858277745635  1.0000
  C   C18       1.0  0.8425423461011192  0.9601384792108972  0.48831663309930207  1.0000
  C   C19       1.0  0.6574344649619448  0.4601382923294821  0.9883157970471642  1.0000
  C   C20       1.0  0.34254933460399417  0.5398601248011943  0.011680442762482798  1.0000
  C   C21       1.0  0.9728007725952211  0.08995727629412897  0.5888823161474119  1.0000
  C   C22       1.0  0.027186009595943996  0.9100402108805451  0.4111178140194625  1.0000
  C   C23       1.0  0.4728024697266875  0.41003806938878984  0.9111182781031743  1.0000
  C   C24       1.0  0.5271872953192939  0.5899562558127511  0.088879132976075  1.0000
  C   C25       1.0  0.03833461599664641  0.8717856552311717  0.37247741016030017  1.0000
  C   C26       1.0  0.9616655893481932  0.128215410328707  0.6275211603091009  1.0000
  C   C27       1.0  0.5383430805668822  0.6282141135337725  0.1275183022833133  1.0000
  C   C28       1.0  0.46165861599511965  0.37178159190117543  0.8724794961843115  1.0000
  C   C29       1.0  0.1303147452224138  0.14426106624894428  0.883656425082826  1.0000
  C   C30       1.0  0.8697033572729467  0.855741347872616  0.11634447746602918  1.0000
  C   C31       1.0  0.6303147458456594  0.3557468797552161  0.6163430133497342  1.0000
  C   C32       1.0  0.36967203686953093  0.6442603321505941  0.38365593935975545  1.0000
  C   C33       1.0  0.1326452256792194  0.10772326869707173  0.9204153814573317  1.0000
  C   C34       1.0  0.8673609453829413  0.8922794983546111  0.0795851318044924  1.0000
  C   C35       1.0  0.6326464872326979  0.3922814510371282  0.5795809356269004  1.0000
  C   C36       1.0  0.3673417868812336  0.6077237867510945  0.4204168524367944  1.0000
  C   C37       1.0  0.967131692808806  0.07258863791049207  0.9272547173218227  1.0000
  C   C38       1.0  0.032868512505608294  0.9274163442025839  0.0727481271388228  1.0000
  C   C39       1.0  0.4671396361042994  0.4274127518101166  0.5727501811713367  1.0000
  C   C40       1.0  0.532850128799666  0.5725860521827143  0.427254225826168  1.0000
  C   C41       1.0  0.797132325224986  0.0752633975630559  0.8962176200939496  1.0000
  C   C42       1.0  0.20288279447785837  0.9247381013389955  0.1037809498578497  1.0000
  C   C43       1.0  0.2971487875298493  0.42473224907906365  0.6037870954395643  1.0000
  C   C44       1.0  0.7028544001248848  0.5752608735509526  0.39621498413495  1.0000
  C   C45       1.0  0.7912477758536622  0.11311587532853198  0.8603451716619263  1.0000
  C   C46       1.0  0.20876286948899292  0.8868864584476556  0.13965534206167968  1.0000
  C   C47       1.0  0.2912495193764784  0.3868880436361052  0.6396599576254045  1.0000
  C   C48       1.0  0.7087253315932925  0.613114642988144  0.3603401668798725  1.0000
  C   C49       1.0  0.9586512479965279  0.14728999065813034  0.8537311452197471  1.0000
  C   C50       1.0  0.04136685433154239  0.852710578287926  0.1462713150892796  1.0000
  C   C51       1.0  0.4586580053390746  0.35271337823789384  0.6462710773323437  1.0000
  C   C52       1.0  0.5413138628253548  0.6472906082487455  0.3537290457575394  1.0000
  C   C53       1.0  0.017890893894666197  0.9665127642277296  0.0340670114333435  1.0000
  C   C54       1.0  0.9821063285156342  0.0334918649039295  0.9659362223572713  1.0000
  C   C55       1.0  0.5178767753032645  0.5334908290302209  0.46593542633669216  1.0000
  C   C56       1.0  0.4821070238881404  0.4665067870814139  0.5340674262404476  1.0000
  Br  Br1       1.0  0.6283378637611179  0.9063112759680008  0.4729421198044292  1.0000
  Br  Br2       1.0  0.37166084950940353  0.0936854905484026  0.5270650119422982  1.0000
  Br  Br3       1.0  0.1283588672020457  0.5936908281022822  0.0270487942014483  1.0000
  Br  Br4       1.0  0.8716562531796794  0.4063137016577086  0.9729392711930629  1.0000
  Br  Br5       1.0  0.5754639017092059  0.02480912982186106  0.8998727309381704  1.0000
  Br  Br6       1.0  0.42454972659013623  0.9751938295871694  0.10012661528737249  1.0000
  Br  Br7       1.0  0.07547063759280802  0.4751901282782143  0.6001371447133365  1.0000
  Br  Br8       1.0  0.9245057046641136  0.5248111464665399  0.3998645370731638  1.0000
  N   N1        1.0  0.835714571571536  0.0356476144621638  0.0017464786475401  1.0000
  N   N2        1.0  0.16429458243138131  0.9643558585420849  0.9982532559629433  1.0000
  N   N3        1.0  0.33570811613285667  0.4643555412090877  0.49825554043009385  1.0000
  N   N4        1.0  0.6642846322232572  0.5356505314840446  0.5017441913796432  1.0000
  N   N5        1.0  0.8541616743178225  0.0011909385385066998  0.03673423381280119  1.0000
  N   N6        1.0  0.14583853109700579  0.9988140752668074  0.9632666659395993  1.0000
  N   N7        1.0  0.3541441695322405  0.4988139651237661  0.463269233040883  1.0000
  N   N8        1.0  0.6458426128436089  0.5011890428204281  0.5367324468169128  1.0000
  O   O1        1.0  0.3746893002396802  0.6918153181618578  0.19209626982215872  1.0000
  O   O2        1.0  0.625304939386183  0.3081856670577706  0.8079019118177014  1.0000
  O   O3        1.0  0.8747010717195921  0.8081901669731267  0.3079013914968058  1.0000
  O   O4        1.0  0.1253080821862227  0.1918100320357539  0.6920971798961587  1.0000
  O   O5        1.0  0.7138318524649064  0.6981014018735722  0.2963828053520103  1.0000
  O   O6        1.0  0.2861608954707009  0.30189711254284646  0.7036181015417994  1.0000
  O   O7        1.0  0.21385775503056687  0.801899639567665  0.2036185083443698  1.0000
  O   O8        1.0  0.786152890213323  0.19810104136471549  0.7963823961245992  1.0000
  O   O9        1.0  0.71457210036489  0.6901944962540084  0.1912149642475285  1.0000
  O   O10       1.0  0.2854325791538059  0.3098018348137828  0.8087816667220338  1.0000
  O   O11       1.0  0.2145835865034869  0.8098010928439762  0.3087809061205887  1.0000
  O   O12       1.0  0.7854270587101694  0.19019812757630208  0.6912192220789349  1.0000
  O   O13       1.0  0.8750117652677145  0.7983709421778613  0.2013603734207194  1.0000
  O   O14       1.0  0.12500484590716346  0.20162928854891496  0.7986362532425346  1.0000
  O   O15       1.0  0.37498412864127306  0.7016261349380103  0.298632239216893  1.0000
  O   O16       1.0  0.6250220423159191  0.29837070974551944  0.7013647801204285  1.0000
  O   O17       1.0  0.5461085808702463  0.785540359935176  0.25361202821559903  1.0000
  O   O18       1.0  0.4538946072178263  0.21445810588965483  0.7463865450931947  1.0000
  O   O19       1.0  0.04611283789379429  0.714457456468935  0.24638441954429166  1.0000
  O   O20       1.0  0.9538933330729192  0.2855404154358183  0.7536133765371388  1.0000
