data_image0
_chemical_formula_structural       Zn16H32C96S16N16O52F16
_chemical_formula_sum              "Zn16 H32 C96 S16 N16 O52 F16"
_cell_length_a       19.73501941705706
_cell_length_b       19.80704275162563
_cell_length_c       33.56672073090524
_cell_angle_alpha    78.4030077074832
_cell_angle_beta     78.61935710069147
_cell_angle_gamma    63.60049055610233

_space_group_name_H-M_alt    "P 1"
_space_group_IT_number       1

loop_
  _space_group_symop_operation_xyz
  'x, y, z'

loop_
  _atom_site_type_symbol
  _atom_site_label
  _atom_site_symmetry_multiplicity
  _atom_site_fract_x
  _atom_site_fract_y
  _atom_site_fract_z
  _atom_site_occupancy
  Zn  Zn1       1.0  0.0541887897268083  0.401930084390571  0.4784745242986404  1.0000
  Zn  Zn2       1.0  0.9852086234614533  0.48337745067828314  0.5599858639987261  1.0000
  Zn  Zn3       1.0  0.05874168983640971  0.5612680630960015  0.4839252774207168  1.0000
  Zn  Zn4       1.0  0.9020884671781246  0.5535070560692293  0.4781890510919736  1.0000
  Zn  Zn5       1.0  0.6951648402711613  0.3476027492322657  0.2721071156895789  1.0000
  Zn  Zn6       1.0  0.690076510164488  0.1900322867979297  0.26610131908133644  1.0000
  Zn  Zn7       1.0  0.7673124745636315  0.2647918913142321  0.19005075849323558  1.0000
  Zn  Zn8       1.0  0.8478657866249223  0.1971188815764151  0.2720055935883465  1.0000
  Zn  Zn9       1.0  0.2658223568411771  0.7654606654586192  0.6901520005129953  1.0000
  Zn  Zn10      1.0  0.34858420505290166  0.6972369629842133  0.7712411644964946  1.0000
  Zn  Zn11      1.0  0.19508312979980497  0.8475281545204183  0.7722019046580186  1.0000
  Zn  Zn12      1.0  0.1901052194783759  0.6898973619425064  0.7661480188972406  1.0000
  Zn  Zn13      1.0  0.5587035471120814  0.06121684213310643  0.9839325012136441  1.0000
  Zn  Zn14      1.0  0.40281036696782024  0.0534863890512369  0.9773546037734135  1.0000
  Zn  Zn15      1.0  0.5541110920901388  0.9018616675011589  0.9785146006637007  1.0000
  Zn  Zn16      1.0  0.4840153272381259  0.9839922964646703  0.05998980594016961  1.0000
  H   H1        1.0  0.7979573891064008  0.5344758018518049  0.42146160817679856  1.0000
  H   H2        1.0  0.7240415010287152  0.5283766932789715  0.40489221278041754  1.0000
  H   H3        1.0  0.9465292585566872  0.2112961552758249  0.3335949119461858  1.0000
  H   H4        1.0  0.9963202153250992  0.1936068873754023  0.3739539977113111  1.0000
  H   H5        1.0  0.71471319836445  0.45318277351780256  0.32848509140734455  1.0000
  H   H6        1.0  0.7215746272634577  0.5265332586203544  0.34484580549790417  1.0000
  H   H7        1.0  0.0400795126267965  0.30304304326485004  0.4161725714444984  1.0000
  H   H8        1.0  0.05667339036011751  0.2529643029424379  0.3762618366825237  1.0000
  H   H9        1.0  0.14555848716175032  0.6360507581659504  0.5218033929104352  1.0000
  H   H10       1.0  0.21469727659918902  0.6567857551102917  0.5333723405062898  1.0000
  H   H11       1.0  0.11394318902833331  0.6042659777467988  0.7283499153350164  1.0000
  H   H12       1.0  0.0922842805806425  0.5358468902094201  0.7168259222919601  1.0000
  H   H13       1.0  0.22357468807229006  0.7327402803666914  0.6096907481397054  1.0000
  H   H14       1.0  0.18845634751161106  0.7451216326588579  0.5644939087971181  1.0000
  H   H15       1.0  0.017120531017432897  0.5264466660522018  0.6403803346742976  1.0000
  H   H16       1.0  0.0038865944164498964  0.5622608315738162  0.6852865204665833  1.0000
  H   H17       1.0  0.7233027700447396  0.23300475572097645  0.10949144699026193  1.0000
  H   H18       1.0  0.6880462063625004  0.24536812564931426  0.06436888427383283  1.0000
  H   H19       1.0  0.5168932932991269  0.026957924625456417  0.1405028861028299  1.0000
  H   H20       1.0  0.5045156610488989  0.06208109188914789  0.1855527930388803  1.0000
  H   H21       1.0  0.6456603009961556  0.13561267355592574  0.02177708281814009  1.0000
  H   H22       1.0  0.7145043299725488  0.15690202755572358  0.03324914743455309  1.0000
  H   H23       1.0  0.6147109784190478  0.10412962098654076  0.22827235046363373  1.0000
  H   H24       1.0  0.5932425784201741  0.03555882042346784  0.2168205170940851  1.0000
  H   H25       1.0  0.21506791843506795  0.9525330067125704  0.8284822243102213  1.0000
  H   H26       1.0  0.22182594433727595  0.02584363725806331  0.8449896817574114  1.0000
  H   H27       1.0  0.5404343095118236  0.8023154442684233  0.9162130564930778  1.0000
  H   H28       1.0  0.5572223416888847  0.752347374737532  0.8762322748729332  1.0000
  H   H29       1.0  0.29852154029261874  0.034233903437168964  0.9211453380940213  1.0000
  H   H30       1.0  0.2245363023565262  0.02765126709644511  0.9049820859795972  1.0000
  H   H31       1.0  0.4467065800150181  0.7105958762221294  0.8336719436423935  1.0000
  H   H32       1.0  0.4965026469671798  0.6929427976655375  0.8740162660336779  1.0000
  C   C1        1.0  0.0614142441693204  0.3165770147259436  0.5616085686169399  1.0000
  C   C2        1.0  0.07028647872580508  0.5699478449468883  0.5696983483881937  1.0000
  C   C3        1.0  0.1827324338765806  0.44041885707596146  0.4390993911265896  1.0000
  C   C4        1.0  0.9371076428602195  0.6835834966935435  0.4387638340955533  1.0000
  C   C5        1.0  0.9304702006210874  0.4298162834014292  0.4302633353468226  1.0000
  C   C6        1.0  0.8177499618295769  0.5604357657861595  0.5615302617729725  1.0000
  C   C7        1.0  0.5663739860792562  0.3098354204250454  0.3113392647597167  1.0000
  C   C8        1.0  0.6806176974822548  0.17961157572904085  0.18021442713684624  1.0000
  C   C9        1.0  0.6894449194713417  0.4320107296098356  0.18847200737010178  1.0000
  C   C10       1.0  0.9343624842683909  0.18833608679670275  0.18926940463637013  1.0000
  C   C11       1.0  0.8189889148941776  0.32114210913979957  0.3197493288018265  1.0000
  C   C12       1.0  0.8116186819425694  0.06747996874594246  0.31128593151722583  1.0000
  C   C13       1.0  0.4330520165656041  0.6899872301369996  0.688085824089363  1.0000
  C   C14       1.0  0.31956383250324194  0.8206201659193371  0.8195500380532081  1.0000
  C   C15       1.0  0.1883006422357951  0.9323341168583498  0.6887252960702669  1.0000
  C   C16       1.0  0.06638362160364858  0.8096280411504959  0.8114531290218281  1.0000
  C   C17       1.0  0.1801386582070279  0.6794843060092219  0.6804325526575496  1.0000
  C   C18       1.0  0.3127518530086917  0.5674048326327393  0.8108636096406556  1.0000
  C   C19       1.0  0.43757525081703363  0.18380924560396034  0.9386241291043333  1.0000
  C   C20       1.0  0.4312123437852834  0.9294744836659773  0.9298530266529427  1.0000
  C   C21       1.0  0.6826932308301396  0.9403461952366212  0.9391630793048051  1.0000
  C   C22       1.0  0.5609083271502656  0.8170003934801071  0.06188695745446179  1.0000
  C   C23       1.0  0.5696528143459504  0.07026212307852826  0.0698071301707159  1.0000
  C   C24       1.0  0.3167160002605698  0.06062735040219985  0.0602567158355853  1.0000
  C   C25       1.0  0.9022653005238725  0.4022912225425369  0.40228719317968137  1.0000
  C   C26       1.0  0.8471928231183979  0.3486756892264681  0.3477046623252917  1.0000
  C   C27       1.0  0.8289546620542156  0.44734170781404  0.38877017056685037  1.0000
  C   C28       1.0  0.9197920198584059  0.30290155043130806  0.361919476298084  1.0000
  C   C29       1.0  0.8025450750917216  0.4215959976390805  0.36120331994976607  1.0000
  C   C30       1.0  0.9475881053275256  0.33003377593671257  0.38811502235888906  1.0000
  C   C31       1.0  0.0979178594826067  0.5978752257075469  0.5977147304797938  1.0000
  C   C32       1.0  0.1521760529073006  0.6519316068790886  0.6524048992509037  1.0000
  C   C33       1.0  0.1418824127169529  0.640655095803261  0.5820609327508208  1.0000
  C   C34       1.0  0.10929075154083281  0.608061543824924  0.6680479202423228  1.0000
  C   C35       1.0  0.16740312019648942  0.6685457911662309  0.6089983759752897  1.0000
  C   C36       1.0  0.08129327331769082  0.5826431175617371  0.6411050861845098  1.0000
  C   C37       1.0  0.30404756023051505  0.45320324570244  0.40056919867787844  1.0000
  C   C38       1.0  0.4451612235775429  0.29688635093466337  0.3499445208361109  1.0000
  C   C39       1.0  0.25744534657913937  0.4153803843296372  0.41411953261861356  1.0000
  C   C40       1.0  0.49161427530334123  0.33485882149302165  0.3362771526605215  1.0000
  C   C41       1.0  0.376478462502881  0.33961044418668235  0.37324185400887444  1.0000
  C   C42       1.0  0.37243645612386445  0.4107391671744408  0.3769991019729347  1.0000
  C   C43       1.0  0.7253621173346331  0.5767945953967272  0.6285974567735337  1.0000
  C   C44       1.0  0.5252519106065208  0.6735963165111585  0.6209272106574062  1.0000
  C   C45       1.0  0.7428708093246856  0.5853610271815197  0.5863098072185339  1.0000
  C   C46       1.0  0.5078478580291589  0.6647091219375979  0.6632249778580501  1.0000
  C   C47       1.0  0.6043663321240161  0.6414289869452787  0.6079412150194443  1.0000
  C   C48       1.0  0.6462392705457563  0.6083791099781453  0.641559596444246  1.0000
  C   C49       1.0  0.07710262660079789  0.22415281624456895  0.6287920919728407  1.0000
  C   C50       1.0  0.173074721168085  0.024677105187450376  0.6215206792381593  1.0000
  C   C51       1.0  0.08636303798370903  0.2417722700686014  0.5865040196461422  1.0000
  C   C52       1.0  0.16395012206952228  0.007083913107564401  0.6638133609739896  1.0000
  C   C53       1.0  0.14198155388971404  0.10361846719605688  0.6083952472306039  1.0000
  C   C54       1.0  0.10880968544753963  0.14522434130331158  0.6418970580254707  1.0000
  C   C55       1.0  0.844372578276989  0.8017102078984452  0.3972536153372489  1.0000
  C   C56       1.0  0.9042903252229096  0.9494341392487513  0.3528498314054289  1.0000
  C   C57       1.0  0.9123261579116504  0.7583923155241122  0.4138579845188275  1.0000
  C   C58       1.0  0.8364723273668629  0.9926107548571678  0.336083903755096  1.0000
  C   C59       1.0  0.908001639136842  0.879558325536884  0.3750220601139204  1.0000
  C   C60       1.0  0.8409757197687641  0.8712661087915022  0.3747674911745307  1.0000
  C   C61       1.0  0.6525611010213765  0.1519215114731907  0.1522626988928835  1.0000
  C   C62       1.0  0.5978321347571908  0.09787737499431155  0.09774171720876271  1.0000
  C   C63       1.0  0.6675615086167143  0.16846940230874452  0.1088497668733339  1.0000
  C   C64       1.0  0.5814825780600829  0.08267714710999023  0.14115127720733514  1.0000
  C   C65       1.0  0.6419494144225767  0.14050193430252017  0.0819897917671355  1.0000
  C   C66       1.0  0.6097559049555842  0.10799068827044772  0.16801060884509414  1.0000
  C   C67       1.0  0.6736843697845603  0.5247817740137178  0.12132784120628062  1.0000
  C   C68       1.0  0.5767100435047752  0.7241229193084134  0.12898637118350822  1.0000
  C   C69       1.0  0.6646540111563654  0.5068388967400993  0.16359541976431297  1.0000
  C   C70       1.0  0.5859831715452799  0.7420847166110608  0.08672456384991985  1.0000
  C   C71       1.0  0.6087127537509788  0.6451174656724986  0.1419414235497385  1.0000
  C   C72       1.0  0.6421466416270576  0.6037845458549287  0.10834468933175152  1.0000
  C   C73       1.0  0.08120359050141703  0.12411689796480367  0.1766663737355572  1.0000
  C   C74       1.0  0.16987766944547641  0.1243334572719661  0.0728076887569387  1.0000
  C   C75       1.0  0.0090382407964498  0.16324644433527163  0.1642484196045828  1.0000
  C   C76       1.0  0.24204090631456412  0.08556747486005625  0.08524729741786528  1.0000
  C   C77       1.0  0.11079793130685539  0.13899606115135296  0.10585338294513491  1.0000
  C   C78       1.0  0.14024305896640502  0.10991634024038176  0.1436045214588475  1.0000
  C   C79       1.0  0.34770018907867234  0.8480584739833714  0.8475974658048955  1.0000
  C   C80       1.0  0.4028603576709672  0.9017581601010177  0.9020657617381218  1.0000
  C   C81       1.0  0.30299362943117814  0.9209399030404624  0.8611392001426809  1.0000
  C   C82       1.0  0.44809109013239373  0.8294016763091036  0.8879944921447488  1.0000
  C   C83       1.0  0.329470517853899  0.9467747348747794  0.8886459584736601  1.0000
  C   C84       1.0  0.4202868384708793  0.8022672717501679  0.8618236346596859  1.0000
  C   C85       1.0  0.40522097862602646  0.4494801004725988  0.8526532795514754  1.0000
  C   C86       1.0  0.34502485473781525  0.3019478591131631  0.8970655480688592  1.0000
  C   C87       1.0  0.337507740108947  0.49266313845031107  0.8358067689933932  1.0000
  C   C88       1.0  0.4128952228859148  0.25862776408093413  0.913756571037709  1.0000
  C   C89       1.0  0.34175449609531233  0.371454896663721  0.8745750363084638  1.0000
  C   C90       1.0  0.40878296408605047  0.37969508609517544  0.8748870083775273  1.0000
  C   C91       1.0  0.9450667451991566  0.7967447678870699  0.8499833599401682  1.0000
  C   C92       1.0  0.8040165802817257  0.9530747895726106  0.9006269209064827  1.0000
  C   C93       1.0  0.9915595117886086  0.8346763630207334  0.8363459671720861  1.0000
  C   C94       1.0  0.7573931773799601  0.9152740560378945  0.9141842723144648  1.0000
  C   C95       1.0  0.8723732167115658  0.9106076038638026  0.87703900674083  1.0000
  C   C96       1.0  0.876382807419873  0.8394962359135576  0.8732732790675753  1.0000
  S   S1        1.0  0.29754652394415615  0.3258691868404497  0.3978832860470831  1.0000
  S   S2        1.0  0.4511041428036648  0.42472051304239494  0.3521562545440773  1.0000
  S   S3        1.0  0.6612615152682084  0.6330157324210147  0.5615270738579312  1.0000
  S   S4        1.0  0.5894206990397849  0.6162284349958751  0.6879752596543369  1.0000
  S   S5        1.0  0.13472463247030933  0.16053333224054717  0.5619253884239157  1.0000
  S   S6        1.0  0.11645825949805304  0.08833510333241176  0.6883872788923711  1.0000
  S   S7        1.0  0.9737752647529165  0.803129040955788  0.40201999461495325  1.0000
  S   S8        1.0  0.7754587547252995  0.9473877569381132  0.34749049390134706  1.0000
  S   S9        1.0  0.6165880715816456  0.5879004297673875  0.18833424871087345  1.0000
  S   S10       1.0  0.6347145747191263  0.66105843143324  0.06197788455166631  1.0000
  S   S11       1.0  0.012750758833291803  0.1832484141262327  0.11106861584490701  1.0000
  S   S12       1.0  0.23832403232407273  0.06628121170855646  0.13842403842034662  1.0000
  S   S13       1.0  0.27635290532234086  0.44759464523104947  0.8472349267819439  1.0000
  S   S14       1.0  0.4743910420060826  0.30331614787309746  0.9019983733693736  1.0000
  S   S15       1.0  0.9510739075817369  0.9245418332981429  0.8522153658847388  1.0000
  S   S16       1.0  0.7974431871667775  0.8257778162045499  0.8979383227169677  1.0000
  N   N1        1.0  0.7799668849292515  0.5188525599398802  0.39993936924895473  1.0000
  N   N2        1.0  0.9688761656191716  0.23148113472879567  0.350682936333456  1.0000
  N   N3        1.0  0.7307401543691229  0.4708630912780122  0.34996745889819897  1.0000
  N   N4        1.0  0.0192678006675635  0.280683056159198  0.39944563539309297  1.0000
  N   N5        1.0  0.16087352413998704  0.6599179805000758  0.5405466093425204  1.0000
  N   N6        1.0  0.08988070127225  0.5892350713599369  0.7095373914825984  1.0000
  N   N7        1.0  0.20914554664584983  0.7097687638355906  0.5900617697031196  1.0000
  N   N8        1.0  0.039805949309382506  0.5411512901776516  0.6600614448351082  1.0000
  N   N9        1.0  0.709151087993  0.20985538631950362  0.08982214186761438  1.0000
  N   N10       1.0  0.5400424631566807  0.04116305383416126  0.160184443161441  1.0000
  N   N11       1.0  0.6607990927941286  0.1597379722071751  0.04046320674332549  1.0000
  N   N12       1.0  0.5905992851244336  0.08903489045506055  0.20952132351949612  1.0000
  N   N13       1.0  0.23115540112367944  0.9701389773085651  0.8499700963308997  1.0000
  N   N14       1.0  0.519711834175567  0.7800074892571162  0.8994048183508668  1.0000
  N   N15       1.0  0.2804305005085724  0.018220314856677064  0.8998434757026814  1.0000
  N   N16       1.0  0.46929293577841963  0.7307313018829263  0.8506516482887392  1.0000
  O   O1        1.0  0.00031026728233030093  0.4998072459949156  0.49994925979689947  1.0000
  O   O2        1.0  0.0802197568557546  0.31604996389084045  0.5228493248190986  1.0000
  O   O3        1.0  0.03763681226666899  0.5249475416684034  0.5847525963401239  1.0000
  O   O4        1.0  0.1567674339755811  0.5045243434813144  0.4521735101449238  1.0000
  O   O5        1.0  0.0236852942750545  0.37446860207602123  0.5806054654537152  1.0000
  O   O6        1.0  0.15099706388707554  0.3944879862521161  0.4453431538542034  1.0000
  O   O7        1.0  0.07936365421311112  0.5910213686796412  0.5307705969313474  1.0000
  O   O8        1.0  0.004623981305130102  0.6558675798328935  0.4487618203713595  1.0000
  O   O9        1.0  0.8905026069716302  0.4975652190772521  0.4401148681009914  1.0000
  O   O10       1.0  0.8899193108860076  0.6535056301930594  0.4480825220167333  1.0000
  O   O11       1.0  0.9944462743520363  0.3856126953467154  0.44428778650352996  1.0000
  O   O12       1.0  0.8761693386307315  0.5300492716587183  0.5806773013057551  1.0000
  O   O13       1.0  0.8166991411660122  0.5721327729305089  0.5226464003672007  1.0000
  O   O14       1.0  0.7497180548807095  0.2502706117294408  0.2500531854130514  1.0000
  O   O15       1.0  0.5951019229223463  0.35847013596209376  0.3020504272380862  1.0000
  O   O16       1.0  0.6605630185232131  0.16937891126894292  0.2191569859329121  1.0000
  O   O17       1.0  0.721384193552524  0.3739068854816735  0.16938548946504284  1.0000
  O   O18       1.0  0.5954948064416997  0.24293775828468972  0.30135788959445614  1.0000
  O   O19       1.0  0.6761127081339283  0.43285849113929936  0.2273524626727479  1.0000
  O   O20       1.0  0.724621075751216  0.2134489732475372  0.1651281553843873  1.0000
  O   O21       1.0  0.8766506872554275  0.22572680660933025  0.1693920815483168  1.0000
  O   O22       1.0  0.8635349079680311  0.2581037372987892  0.30531375749459494  1.0000
  O   O23       1.0  0.9337056933649281  0.17084198853610383  0.22795892194038458  1.0000
  O   O24       1.0  0.750482987900199  0.36057666428978036  0.3103115837851078  1.0000
  O   O25       1.0  0.7473984827005965  0.09180172380085588  0.2977172417007169  1.0000
  O   O26       1.0  0.8554504203124085  0.10109082285792687  0.3056773792201  1.0000
  O   O27       1.0  0.2496696130582451  0.7502191548053432  0.7501720693165125  1.0000
  O   O28       1.0  0.3746896374694231  0.7274237714576515  0.6691029689606793  1.0000
  O   O29       1.0  0.36424788415639864  0.7578102231607035  0.8049006669847927  1.0000
  O   O30       1.0  0.1758788685363157  0.9330749521491556  0.727615866471993  1.0000
  O   O31       1.0  0.43409133104740505  0.6716742581728923  0.7268836623532593  1.0000
  O   O32       1.0  0.21902546554537142  0.8743160791041047  0.6696016367926704  1.0000
  O   O33       1.0  0.25097495458559393  0.8600024676355315  0.8102569778535271  1.0000
  O   O34       1.0  0.0951285805811466  0.8582552448147779  0.8022392183801301  1.0000
  O   O35       1.0  0.16006902774073242  0.6692544958275233  0.7193928376365691  1.0000
  O   O36       1.0  0.09551932026865022  0.742753838892817  0.8014510792606588  1.0000
  O   O37       1.0  0.22419107388542164  0.7132364105920458  0.6653697838201111  1.0000
  O   O38       1.0  0.35702611617623603  0.600626597297115  0.8046951718221607  1.0000
  O   O39       1.0  0.24812395977983934  0.591927152379  0.797721959913531  1.0000
  O   O40       1.0  0.5002723401621482  0.9997877580256398  0.9999734632217994  1.0000
  O   O41       1.0  0.5049242360308739  0.15607692088200764  0.9488612840714907  1.0000
  O   O42       1.0  0.39189087694140323  0.9977526874632403  0.9390135169478313  1.0000
  O   O43       1.0  0.6510028403974601  0.8943593612026676  0.945493045847769  1.0000
  O   O44       1.0  0.3904406284885482  0.15367014338493581  0.9476749953683525  1.0000
  O   O45       1.0  0.6566747238431533  0.004539844012455817  0.9521468226546334  1.0000
  O   O46       1.0  0.49466303229536385  0.8849908234910656  0.944375165829001  1.0000
  O   O47       1.0  0.5797964797599136  0.8164055611201276  0.023138664762889505  1.0000
  O   O48       1.0  0.5355067841906733  0.026572730146369686  0.08492764394043918  1.0000
  O   O49       1.0  0.5231100710366263  0.8749427507926766  0.08085098862970601  1.0000
  O   O50       1.0  0.5797434682248551  0.0903995176675494  0.030843104083196196  1.0000
  O   O51       1.0  0.31722944162201827  0.07128328677727323  0.021497245825337102  1.0000
  O   O52       1.0  0.37452334402982507  0.030144521275275286  0.0802425810346108  1.0000
  F   F1        1.0  0.2872745882185371  0.5231426502612067  0.40844958591714686  1.0000
  F   F2        1.0  0.46214142912515405  0.22682037692641893  0.3422317168173166  1.0000
  F   F3        1.0  0.777052795556088  0.5420609193879997  0.6552499334265889  1.0000
  F   F4        1.0  0.4735174981055935  0.708777096712595  0.5943378045509107  1.0000
  F   F5        1.0  0.04201711866910781  0.2755264843327224  0.6552962370507914  1.0000
  F   F6        1.0  0.20790728883788742  0.9732023116783136  0.5950282906188706  1.0000
  F   F7        1.0  0.7868090764413723  0.7811034527239754  0.40152938175405245  1.0000
  F   F8        1.0  0.9616457675391389  0.9703054158665266  0.3487760052794471  1.0000
  F   F9        1.0  0.7088039312179718  0.47350783092197435  0.09472230855032392  1.0000
  F   F10       1.0  0.5413552198164029  0.7753034591132246  0.15560558488166273  1.0000
  F   F11       1.0  0.09530159845873241  0.1014880419082331  0.21580798511502056  1.0000
  F   F12       1.0  0.15586328990609394  0.14675059040754954  0.033624268439126595  1.0000
  F   F13       1.0  0.46262808812499395  0.47028005449988086  0.848621950057833  1.0000
  F   F14       1.0  0.28746465691137507  0.2813899819615812  0.9012660370788765  1.0000
  F   F15       1.0  0.9620116418595474  0.72669726411695  0.8422673371139524  1.0000
  F   F16       1.0  0.7873015883123528  0.022986536810599114  0.908534652274767  1.0000
