data_image0
_chemical_formula_structural       Zn2H18C31Br6N2O18
_chemical_formula_sum              "Zn2 H18 C31 Br6 N2 O18"
_cell_length_a       9.95249840507051
_cell_length_b       10.917376132975424
_cell_length_c       10.959139172490929
_cell_angle_alpha    88.9946321468828
_cell_angle_beta     92.6333059138599
_cell_angle_gamma    83.69003884863183

_space_group_name_H-M_alt    "P 1"
_space_group_IT_number       1

loop_
  _space_group_symop_operation_xyz
  'x, y, z'

loop_
  _atom_site_type_symbol
  _atom_site_label
  _atom_site_symmetry_multiplicity
  _atom_site_fract_x
  _atom_site_fract_y
  _atom_site_fract_z
  _atom_site_occupancy
  Zn  Zn1       1.0  0.3527292421170358  0.506915467792666  0.4869953262908381  1.0000
  Zn  Zn2       1.0  0.6460442444136306  0.4792926385407696  0.5087597418804393  1.0000
  H   H1        1.0  0.2767252908483968  0.5547513385890142  0.8834315950969724  1.0000
  H   H2        1.0  0.5467833313303743  0.3123744588494474  0.8678752423800941  1.0000
  H   H3        1.0  0.626245194713441  0.3288891837008164  0.07081492074659218  1.0000
  H   H4        1.0  0.7018477075103818  0.08909868275056707  0.42932970652195457  1.0000
  H   H5        1.0  0.18211323945502042  0.15012873865153145  0.5481490463913231  1.0000
  H   H6        1.0  0.24668643889902603  0.8926475146927825  0.6672564951584262  1.0000
  H   H7        1.0  0.8620430604090928  0.39187473113114624  0.34517050430527246  1.0000
  H   H8        1.0  0.16756355725921424  0.5997078936913594  0.7437246459180783  1.0000
  H   H9        1.0  0.09223681220959891  0.7315888095346634  0.6559895107533149  1.0000
  H   H10       1.0  0.2910678847467167  0.49082543382695565  0.07373865267523168  1.0000
  H   H11       1.0  0.3749888754774346  0.3561305716892064  0.8996324474074127  1.0000
  H   H12       1.0  0.7043850621427837  0.4736372732399443  0.9063580426104492  1.0000
  H   H13       1.0  0.6520892002972686  0.6326732352209701  0.8876997354364132  1.0000
  H   H14       1.0  0.9440470538680543  0.5318000436940195  0.16254972495772785  1.0000
  H   H15       1.0  0.35755842672451627  0.0986743165032919  0.8858041715238867  1.0000
  H   H16       1.0  0.43201854329129225  0.8568580080912297  0.815523101202842  1.0000
  H   H17       1.0  0.26487899940383386  0.266971606008255  0.24747718975638822  1.0000
  H   H18       1.0  0.9433107498461766  0.3514306943573614  0.863934610239589  1.0000
  C   C1        1.0  0.48704665644907413  0.7270804535245007  0.48127032564507727  1.0000
  C   C2        1.0  0.5018350581371749  0.4948073687816076  0.11677925931006426  1.0000
  C   C3        1.0  0.520311811308794  0.3660161455173208  0.05463715870177309  1.0000
  C   C4        1.0  0.6250121477671228  0.5579991406170066  0.06969439226739378  1.0000
  C   C5        1.0  0.38915233325613496  0.94299758460766  0.5257896011889969  1.0000
  C   C6        1.0  0.4943757237345565  0.8629268261297937  0.4814504659624815  1.0000
  C   C7        1.0  0.6084879899844181  0.9211070162964812  0.44838066380257396  1.0000
  C   C8        1.0  0.6133938613990964  0.0481436823049819  0.4586386942431772  1.0000
  C   C9        1.0  0.5073855731473103  0.12533943198357633  0.5062251830355677  1.0000
  C   C10       1.0  0.3960523925945126  0.06844535729860719  0.5399635144147508  1.0000
  C   C11       1.0  0.2614844225803523  0.0912774502572375  0.60044125858861  1.0000
  C   C12       1.0  0.49171817811156165  0.510805921146023  0.7350560939932078  1.0000
  C   C13       1.0  0.2536116288978291  0.9476431128628208  0.5835860410695729  1.0000
  C   C14       1.0  0.9323287561678484  0.5446031764716038  0.5855781229818218  1.0000
  C   C15       1.0  0.9209063716148549  0.4377868574397964  0.41328185609821577  1.0000
  C   C16       1.0  0.059169226323803115  0.44410646500065787  0.3996086715181945  1.0000
  C   C17       1.0  0.0681416006741884  0.5575289044824102  0.5671846231682024  1.0000
  C   C18       1.0  0.0864779784819234  0.6338594781626483  0.6774076709798533  1.0000
  C   C19       1.0  0.9381142720110915  0.6064377280418896  0.7086283355800231  1.0000
  C   C20       1.0  0.5133817541961818  0.2605182845155126  0.5129598322406109  1.0000
  C   C21       1.0  0.5086164650342083  0.483092767026427  0.2581195240336314  1.0000
  C   C22       1.0  0.3674874551801892  0.5899966863793437  0.9237841964197312  1.0000
  C   C23       1.0  0.3628003860944204  0.5591049579097387  0.06361928408097837  1.0000
  C   C24       1.0  0.47924213357718054  0.3774330276800271  0.9184719990047935  1.0000
  C   C25       1.0  0.6261398885734195  0.5472221303781167  0.928958369049347  1.0000
  C   C26       1.0  0.4912035358121615  0.5115994917796981  0.875245826736865  1.0000
  C   C27       1.0  0.7658620012937333  0.4989035393658838  0.11990803431718426  1.0000
  C   C28       1.0  0.26620643120963905  0.1348981108187957  0.730583631258696  1.0000
  C   C29       1.0  0.3468959042854891  0.7251956417153804  0.8805057181221583  1.0000
  C   C30       1.0  0.1228257365132563  0.38724219429092704  0.2896277669303231  1.0000
  C   C31       1.0  0.9485865892025772  0.5196132935294101  0.8209343238253692  1.0000
  Br  Br1       1.0  0.7639607335313485  0.8345345890029279  0.3819771714766062  1.0000
  Br  Br2       1.0  0.09639781725834243  0.9157645345290246  0.4779762539959832  1.0000
  Br  Br3       1.0  0.8127201900895927  0.7516830461579502  0.734182166839872  1.0000
  Br  Br4       1.0  0.2726426594995317  0.6946044403336061  0.15687651590206997  1.0000
  Br  Br5       1.0  0.432012317619261  0.225695210088098  0.12472671672183816  1.0000
  Br  Br6       1.0  0.6026977138834227  0.7340904656346648  0.11270173685486637  1.0000
  N   N1        1.0  0.8545865396655615  0.4859074055145525  0.5099045342457416  1.0000
  N   N2        1.0  0.13816268678256446  0.5039578556958659  0.47848644120551825  1.0000
  O   O1        1.0  0.37148567387945525  0.6897461313252575  0.4614705627620379  1.0000
  O   O2        1.0  0.5979928396846291  0.6611157997508101  0.5061742658956376  1.0000
  O   O3        1.0  0.3798256220022793  0.5398961868876454  0.6755373504446991  1.0000
  O   O4        1.0  0.6048790747298652  0.4753977067774143  0.6910990174769436  1.0000
  O   O5        1.0  0.40375923974383465  0.32520589564570196  0.5367689974538478  1.0000
  O   O6        1.0  0.6261991145089141  0.29989876880805616  0.4923464846469086  1.0000
  O   O7        1.0  0.39962061747497307  0.46505696500113897  0.3081732176163924  1.0000
  O   O8        1.0  0.6218149438776948  0.4917004623733162  0.3126629832248112  1.0000
  O   O9        1.0  0.8006730488526583  0.3873696595221218  0.11258139907933898  1.0000
  O   O10       1.0  0.8511276098455838  0.5780941760689657  0.15596082886561646  1.0000
  O   O11       1.0  0.19424763185776325  0.22167323132083533  0.7695373042989502  1.0000
  O   O12       1.0  0.36252797408665327  0.0652124573837938  0.8031892979769849  1.0000
  O   O13       1.0  0.23642299642178702  0.7864261831543188  0.8750677992127506  1.0000
  O   O14       1.0  0.45886296197484466  0.7698280457264134  0.8390820496533561  1.0000
  O   O15       1.0  0.09499585304249082  0.4313728080020949  0.18665686621612554  1.0000
  O   O16       1.0  0.2077924062534677  0.2880329916773264  0.3185493155484948  1.0000
  O   O17       1.0  0.9845023993876794  0.5502515185648347  0.9221274757523329  1.0000
  O   O18       1.0  0.9225068829071006  0.4049292158288722  0.7909301758205768  1.0000
