data_image0
_chemical_formula_structural       Hg2H28C36N8Cl4O8
_chemical_formula_sum              "Hg2 H28 C36 N8 Cl4 O8"
_cell_length_a       8.108820231675004
_cell_length_b       10.529946340011945
_cell_length_c       12.040368587683755
_cell_angle_alpha    90.00017004788376
_cell_angle_beta     103.01190298360468
_cell_angle_gamma    89.99993284689009

_space_group_name_H-M_alt    "P 1"
_space_group_IT_number       1

loop_
  _space_group_symop_operation_xyz
  'x, y, z'

loop_
  _atom_site_type_symbol
  _atom_site_label
  _atom_site_symmetry_multiplicity
  _atom_site_fract_x
  _atom_site_fract_y
  _atom_site_fract_z
  _atom_site_occupancy
  Hg  Hg1       1.0  0.750001588121549  0.6417335535533085  0.7500000756550809  1.0000
  Hg  Hg2       1.0  0.24999668016167934  0.3582680455021504  0.24999769171797237  1.0000
  H   H1        1.0  0.22168022919935032  0.3870185886991351  0.8955580018682813  1.0000
  H   H2        1.0  0.27831874385928057  0.3870171193457922  0.6044393197066216  1.0000
  H   H3        1.0  0.7783167738181761  0.61298585937535  0.10444040449224457  1.0000
  H   H4        1.0  0.7216807915277528  0.6129854293861214  0.3955611311198128  1.0000
  H   H5        1.0  0.39288313880898323  0.20369959887148786  0.9894708979639479  1.0000
  H   H6        1.0  0.10711723079648293  0.20369701384384348  0.5105286512619787  1.0000
  H   H7        1.0  0.6071125994043881  0.7963029498611436  0.010528977987185321  1.0000
  H   H8        1.0  0.8928835712355011  0.7963036355457407  0.48947365240526625  1.0000
  H   H9        1.0  0.6990235800583733  0.18826346656034335  0.9780153053022292  1.0000
  H   H10       1.0  0.8009748539437566  0.18826264658137862  0.5219837826187546  1.0000
  H   H11       1.0  0.3009708933508364  0.8117371828304416  0.021986040239504224  1.0000
  H   H12       1.0  0.19902594762803014  0.811738952479246  0.47801769044063774  1.0000
  H   H13       1.0  0.8188803331085878  0.35968006692300497  0.8755329352242074  1.0000
  H   H14       1.0  0.6811192460394934  0.3596806517766852  0.6244676011386476  1.0000
  H   H15       1.0  0.1811204703036537  0.6403186831258908  0.12447186026778213  1.0000
  H   H16       1.0  0.31888029072813845  0.6403190479420929  0.37553534151135193  1.0000
  H   H17       1.0  0.43183840944168134  0.1263746388461655  0.5702468884072618  1.0000
  H   H18       1.0  0.06816581423538541  0.12637446215762793  0.929757196483273  1.0000
  H   H19       1.0  0.5681674536477388  0.8736298092266354  0.42975285932898555  1.0000
  H   H20       1.0  0.931831191082459  0.8736271369065355  0.07024536291888242  1.0000
  H   H21       1.0  0.6183375123807906  0.06443898058873292  0.6663943250796226  1.0000
  H   H22       1.0  0.8816648085266223  0.06444009659104923  0.8336091828901151  1.0000
  H   H23       1.0  0.38166202300791946  0.9355588197809014  0.3336061257409072  1.0000
  H   H24       1.0  0.11833346113753151  0.9355577037788267  0.16639107630531674  1.0000
  H   H25       1.0  0.47759195591825687  0.16827821875683216  0.7191753035614855  1.0000
  H   H26       1.0  0.0224109729049786  0.16828042614434935  0.7808295245039647  1.0000
  H   H27       1.0  0.5224088451953435  0.8317186319401061  0.2808253388829699  1.0000
  H   H28       1.0  0.9775898282079468  0.8317183238974977  0.2191711179428496  1.0000
  C   C1        1.0  0.33921645511550486  0.7989995244602003  0.7669122917466499  1.0000
  C   C2        1.0  0.16078475848992474  0.7990004963995079  0.7330864374206744  1.0000
  C   C3        1.0  0.6607830775133651  0.20100017524588057  0.23308317542203852  1.0000
  C   C4        1.0  0.8392173088074275  0.20099825364351193  0.2669152272602774  1.0000
  C   C5        1.0  0.33580183914108364  0.5800934003440262  0.7805291698730772  1.0000
  C   C6        1.0  0.1641982614708795  0.5800943229776652  0.7194655009501861  1.0000
  C   C7        1.0  0.6642002244770283  0.4199062993601644  0.219465849936782  1.0000
  C   C8        1.0  0.8358012743770189  0.41990537673828515  0.280535780481742  1.0000
  C   C9        1.0  0.4295506346751097  0.46596940734906434  0.8319021024619675  1.0000
  C   C10       1.0  0.0704482826352049  0.46597023926462816  0.668095415417149  1.0000
  C   C11       1.0  0.5704488993340107  0.5340283930163425  0.16809585653146547  1.0000
  C   C12       1.0  0.9295525184770597  0.5340304101221279  0.3319052270320243  1.0000
  C   C13       1.0  0.35249831474574467  0.3753081074387908  0.8886282028104308  1.0000
  C   C14       1.0  0.14750066658064753  0.37530962751885266  0.6113690896515326  1.0000
  C   C15       1.0  0.6475012201827681  0.624690642601884  0.11137141740224624  1.0000
  C   C16       1.0  0.8524988688073878  0.6246900721956906  0.38863136117136343  1.0000
  C   C17       1.0  0.44853508418374594  0.27343109249626013  0.9418175951747902  1.0000
  C   C18       1.0  0.05146523618394381  0.27342871904134836  0.5581821274300582  1.0000
  C   C19       1.0  0.5514657183077674  0.7265705065671854  0.05818553910267355  1.0000
  C   C20       1.0  0.9485330330193379  0.7265719303444771  0.4418173011598798  1.0000
  C   C21       1.0  0.6184744670924331  0.2653863326041234  0.9367517462322259  1.0000
  C   C22       1.0  0.8815251786373183  0.26538558080783764  0.5632485556793656  1.0000
  C   C23       1.0  0.3815238025707188  0.7346143167831161  0.06324851296675153  1.0000
  C   C24       1.0  0.118474358589495  0.7346160182572635  0.4367552175820253  1.0000
  C   C25       1.0  0.6857811078944848  0.36032875902441225  0.8792752596061109  1.0000
  C   C26       1.0  0.8142172036914558  0.3603292122458939  0.6207225949172754  1.0000
  C   C27       1.0  0.31421842795341354  0.6396709406915378  0.12072602182582416  1.0000
  C   C28       1.0  0.18578233261597174  0.6396714371439246  0.3792795171248714  1.0000
  C   C29       1.0  0.4480460671404672  0.9144331137029627  0.7676110063404881  1.0000
  C   C30       1.0  0.05195506587651981  0.9144341805065114  0.7323896710562469  1.0000
  C   C31       1.0  0.5519521965458126  0.08556373697611973  0.232378454936324  1.0000
  C   C32       1.0  0.9480495351699219  0.08556267019816491  0.26761652991772433  1.0000
  C   C33       1.0  0.48602074009168916  0.09380004703004372  0.6569822962445289  1.0000
  C   C34       1.0  0.013983506586519898  0.0937996241617824  0.8430217076530372  1.0000
  C   C35       1.0  0.5139787948368238  0.9061987030106311  0.34301732396814816  1.0000
  C   C36       1.0  0.9860160297215829  0.9061991258831199  0.1569804043867436  1.0000
  N   N1        1.0  0.42014486719394034  0.6899818881892372  0.7960276264549723  1.0000
  N   N2        1.0  0.07985642201005311  0.6899818838694359  0.703968339825288  1.0000
  N   N3        1.0  0.579857195044589  0.31001781151071844  0.2039649015277832  1.0000
  N   N4        1.0  0.9201418485734932  0.31001686617571533  0.2960335805893949  1.0000
  N   N5        1.0  0.5940052653862297  0.4581687170726739  0.8276279300737956  1.0000
  N   N6        1.0  0.9059929761937512  0.45817211272727587  0.6723685065020182  1.0000
  N   N7        1.0  0.4059955352668396  0.5418300329677664  0.17237188176398635  1.0000
  N   N8        1.0  0.0940078253783696  0.5418285366608872  0.3276329665561948  1.0000
  Cl  Cl1       1.0  0.9325706904529127  0.6835288668996357  0.9326197698620863  1.0000
  Cl  Cl2       1.0  0.5674400492435581  0.6835360071394094  0.5673791432992985  1.0000
  Cl  Cl3       1.0  0.06743643606208138  0.3164746314934136  0.06737601645290432  1.0000
  Cl  Cl4       1.0  0.4325632823964157  0.3164693906063293  0.432620221187918  1.0000
  O   O1        1.0  0.5774761202050341  0.936787517155054  0.8390600708936805  1.0000
  O   O2        1.0  0.9225192565717678  0.9367851611954595  0.6609454785410522  1.0000
  O   O3        1.0  0.4225234110452476  0.06320933352942863  0.16093290444436556  1.0000
  O   O4        1.0  0.07748281302522741  0.06321263918215442  0.3390603391838952  1.0000
  O   O5        1.0  0.3844859222125692  0.9854969743483085  0.674798223756959  1.0000
  O   O6        1.0  0.11551895825936502  0.9854982995950723  0.8252040358158584  1.0000
  O   O7        1.0  0.6155136108754886  0.014504624704095201  0.3251980740231276  1.0000
  O   O8        1.0  0.8844818442328164  0.014501400123457103  0.17479909845924632  1.0000
