data_image0
_chemical_formula_structural       Li4H84C36N16O4
_chemical_formula_sum              "Li4 H84 C36 N16 O4"
_cell_length_a       8.200148234289962
_cell_length_b       11.236742833594779
_cell_length_c       13.962453370224646
_cell_angle_alpha    90.00042640490605
_cell_angle_beta     90.00036197860847
_cell_angle_gamma    104.92858326976824

_space_group_name_H-M_alt    "P 1"
_space_group_IT_number       1

loop_
  _space_group_symop_operation_xyz
  'x, y, z'

loop_
  _atom_site_type_symbol
  _atom_site_label
  _atom_site_symmetry_multiplicity
  _atom_site_fract_x
  _atom_site_fract_y
  _atom_site_fract_z
  _atom_site_occupancy
  Li  Li1       1.0  0.9650403980920573  0.07224100594702071  0.0743943648049665  1.0000
  Li  Li2       1.0  0.03496685854823063  0.4277615452441594  0.5744018319119633  1.0000
  Li  Li3       1.0  0.034972839138348075  0.9277625620549445  0.9255944759448624  1.0000
  Li  Li4       1.0  0.9650313485568065  0.5722373786564249  0.42559918430692517  1.0000
  H   H1        1.0  0.5673502174644796  0.5985202659855418  0.4065510181552553  1.0000
  H   H2        1.0  0.4326903348608654  0.901518195111123  0.9065891579864526  1.0000
  H   H3        1.0  0.4326641639676296  0.40149710663960286  0.5934414036705887  1.0000
  H   H4        1.0  0.5673046069428692  0.0984678380336277  0.0934011150901526  1.0000
  H   H5        1.0  0.3418944986928807  0.3785446061271782  0.6082609127594693  1.0000
  H   H6        1.0  0.6580738550834155  0.12141867555773443  0.10822252862084977  1.0000
  H   H7        1.0  0.6581211644678788  0.6214764505894124  0.391735090112327  1.0000
  H   H8        1.0  0.3419227653919351  0.8785581616131851  0.8917655958117618  1.0000
  H   H9        1.0  0.6420158250246432  0.7197009430541854  0.5252219240658389  1.0000
  H   H10       1.0  0.3579697302672714  0.7802895236833225  0.025228506855064795  1.0000
  H   H11       1.0  0.3579735774565904  0.2803007154583881  0.47477694352549077  1.0000
  H   H12       1.0  0.6420408061302253  0.2197167967886102  0.9747732256152091  1.0000
  H   H13       1.0  0.623554954407311  0.8393065387264259  0.603913290065975  1.0000
  H   H14       1.0  0.3764434161836689  0.6606867526791759  0.10391635940754179  1.0000
  H   H15       1.0  0.37643232702837554  0.16069603369675184  0.3960855775241824  1.0000
  H   H16       1.0  0.6235547908889317  0.33931217119544504  0.8960803595722806  1.0000
  H   H17       1.0  0.28826330764960784  0.8054796700232318  0.4232702487425185  1.0000
  H   H18       1.0  0.7117199548141714  0.694530302639059  0.9232594747072651  1.0000
  H   H19       1.0  0.7117176107413384  0.19452564420531357  0.576740794354805  1.0000
  H   H20       1.0  0.2882864770408133  0.3054677251396711  0.0767451225566447  1.0000
  H   H21       1.0  0.49467804152970984  0.7845145249293353  0.40181158681237855  1.0000
  H   H22       1.0  0.5053040577291839  0.7154997865184854  0.9018087722175565  1.0000
  H   H23       1.0  0.5053001758986042  0.2154935416653458  0.5981951590491477  1.0000
  H   H24       1.0  0.49470911862155736  0.28450010103630774  0.0981915278252927  1.0000
  H   H25       1.0  0.4715935178677029  0.9126155444873874  0.47040374174727617  1.0000
  H   H26       1.0  0.5283891743323181  0.5873913134884887  0.9703866366875997  1.0000
  H   H27       1.0  0.5283852794831034  0.08739068365609629  0.5296080175553824  1.0000
  H   H28       1.0  0.4716184782203001  0.4126067178133752  0.029612947133003296  1.0000
  H   H29       1.0  0.1647203528997779  0.7732381915446497  0.5756851157068965  1.0000
  H   H30       1.0  0.8352757908332223  0.7267565936590898  0.0756709342422752  1.0000
  H   H31       1.0  0.835265387499355  0.2267634564071628  0.42433022462738984  1.0000
  H   H32       1.0  0.16472851996000062  0.2732423480172629  0.9243315144009328  1.0000
  H   H33       1.0  0.34274461723494204  0.8730200923050333  0.6339727770899086  1.0000
  H   H34       1.0  0.6572523453761933  0.6269717165460237  0.1339566254617282  1.0000
  H   H35       1.0  0.6572484475500173  0.12698157694568823  0.3660389822253833  1.0000
  H   H36       1.0  0.3427553071818395  0.37302631476016773  0.8660436745653823  1.0000
  H   H37       1.0  0.26529151078668894  0.7161890816071975  0.6719683522765008  1.0000
  H   H38       1.0  0.7347074446964612  0.783796749884658  0.17196488510844424  1.0000
  H   H39       1.0  0.7347033546021893  0.2838107527024789  0.32804125841708026  1.0000
  H   H40       1.0  0.2652968051252032  0.2161985112709743  0.8280368473171149  1.0000
  H   H41       1.0  0.4406663938806261  0.5759955208821239  0.6554131419146855  1.0000
  H   H42       1.0  0.5593376370331741  0.9239984068966295  0.15541416578286518  1.0000
  H   H43       1.0  0.559321589490949  0.4240125741875431  0.3446014822365342  1.0000
  H   H44       1.0  0.4406736168299972  0.0759959546053537  0.8445947287180002  1.0000
  H   H45       1.0  0.5355061514882208  0.6980986406189729  0.7339450101117251  1.0000
  H   H46       1.0  0.4644973252383125  0.8019017513660317  0.2339485338798112  1.0000
  H   H47       1.0  0.4645081690858461  0.3019150515763017  0.2660617358331834  1.0000
  H   H48       1.0  0.5354979980542822  0.1980888833904402  0.7660546309284583  1.0000
  H   H49       1.0  0.9628518633841665  0.6667382467699952  0.696291146309072  1.0000
  H   H50       1.0  0.03715188419438677  0.833257092254797  0.19628110762437248  1.0000
  H   H51       1.0  0.03714378033382815  0.3332533090039291  0.3037120185025514  1.0000
  H   H52       1.0  0.9628545475200525  0.1667409354114398  0.8037048682702802  1.0000
  H   H53       1.0  0.8412421224448821  0.7531982991748976  0.7577474294854056  1.0000
  H   H54       1.0  0.1587583717467282  0.746803290681882  0.2577437667497761  1.0000
  H   H55       1.0  0.1587603267782711  0.2467987969261003  0.24225716776837194  1.0000
  H   H56       1.0  0.8412348913799762  0.2531919384323729  0.742247938764308  1.0000
  H   H57       1.0  0.8756660118608866  0.7718374506560651  0.6314803410343469  1.0000
  H   H58       1.0  0.12434812544264422  0.7281617389341619  0.13147572356519527  1.0000
  H   H59       1.0  0.12433277514502808  0.22815963477601287  0.3685228237996369  1.0000
  H   H60       1.0  0.8756642114939055  0.27184274654482016  0.86851526580525  1.0000
  H   H61       1.0  0.7890041518362808  0.47206610033784824  0.747105094624132  1.0000
  H   H62       1.0  0.211002629500328  0.0279366881802545  0.24710317776425228  1.0000
  H   H63       1.0  0.21098088667562115  0.5279300250064196  0.25290093500767336  1.0000
  H   H64       1.0  0.7890066251577041  0.9720659481915775  0.7528935412470545  1.0000
  H   H65       1.0  0.5660650277696747  0.436189761515898  0.729833972569615  1.0000
  H   H66       1.0  0.4339405925442463  0.0638137358107116  0.22983165983857384  1.0000
  H   H67       1.0  0.4339180116073607  0.5638146387544581  0.27016919225726344  1.0000
  H   H68       1.0  0.5660697000318891  0.9361778626302525  0.7701758022392224  1.0000
  H   H69       1.0  0.6638047238103866  0.5479485816789874  0.8170784673130241  1.0000
  H   H70       1.0  0.3362062334005885  0.9520601934168981  0.3170774045822142  1.0000
  H   H71       1.0  0.3361837783932131  0.4520539943235704  0.1829246975184518  1.0000
  H   H72       1.0  0.6637848477738826  0.04793226913915299  0.6829221791911662  1.0000
  H   H73       1.0  0.7307585872681912  0.902882310790133  0.997445520535983  1.0000
  H   H74       1.0  0.2692427023715211  0.597117566259989  0.497447097682162  1.0000
  H   H75       1.0  0.2692512472799109  0.09711848710453806  0.002551914677397299  1.0000
  H   H76       1.0  0.730749401083159  0.40288133989510305  0.5025574995579801  1.0000
  H   H77       1.0  0.7670547282445384  0.022677147470425  0.9263229276336984  1.0000
  H   H78       1.0  0.2329487922986075  0.4773176679208219  0.4263266492274268  1.0000
  H   H79       1.0  0.23295754775829647  0.97732365751812  0.0736723589646644  1.0000
  H   H80       1.0  0.7670478736563523  0.5226803314175329  0.5736757993988773  1.0000
  H   H81       1.0  0.8560956424658458  0.5081377976037517  0.058762830532046485  1.0000
  H   H82       1.0  0.14388681781586157  0.9918567441398027  0.5587596238559553  1.0000
  H   H83       1.0  0.14388843472118398  0.49185556464921376  0.9412367532311234  1.0000
  H   H84       1.0  0.8561105497344315  0.0081467775724775  0.441213460321272  1.0000
  C   C1        1.0  0.562788227346978  0.74342966618309  0.5816037742658222  1.0000
  C   C2        1.0  0.4372067851188177  0.7565651870711531  0.081606209629463  1.0000
  C   C3        1.0  0.43719873370654466  0.2565719852572527  0.4184008229730693  1.0000
  C   C4        1.0  0.5627987464098823  0.24343375815861631  0.9183962390160046  1.0000
  C   C5        1.0  0.4137756320716974  0.8142851459780686  0.4542471541576845  1.0000
  C   C6        1.0  0.5862074571482482  0.6857233588881045  0.9542372972335895  1.0000
  C   C7        1.0  0.5862065070601333  0.185720171808228  0.5457646051484062  1.0000
  C   C8        1.0  0.413797753960452  0.3142746653285471  0.0457658676150388  1.0000
  C   C9        1.0  0.28668961860766734  0.7774154664303197  0.6095941501796103  1.0000
  C   C10       1.0  0.7133045345779792  0.7225760408296935  0.1095837914326907  1.0000
  C   C11       1.0  0.7133043465089841  0.22258528537367536  0.3904204739606313  1.0000
  C   C12       1.0  0.2866951527217907  0.2774201271253672  0.8904172247806699  1.0000
  C   C13       1.0  0.5521437831282584  0.6535897126312876  0.66500143634628  1.0000
  C   C14       1.0  0.4478613538024023  0.846407094039762  0.16500301687529625  1.0000
  C   C15       1.0  0.44785460691847595  0.34642025285308625  0.3350053095581059  1.0000
  C   C16       1.0  0.5521437963347396  0.15358724965616233  0.8349994317556904  1.0000
  C   C17       1.0  0.8531740872990384  0.7047855638158963  0.6902233566563679  1.0000
  C   C18       1.0  0.1468318117241552  0.7952161490745197  0.1902213724652881  1.0000
  C   C19       1.0  0.14682411982221313  0.2952133600976694  0.30977980818204987  1.0000
  C   C20       1.0  0.8531749404643421  0.2047827996481146  0.8097710492912994  1.0000
  C   C21       1.0  0.6789285503779183  0.51043155563697  0.7455028527817829  1.0000
  C   C22       1.0  0.3210756806777513  0.9895671374792843  0.24550339149218556  1.0000
  C   C23       1.0  0.3210608521465589  0.48957010291021424  0.2545017444616278  1.0000
  C   C24       1.0  0.6789282487131061  0.0104272026545686  0.7544976247235125  1.0000
  C   C25       1.0  0.8892265248580955  0.48733726215456147  0.20976208018828396  1.0000
  C   C26       1.0  0.11077320771245519  0.012660455920176604  0.7097601773028896  1.0000
  C   C27       1.0  0.11077578678945345  0.5126699544392253  0.7902360712369684  1.0000
  C   C28       1.0  0.889252694733166  0.9873339480282154  0.2902164879321488  1.0000
  C   C29       1.0  0.9293787967455173  0.3431537753108885  0.09066374163561619  1.0000
  C   C30       1.0  0.07060628982675612  0.1568406263714763  0.5906632709094665  1.0000
  C   C31       1.0  0.07062865728156721  0.656850695980353  0.9093315449648499  1.0000
  C   C32       1.0  0.9293910168817233  0.8431592149239149  0.40932628600635457  1.0000
  C   C33       1.0  0.8885220623678193  0.4512075143219079  0.11501930866751307  1.0000
  C   C34       1.0  0.1114628729810079  0.04879270063486981  0.6150247869154837  1.0000
  C   C35       1.0  0.11147870808100177  0.5487987776707255  0.8849738293065599  1.0000
  C   C36       1.0  0.8885516459077748  0.9512145514023087  0.384958324195665  1.0000
  N   N1        1.0  0.39597279350254416  0.7374113661310844  0.5401358081373004  1.0000
  N   N2        1.0  0.6040207536225496  0.7625875841010411  0.040133880870087096  1.0000
  N   N3        1.0  0.6040132672517303  0.2625912027819339  0.45987022151570034  1.0000
  N   N4        1.0  0.395984777895336  0.2374113611200812  0.9598671353623587  1.0000
  N   N5        1.0  0.7021168380882943  0.604754842713298  0.6704619248060195  1.0000
  N   N6        1.0  0.29789242484888945  0.895246642105704  0.17046109668303436  1.0000
  N   N7        1.0  0.2978759062226075  0.3952459054810332  0.3295433886473304  1.0000
  N   N8        1.0  0.70211831002009  0.1047532383335863  0.8295377709422735  1.0000
  N   N9        1.0  0.8926038939407661  0.5166522817342809  0.2911303958480929  1.0000
  N   N10       1.0  0.10740680910658543  0.983346059349074  0.7911291522964844  1.0000
  N   N11       1.0  0.10740626107057952  0.48334943720812606  0.7088720528142075  1.0000
  N   N12       1.0  0.8926160110443035  0.0166464954791863  0.20885109395987908  1.0000
  N   N13       1.0  0.9638136353183527  0.25080008939171  0.06945593742045729  1.0000
  N   N14       1.0  0.03617139056586183  0.24919129656896644  0.5694537445571938  1.0000
  N   N15       1.0  0.03618997365790474  0.7491933297333444  0.9305465112049163  1.0000
  N   N16       1.0  0.9638161503020584  0.7508085163336415  0.4305415419926248  1.0000
  O   O1        1.0  0.1771588930235737  0.025703182011668  0.028718135871727692  1.0000
  O   O2        1.0  0.8228454920922985  0.474296050737628  0.5287223394392909  1.0000
  O   O3        1.0  0.8228526811460812  0.9742921004125902  0.9712750020892713  1.0000
  O   O4        1.0  0.17715117385725426  0.5257019485963994  0.4712793929804987  1.0000
