data_image0
_chemical_formula_structural       Na2H44PtC44S4N4O10
_chemical_formula_sum              "Na2 H44 Pt1 C44 S4 N4 O10"
_cell_length_a       8.189307015445733
_cell_length_b       12.77213488724716
_cell_length_c       12.830232282938727
_cell_angle_alpha    115.23212874424625
_cell_angle_beta     106.34526421092288
_cell_angle_gamma    92.35040366533144

_space_group_name_H-M_alt    "P 1"
_space_group_IT_number       1

loop_
  _space_group_symop_operation_xyz
  'x, y, z'

loop_
  _atom_site_type_symbol
  _atom_site_label
  _atom_site_symmetry_multiplicity
  _atom_site_fract_x
  _atom_site_fract_y
  _atom_site_fract_z
  _atom_site_occupancy
  Na  Na1       1.0  0.250955128266817  0.1744918969402462  0.8796803807044643  1.0000
  Na  Na2       1.0  0.7490479032251186  0.8255072218800948  0.12031759352073841  1.0000
  H   H1        1.0  0.2106484485340303  0.600526644161917  0.09413649709426149  1.0000
  H   H2        1.0  0.7893462398215334  0.3994697914120095  0.9058619518926322  1.0000
  H   H3        1.0  0.19752200756170882  0.7525681171548372  0.29236008292707544  1.0000
  H   H4        1.0  0.8024744207352439  0.24743008770972352  0.7076386544608795  1.0000
  H   H5        1.0  0.2950469391793433  0.84293527759133  0.5177726501524661  1.0000
  H   H6        1.0  0.7049542428891371  0.1570664708913085  0.48222689474885544  1.0000
  H   H7        1.0  0.5094700401037713  0.7598712196328635  0.6288478003904105  1.0000
  H   H8        1.0  0.4905349639209434  0.24013054661814692  0.3711516584190735  1.0000
  H   H9        1.0  0.6194929297495406  0.5844704014875362  0.5136226882165431  1.0000
  H   H10       1.0  0.3805123071565149  0.4155322455614223  0.4863771885506267  1.0000
  H   H11       1.0  0.6227317021612606  0.4283384566911792  0.31897152679808033  1.0000
  H   H12       1.0  0.3772692470258789  0.5716624109935182  0.6810276001455622  1.0000
  H   H13       1.0  0.5290759861918276  0.2120072621480844  0.15566333707404575  1.0000
  H   H14       1.0  0.47092657837766444  0.7879900844446867  0.8443369141379339  1.0000
  H   H15       1.0  0.7346653352525863  0.2995346086888944  0.19536142913683827  1.0000
  H   H16       1.0  0.2653366534922768  0.7004653699450714  0.8046414016880308  1.0000
  H   H17       1.0  0.7418229139825525  0.18616856992529307  0.9856462507649868  1.0000
  H   H18       1.0  0.2581767616057676  0.8138322953805004  0.014351867241885122  1.0000
  H   H19       1.0  0.7298915280116632  0.0934901722004753  0.05685346416033356  1.0000
  H   H20       1.0  0.27011579061930036  0.9065107206682936  0.9431468163394713  1.0000
  H   H21       1.0  0.43089134828731795  0.9215427306363465  0.7678476026152979  1.0000
  H   H22       1.0  0.5691112148324677  0.078454602666838  0.23215653972435757  1.0000
  H   H23       1.0  0.6593197337599008  0.9768325697978284  0.8322778451336108  1.0000
  H   H24       1.0  0.3406841035385852  0.023164771200086396  0.16772574969174772  1.0000
  H   H25       1.0  0.6006757755499309  0.1430802995281226  0.771944351246525  1.0000
  H   H26       1.0  0.3993301443432954  0.8569152952633629  0.2280573126348672  1.0000
  H   H27       1.0  0.541285040193614  0.9990351347305264  0.6452824548964885  1.0000
  H   H28       1.0  0.45871427679457344  0.0009595487630917996  0.35471919392211504  1.0000
  H   H29       1.0  0.2778080279174091  0.05523364545862109  0.5205404557708563  1.0000
  H   H30       1.0  0.7221999881978007  0.9447698791723269  0.4794641915041425  1.0000
  H   H31       1.0  0.37905341466826303  0.19907524844904148  0.6403488825962216  1.0000
  H   H32       1.0  0.6209507786208944  0.8009282504397887  0.35965818544721634  1.0000
  H   H33       1.0  0.05300116611132919  0.17586752906199618  0.539907251529776  1.0000
  H   H34       1.0  0.9470018642208442  0.8241315791266711  0.4600938355975686  1.0000
  H   H35       1.0  0.020043188522855394  0.07125680833638628  0.5947133045608056  1.0000
  H   H36       1.0  0.9799600746906523  0.9287431806502296  0.4052882005242255  1.0000
  H   H37       1.0  0.07376178063314852  0.3801241730697242  0.6881878820563331  1.0000
  H   H38       1.0  0.9262384696200314  0.6198740495632008  0.31181076923979134  1.0000
  H   H39       1.0  0.29253794813604367  0.3620930906491464  0.736218090315468  1.0000
  H   H40       1.0  0.7074635751360816  0.6379051290468425  0.26378312636849444  1.0000
  H   H41       1.0  0.23041058335617487  0.529204529564538  0.9009696106972814  1.0000
  H   H42       1.0  0.769587351130994  0.47079455581895496  0.0990313318106716  1.0000
  H   H43       1.0  0.06243862105714736  0.43270199652037195  0.8983999662900929  1.0000
  H   H44       1.0  0.9375565336409721  0.5672962059652915  0.10159776216109855  1.0000
  Pt  Pt1       1.0  0.9999998833115242  0.5000007614741904  0.5000011285448525  1.0000
  C   C1        1.0  0.35731495453647716  0.46251289698379583  0.07925978796482983  1.0000
  C   C2        1.0  0.6426795003578718  0.537482652476342  0.9207397995154524  1.0000
  C   C3        1.0  0.29893829207205863  0.562087054250746  0.1426556801319664  1.0000
  C   C4        1.0  0.7010559299409422  0.43790761441144344  0.8573434893906295  1.0000
  C   C5        1.0  0.3531221137274443  0.6160619843296473  0.27242701329394253  1.0000
  C   C6        1.0  0.6468715333307531  0.3839353243474973  0.7275724011649346  1.0000
  C   C7        1.0  0.2916318882881725  0.7166047039196002  0.3406381120147942  1.0000
  C   C8        1.0  0.7083658141874807  0.2833935086396977  0.6593600778588568  1.0000
  C   C9        1.0  0.34616628212946676  0.7671115538274053  0.4667004906625183  1.0000
  C   C10       1.0  0.653834433886395  0.23288843040141666  0.5332989965489718  1.0000
  C   C11       1.0  0.4662871646083175  0.7198753573827688  0.5294550932397473  1.0000
  C   C12       1.0  0.5337163323563486  0.2801255203755559  0.47054449512636154  1.0000
  C   C13       1.0  0.5278605733356515  0.6217056133383636  0.4654819995203569  1.0000
  C   C14       1.0  0.4721403761414251  0.37829525700424665  0.5345163491977445  1.0000
  C   C15       1.0  0.47186594866807496  0.5666598129321018  0.3362012034160531  1.0000
  C   C16       1.0  0.528131986398975  0.43333927776722453  0.6637981826408251  1.0000
  C   C17       1.0  0.5308160995283586  0.4638118561942902  0.26875401688126044  1.0000
  C   C18       1.0  0.46918160265735753  0.5361863537070802  0.7312449512179315  1.0000
  C   C19       1.0  0.475618427738091  0.41300385977795884  0.1432904609276236  1.0000
  C   C20       1.0  0.5243792741576812  0.5869943474654915  0.8567092853971091  1.0000
  C   C21       1.0  0.6146293690808092  0.24627467529140998  0.1202828569031951  1.0000
  C   C22       1.0  0.38537262024393465  0.7537253086583958  0.8797184174705991  1.0000
  C   C23       1.0  0.6582871555688569  0.1482607269979255  0.019973721920386794  1.0000
  C   C24       1.0  0.3417161076446503  0.8517392619886901  0.980027783164637  1.0000
  C   C25       1.0  0.5310568789338105  0.0014175687007877988  0.8125291441754072  1.0000
  C   C26       1.0  0.46894313698832946  0.9985797598446026  0.18747298029071402  1.0000
  C   C27       1.0  0.5117684090835795  0.057472760690537  0.7277825003112356  1.0000
  C   C28       1.0  0.4882341546160872  0.9425245779284805  0.27222008557735233  1.0000
  C   C29       1.0  0.2844146018297948  0.1204267262165217  0.613145388038312  1.0000
  C   C30       1.0  0.7155914411727623  0.879574145667924  0.38685933110347326  1.0000
  C   C31       1.0  0.1063139331633991  0.1491478213666966  0.6119150686383535  1.0000
  C   C32       1.0  0.893690370767594  0.8508512892008682  0.38808702742576184  1.0000
  C   C33       1.0  0.1670322855563738  0.3553437385489102  0.7505191532327302  1.0000
  C   C34       1.0  0.8329684298796067  0.6446562403640782  0.24948189042983432  1.0000
  C   C35       1.0  0.18591829762591763  0.43801185062623915  0.8807761432771033  1.0000
  C   C36       1.0  0.8140781303810912  0.5619863515804012  0.11922337233639287  1.0000
  C   C37       1.0  0.0418238315344297  0.29127596995219557  0.3116411956678534  1.0000
  C   C38       1.0  0.9581749273155467  0.7087310588393692  0.6883570519437187  1.0000
  C   C39       1.0  0.0720941333092071  0.18767303227304677  0.22354133544542526  1.0000
  C   C40       1.0  0.9279033531017191  0.8123340047712946  0.7764527903272411  1.0000
  C   C41       1.0  0.13221055766858567  0.19093930001915987  0.13246029319584812  1.0000
  C   C42       1.0  0.867786925842921  0.8090677104459943  0.8675416148321775  1.0000
  C   C43       1.0  0.037181964041017986  0.07888619634747578  0.223417360800191  1.0000
  C   C44       1.0  0.9628139066976116  0.9211243591308643  0.7765764189296648  1.0000
  S   S1        1.0  0.08738517721376844  0.4304475805717091  0.3273962336410748  1.0000
  S   S2        1.0  0.9126123065876826  0.5695594325513653  0.67260489616141  1.0000
  S   S3        1.0  0.951570403199007  0.29565951333330526  0.4184330235089889  1.0000
  S   S4        1.0  0.048432861174269745  0.704340486284991  0.5815653686738999  1.0000
  N   N1        1.0  0.18036839788413056  0.19477727123368277  0.05612918971645092  1.0000
  N   N2        1.0  0.8196406644574523  0.8052254254786532  0.9438612622524546  1.0000
  N   N3        1.0  0.007311597477908546  0.9886236299211859  0.22428063539822324  1.0000
  N   N4        1.0  0.9926846144643662  0.0113833967705048  0.7757148161142808  1.0000
  O   O1        1.0  0.3121083908681754  0.40128595118071786  0.9553258287245541  1.0000
  O   O2        1.0  0.6878865297888482  0.5987113598753239  0.04467459467109349  1.0000
  O   O3        1.0  0.5253674661738187  0.3160674228240339  0.06796120861956473  1.0000
  O   O4        1.0  0.47463220825473224  0.6839334318500931  0.9320400222894423  1.0000
  O   O5        1.0  0.50154964559772  0.0775684993509245  0.9234363167989984  1.0000
  O   O6        1.0  0.4984541922806542  0.9224288469628232  0.07656572157528523  1.0000
  O   O7        1.0  0.3356581590838417  0.07289011026995948  0.6977242992694458  1.0000
  O   O8        1.0  0.6643451032598406  0.9271098707429034  0.3022795404921938  1.0000
  O   O9        1.0  0.10802671681877737  0.23818618257262605  0.7283627141252681  1.0000
  O   O10       1.0  0.8919750396246257  0.7618129205792313  0.271638142290847  1.0000
