data_image0
_chemical_formula_structural       Lu4H24C24S4N4O32
_chemical_formula_sum              "Lu4 H24 C24 S4 N4 O32"
_cell_length_a       7.481137697917566
_cell_length_b       9.2441535440999
_cell_length_c       14.588614894004378
_cell_angle_alpha    90.00008788683866
_cell_angle_beta     89.99999995423198
_cell_angle_gamma    100.89956403748351

_space_group_name_H-M_alt    "P 1"
_space_group_IT_number       1

loop_
  _space_group_symop_operation_xyz
  'x, y, z'

loop_
  _atom_site_type_symbol
  _atom_site_label
  _atom_site_symmetry_multiplicity
  _atom_site_fract_x
  _atom_site_fract_y
  _atom_site_fract_z
  _atom_site_occupancy
  Lu  Lu1       1.0  0.1357621532321076  0.2771064598835978  0.0436924263681888  1.0000
  Lu  Lu2       1.0  0.3642367993617555  0.7228931588166533  0.5436928199530087  1.0000
  Lu  Lu3       1.0  0.8642373999986788  0.72289316276418  0.9563077293695129  1.0000
  Lu  Lu4       1.0  0.6357630041233049  0.2771075654527594  0.4563066503191919  1.0000
  H   H1        1.0  0.15367701949559628  0.047228314073223004  0.449286679292733  1.0000
  H   H2        1.0  0.3463232501111833  0.9527712188566895  0.9492845559647093  1.0000
  H   H3        1.0  0.8463182693287975  0.952770189302342  0.5507127909783733  1.0000
  H   H4        1.0  0.6536768036285565  0.0472306070360631  0.050715599774072494  1.0000
  H   H5        1.0  0.10302220086190056  0.12432919257642538  0.2886093656581963  1.0000
  H   H6        1.0  0.3969798164990195  0.875672149377067  0.7886064815757267  1.0000
  H   H7        1.0  0.8969746762677389  0.8756704183054324  0.7113907900794914  1.0000
  H   H8        1.0  0.603022663087387  0.1243285866591108  0.2113936741625153  1.0000
  H   H9        1.0  0.9192086333499033  0.6651815391323268  0.22073135775350752  1.0000
  H   H10       1.0  0.5807905498428596  0.33481969821642116  0.7207320559292825  1.0000
  H   H11       1.0  0.0807893315754455  0.33481697600829824  0.779267427051579  1.0000
  H   H12       1.0  0.41920950389707207  0.6651821276771842  0.27926878527552645  1.0000
  H   H13       1.0  0.966214540049819  0.6056817845698321  0.3874771107992174  1.0000
  H   H14       1.0  0.5337858251737514  0.394318772253918  0.887477867048183  1.0000
  H   H15       1.0  0.03378233707962861  0.39431782631118045  0.612522359472436  1.0000
  H   H16       1.0  0.4662128905156066  0.6056830477567346  0.1125229741566258  1.0000
  H   H17       1.0  0.28691819729050383  0.3610114626681877  0.2227636145511198  1.0000
  H   H18       1.0  0.2130821945541967  0.6389886078210056  0.7227639254673406  1.0000
  H   H19       1.0  0.7130816061947484  0.6389892616020775  0.777236541187122  1.0000
  H   H20       1.0  0.7869189469816359  0.36101212233221963  0.2772362302709012  1.0000
  H   H21       1.0  0.46263093781313097  0.34739680885061835  0.1610627540389729  1.0000
  H   H22       1.0  0.0373696694166199  0.6526042096203  0.6610637631220229  1.0000
  H   H23       1.0  0.537370203722702  0.6526039213026068  0.838937401699269  1.0000
  H   H24       1.0  0.9626301340688314  0.34739651465081783  0.33893707808224594  1.0000
  C   C1        1.0  0.09709166972480433  0.9689474399463267  0.3964315298491882  1.0000
  C   C2        1.0  0.40290882026641833  0.031053062993486008  0.8964312463668592  1.0000
  C   C3        1.0  0.9029062952005446  0.03105107519429851  0.603567254955891  1.0000
  C   C4        1.0  0.5970923212696063  0.968947667160592  0.10356959483742402  1.0000
  C   C5        1.0  0.07035005211420038  0.008432641666708202  0.3069763712715456  1.0000
  C   C6        1.0  0.42965038732201316  0.9915676385189657  0.8069749716819032  1.0000
  C   C7        1.0  0.9296479128113404  0.9915658734747697  0.6930230989995678  1.0000
  C   C8        1.0  0.5703523425190583  0.008434199140552302  0.1930258695229199  1.0000
  C   C9        1.0  0.009523657451410431  0.9001967002915947  0.2413921028993897  1.0000
  C   C10       1.0  0.49047565712475444  0.0998045123233666  0.741391887025884  1.0000
  C   C11       1.0  0.9904732196776463  0.09980291058771232  0.7586059964401883  1.0000
  C   C12       1.0  0.5095268224618437  0.9001962237136713  0.2586089541783991  1.0000
  C   C13       1.0  0.9674503462246165  0.7528257893818379  0.2695701702254993  1.0000
  C   C14       1.0  0.5325502026190705  0.24717557546183144  0.7695694115071419  1.0000
  C   C15       1.0  0.032546530904831214  0.24717382149917463  0.730429300046154  1.0000
  C   C16       1.0  0.4674511891714275  0.7528262563147265  0.2304314296976742  1.0000
  C   C17       1.0  0.9929208910499198  0.7169001871924152  0.35999888835527827  1.0000
  C   C18       1.0  0.5070794586445757  0.2831003012075328  0.8599995356433894  1.0000
  C   C19       1.0  0.007074648029146105  0.2830994178064898  0.6400012673824023  1.0000
  C   C20       1.0  0.49292168289145616  0.7169004289465447  0.14000130556088664  1.0000
  C   C21       1.0  0.9977261841298597  0.9424829745521992  0.1428152549373394  1.0000
  C   C22       1.0  0.5022718672328352  0.057519164514751316  0.6428143104663633  1.0000
  C   C23       1.0  0.0022722813040516967  0.057517743831695584  0.8571821589367515  1.0000
  C   C24       1.0  0.49772793625203343  0.9424815597538088  0.3571844743398032  1.0000
  S   S1        1.0  0.8189838350463603  0.4025303054953114  0.0930151974823943  1.0000
  S   S2        1.0  0.6810161135099975  0.5974684164625187  0.5930140967110589  1.0000
  S   S3        1.0  0.18101680598071107  0.5974682214137915  0.9069856437208088  1.0000
  S   S4        1.0  0.31898318946591786  0.402530104561066  0.4069846880940275  1.0000
  N   N1        1.0  0.06270278022248021  0.8244517818437417  0.42088957264485327  1.0000
  N   N2        1.0  0.43729772359080943  0.1755487819984864  0.9208887452580115  1.0000
  N   N3        1.0  0.9372956852120139  0.17554893654271103  0.5791098976273474  1.0000
  N   N4        1.0  0.56270207989445  0.8244519422717717  0.0791114104802233  1.0000
  O   O1        1.0  0.0462792982464748  0.0781701229213141  0.1229794995874371  1.0000
  O   O2        1.0  0.45372663966269045  0.9218308242478985  0.6229787172877437  1.0000
  O   O3        1.0  0.9537205052383937  0.9218306013472461  0.8770192852187293  1.0000
  O   O4        1.0  0.546279603820949  0.07816882781466461  0.3770214384499795  1.0000
  O   O5        1.0  0.9417747120912309  0.8412067645408641  0.0857700364149778  1.0000
  O   O6        1.0  0.5582219689829699  0.15879522659722065  0.5857712476752184  1.0000
  O   O7        1.0  0.05822350308859111  0.15879285222224843  0.9142287483906485  1.0000
  O   O8        1.0  0.44177674670658723  0.8412065934142776  0.4142302789956176  1.0000
  O   O9        1.0  0.10125766535896476  0.7879167830090595  0.5051888532193445  1.0000
  O   O10       1.0  0.398741265475131  0.2120827398138942  0.0051897678558319  1.0000
  O   O11       1.0  0.8987402995663769  0.21208173213156564  0.4948099315857348  1.0000
  O   O12       1.0  0.6012569497054655  0.787916876952636  0.994811758813924  1.0000
  O   O13       1.0  0.008458095944987988  0.44298543066349066  0.1304313793298135  1.0000
  O   O14       1.0  0.4915449198198089  0.5570144216728325  0.6304302400665662  1.0000
  O   O15       1.0  0.9915441333873216  0.5570142037519048  0.8695701473399639  1.0000
  O   O16       1.0  0.5084546334105866  0.44298520097323296  0.3695685447390602  1.0000
  O   O17       1.0  0.8266646639098096  0.2795267119925314  0.0273097905598902  1.0000
  O   O18       1.0  0.673336335310118  0.7204707506134014  0.5273094956281099  1.0000
  O   O19       1.0  0.17333572686278126  0.7204707132940839  0.9726910506427728  1.0000
  O   O20       1.0  0.326662967665797  0.27952777041018345  0.47268928917697645  1.0000
  O   O21       1.0  0.7647446101503376  0.5286438279067626  0.044238181560729097  1.0000
  O   O22       1.0  0.7352566488911095  0.4713547784756785  0.5442383284690848  1.0000
  O   O23       1.0  0.23525603087654182  0.47135469900148047  0.9557619741764398  1.0000
  O   O24       1.0  0.2647450799320552  0.5286426526938898  0.4557625127335783  1.0000
  O   O25       1.0  0.6891746815471363  0.3574710631869778  0.16926915873813186  1.0000
  O   O26       1.0  0.8108255603574861  0.6425289502720658  0.6692667316040898  1.0000
  O   O27       1.0  0.3108248716844173  0.6425285594642176  0.8307337388637067  1.0000
  O   O28       1.0  0.18917424312738257  0.35747177399648683  0.33073205320207677  1.0000
  O   O29       1.0  0.3307393358675412  0.35185401370725344  0.15917086973019678  1.0000
  O   O30       1.0  0.16926152054731597  0.6481481016743018  0.6591711894549519  1.0000
  O   O31       1.0  0.6692618056682916  0.6481467164459717  0.8408292860080451  1.0000
  O   O32       1.0  0.8307385331924236  0.3518537242184507  0.3408289662838229  1.0000
