data_image0
_chemical_formula_structural       Zn2H80C44N8O8
_chemical_formula_sum              "Zn2 H80 C44 N8 O8"
_cell_length_a       10.358341945557
_cell_length_b       11.234556728237093
_cell_length_c       12.416345240979444
_cell_angle_alpha    67.01476006855795
_cell_angle_beta     73.62578528895719
_cell_angle_gamma    89.18363864352916

_space_group_name_H-M_alt    "P 1"
_space_group_IT_number       1

loop_
  _space_group_symop_operation_xyz
  'x, y, z'

loop_
  _atom_site_type_symbol
  _atom_site_label
  _atom_site_symmetry_multiplicity
  _atom_site_fract_x
  _atom_site_fract_y
  _atom_site_fract_z
  _atom_site_occupancy
  Zn  Zn1       1.0  0.5000003215419611  0.49999979244435605  0.5000008547229695  1.0000
  Zn  Zn2       1.0  0.999999086654235  0.5000003614409323  2.2267624901824298e-07  1.0000
  H   H1        1.0  0.42712268854889157  0.6354278330005342  0.3168231132568379  1.0000
  H   H2        1.0  0.5728788528200895  0.3645707738042177  0.6831779316989707  1.0000
  H   H3        1.0  0.5943120557324164  0.6714728262913069  0.546937714465514  1.0000
  H   H4        1.0  0.40568970939585824  0.3285277148763939  0.4530609746766388  1.0000
  H   H5        1.0  0.12481519571363012  0.3810332061432149  0.1562058194564173  1.0000
  H   H6        1.0  0.8751836606957185  0.6189683078088136  0.8437931993453203  1.0000
  H   H7        1.0  0.8213292248505155  0.31989575592689334  0.05271515879496027  1.0000
  H   H8        1.0  0.1786703080637082  0.6801028401572964  0.9472847474054118  1.0000
  H   H9        1.0  0.6165142263504961  0.8721423706173038  0.38321908106058794  1.0000
  H   H10       1.0  0.38348642069163924  0.12785720342956353  0.6167810205355689  1.0000
  H   H11       1.0  0.390773819675637  0.759363309561401  0.4948548979786832  1.0000
  H   H12       1.0  0.6092279454526379  0.2406372316062999  0.5051437911634692  1.0000
  H   H13       1.0  0.28077657518495164  0.8736558059266667  0.33193666076675027  1.0000
  H   H14       1.0  0.7192240718571908  0.12634376812020076  0.6680634408294066  1.0000
  H   H15       1.0  0.4163654653496991  0.9717719968860622  0.3251234055944534  1.0000
  H   H16       1.0  0.5836331673003556  0.028227582703010505  0.6748779690209402  1.0000
  H   H17       1.0  0.4303023464964255  0.8247887984266454  0.1588100416900531  1.0000
  H   H18       1.0  0.5696975161194118  0.1752127154647383  0.8411887425645118  1.0000
  H   H19       1.0  0.43033734322531103  0.9945612127938688  0.114700196375935  1.0000
  H   H20       1.0  0.5696624075108759  0.005439333916044101  0.8852997657854612  1.0000
  H   H21       1.0  0.6462630391429514  0.010718476137803596  0.15610323447396007  1.0000
  H   H22       1.0  0.35373782374204416  0.9892830539557025  0.8438977270081048  1.0000
  H   H23       1.0  0.665243351018276  0.9315548007595138  0.055299962231487004  1.0000
  H   H24       1.0  0.3347566175398811  0.0684476965761149  0.9447000558909264  1.0000
  H   H25       1.0  0.6454689040420263  0.7163284272124101  0.22415299435678554  1.0000
  H   H26       1.0  0.35453207665994313  0.28367405379981403  0.775844377443775  1.0000
  H   H27       1.0  0.773880514139762  0.8218110173964916  0.21831226725629438  1.0000
  H   H28       1.0  0.226120246761127  0.17818951841092462  0.781685852508147  1.0000
  H   H29       1.0  0.8097198705652461  0.6359796425443561  0.3541746105499896  1.0000
  H   H30       1.0  0.19028088835653992  0.3640208986839824  0.6458243131393357  1.0000
  H   H31       1.0  0.8494289016184382  0.8577289003627729  0.3553330866794296  1.0000
  H   H32       1.0  0.1505717414654768  0.1422706845259398  0.6446686227665166  1.0000
  H   H33       1.0  0.9695031016460405  0.7538386875290328  0.4072441165943982  1.0000
  H   H34       1.0  0.03049743153734141  0.24615992475727924  0.5927579668334815  1.0000
  H   H35       1.0  0.8312015682253746  0.7814261142128273  0.5148321020040426  1.0000
  H   H36       1.0  0.1687967347230739  0.21857054756905106  0.4851703945571656  1.0000
  H   H37       1.0  0.19255718672589242  0.678550169781829  0.3940986426296004  1.0000
  H   H38       1.0  0.8074433583321438  0.32144840997894164  0.6058986172489255  1.0000
  H   H39       1.0  0.21317120764025793  0.6058890524272799  0.5427520639331218  1.0000
  H   H40       1.0  0.7868284411118296  0.394110499996536  0.4572450565106435  1.0000
  H   H41       1.0  0.7454491796871708  0.531617821779264  0.633286237224176  1.0000
  H   H42       1.0  0.2545533718465123  0.4683807741229984  0.3667129653346775  1.0000
  H   H43       1.0  0.9053831751230633  0.5314448582477382  0.5345149893276824  1.0000
  H   H44       1.0  0.0946183761414616  0.4685537214523946  0.4654820360036707  1.0000
  H   H45       1.0  0.8826927654226538  0.12634946289772836  0.1725862109137067  1.0000
  H   H46       1.0  0.11730586722740101  0.873650116691344  0.8274151637016939  1.0000
  H   H47       1.0  0.1083076204413871  0.1252346486172726  0.033978522726961564  1.0000
  H   H48       1.0  0.8916920164360462  0.8747649363320775  0.9660234212661503  1.0000
  H   H49       1.0  0.17556176702890272  0.25583086041775255  0.05248798242379137  1.0000
  H   H50       1.0  0.8244367557206187  0.7441677465689195  0.947513766173543  1.0000
  H   H51       1.0  0.058571746959735486  0.9822397729084285  0.25151993918964877  1.0000
  H   H52       1.0  0.9414268837112161  0.0177598121015663  0.7484822393506361  1.0000
  H   H53       1.0  0.23032792622131382  0.04623778781122921  0.19046761652862895  1.0000
  H   H54       1.0  0.7696707024705203  0.953761802619688  0.8095353659365542  1.0000
  H   H55       1.0  0.1200419696281401  0.0469270002937918  0.3992797167088609  1.0000
  H   H56       1.0  0.879956990744418  0.9530755025233969  0.6007213398856236  1.0000
  H   H57       1.0  0.18442968725454986  0.2041975701920579  0.28670725001443736  1.0000
  H   H58       1.0  0.8155681609691996  0.7958039492415381  0.7132928072593712  1.0000
  H   H59       1.0  0.9494729284304313  0.2060891570277477  0.41609751398163286  1.0000
  H   H60       1.0  0.05052625372231029  0.7939152855733196  0.5839019907240794  1.0000
  H   H61       1.0  0.8877078894190263  0.08344580749397322  0.3827915105949413  1.0000
  H   H62       1.0  0.1122899528674068  0.9165557282023825  0.6172109584535405  1.0000
  H   H63       1.0  0.8332855948094604  0.29196474422337104  0.25344513724567713  1.0000
  H   H64       1.0  0.1667132596207779  0.7080367751495799  0.7465546854809515  1.0000
  H   H65       1.0  0.010407405851530905  0.4160445512286515  0.3423373270239267  1.0000
  H   H66       1.0  0.9895913406572774  0.5839559901209768  0.6576620657597513  1.0000
  H   H67       1.0  0.8876911556980503  0.486639582559441  0.26737935626143605  1.0000
  H   H68       1.0  0.1123085950381366  0.5133609641504648  0.7326206058999529  1.0000
  H   H69       1.0  0.0689442975167012  0.2899091890623708  0.8784873419354465  1.0000
  H   H70       1.0  0.9310554532194928  0.7100913576475422  0.12151262022594965  1.0000
  H   H71       1.0  0.9129502829108277  0.07624371885378169  0.004150842999514704  1.0000
  H   H72       1.0  0.08704925198250633  0.9237548718094786  0.9958482592759667  1.0000
  H   H73       1.0  0.9234251076748451  0.14049480507731  0.8464892596846665  1.0000
  H   H74       1.0  0.0765757591683709  0.8595067141743583  0.1535100939476166  1.0000
  H   H75       1.0  0.7792922382800355  0.15917937648404748  0.9547321081133543  1.0000
  H   H76       1.0  0.2207066220875333  0.8408221266261364  0.045265302838600946  1.0000
  H   H77       1.0  0.1908536932636693  0.5879706540231666  0.1548965620861863  1.0000
  H   H78       1.0  0.8091459495510946  0.4120289146634164  0.8451029701322522  1.0000
  H   H79       1.0  0.08032649006447201  0.6356076345632077  0.2631228245128694  1.0000
  H   H80       1.0  0.919674154998553  0.3643919449045824  0.7368780810081785  1.0000
  C   C1        1.0  0.5922034372042191  0.7829549807285118  0.37175297121724055  1.0000
  C   C2        1.0  0.4077971038956036  0.2170436098741105  0.6282458965110675  1.0000
  C   C3        1.0  0.4364607325632548  0.7666683147376503  0.4004561202311975  1.0000
  C   C4        1.0  0.5635399164579908  0.23333125388829493  0.5995431774400684  1.0000
  C   C5        1.0  0.39151323505361557  0.8851867220192488  0.3104473711051767  1.0000
  C   C6        1.0  0.6084874119885273  0.11481285202761883  0.6895527304909803  1.0000
  C   C7        1.0  0.4613998353430163  0.9068106615264568  0.17705461840230882  1.0000
  C   C8        1.0  0.5386000233146007  0.0931908632067717  0.822945773702038  1.0000
  C   C9        1.0  0.6151295027779113  0.9206997593209818  0.14979306341242454  1.0000
  C   C10       1.0  0.3848702519164959  0.07930077654707898  0.8502052908991826  1.0000
  C   C11       1.0  0.6637347533709033  0.8042865251303934  0.23858329499770276  1.0000
  C   C12       1.0  0.33626611347230545  0.19571499412126767  0.7614160586345802  1.0000
  C   C13       1.0  0.7767212845375228  0.6500773738345772  0.44030132135918587  1.0000
  C   C14       1.0  0.2232792545831899  0.34992122218896776  0.5596983502940132  1.0000
  C   C15       1.0  0.8613630177644751  0.7676830418111962  0.4284407983969698  1.0000
  C   C16       1.0  0.1386364012909951  0.23231459251243072  0.5715610896351249  1.0000
  C   C17       1.0  0.2456352537275279  0.6053831901463693  0.45081453892760237  1.0000
  C   C18       1.0  0.7543674077066882  0.3946163783582862  0.549184289649318  1.0000
  C   C19       1.0  0.7964856560813303  0.5272322496122682  0.5442148498545548  1.0000
  C   C20       1.0  0.203515781324441  0.4727653683273161  0.45578415730851407  1.0000
  C   C21       1.0  0.5860732504774262  0.495388783213329  0.23729302527486595  1.0000
  C   C22       1.0  0.4139281790119043  0.5046088564099377  0.7627091975877744  1.0000
  C   C23       1.0  0.6848386020847884  0.4543344966085883  0.143663133620862  1.0000
  C   C24       1.0  0.3151628274045422  0.5456631430146786  0.8563390892417783  1.0000
  C   C25       1.0  0.9573836288865042  0.21375939555682066  0.13054692336139326  1.0000
  C   C26       1.0  0.042615005742661076  0.7862401786113292  0.8694536473291166  1.0000
  C   C27       1.0  0.0990203042828242  0.17048579285323479  0.09955169026466847  1.0000
  C   C28       1.0  0.9009783303463408  0.8295137813149153  0.9004488804258342  1.0000
  C   C29       1.0  0.1269686312527156  0.0725189919666747  0.21496756773017714  1.0000
  C   C30       1.0  0.8730289951908574  0.9274805876830429  0.7850340414323891  1.0000
  C   C31       1.0  0.1060792586173349  0.12298151529701327  0.3159774400712364  1.0000
  C   C32       1.0  0.8939206000402822  0.8770200094362154  0.6840229520331105  1.0000
  C   C33       1.0  0.9649642045686022  0.16760584109519527  0.34489257988332866  1.0000
  C   C34       1.0  0.03503554220937128  0.8323947164565549  0.6551089901278501  1.0000
  C   C35       1.0  0.9384727598321236  0.26909834059620863  0.22976454047486766  1.0000
  C   C36       1.0  0.06152688100353031  0.7309012335113039  0.770235795668462  1.0000
  C   C37       1.0  0.9954133332254642  0.4709662402764537  0.2519174314043864  1.0000
  C   C38       1.0  0.004586527411262894  0.5290352790358525  0.7480821567750694  1.0000
  C   C39       1.0  0.958127191249929  0.2884375656670101  0.9101673250520789  1.0000
  C   C40       1.0  0.04187234364340501  0.71156102499625  0.0898317772234094  1.0000
  C   C41       1.0  0.889770301549106  0.1584464591591939  0.9304373882142722  1.0000
  C   C42       1.0  0.11023035340946312  0.8415530932039843  0.06955949768232014  1.0000
  C   C43       1.0  0.08373861080948333  0.6013461512758697  0.1906177785189342  1.0000
  C   C44       1.0  0.9162611399267037  0.3986543954340362  0.8093821836424622  1.0000
  N   N1        1.0  0.3925222392397316  0.6413739864638756  0.401727842387764  1.0000
  N   N2        1.0  0.6074814284009734  0.3586255819801494  0.5982707516419763  1.0000
  N   N3        1.0  0.6314035451378786  0.6681618762819139  0.46246956702392333  1.0000
  N   N4        1.0  0.3685960937186649  0.33183770324651357  0.5375315730442976  1.0000
  N   N5        1.0  0.02427639908319181  0.3945805977692772  0.1767693677373855  1.0000
  N   N6        1.0  0.9757223434674029  0.6054199544221958  0.8232316328960747  1.0000
  N   N7        1.0  0.9250754737081907  0.3122339392864432  0.0234469656737133  1.0000
  N   N8        1.0  0.07492427900710652  0.6877666020025401  0.976552192562792  1.0000
  O   O1        1.0  0.6185942896852055  0.4670455034885279  0.3367585769808628  1.0000
  O   O2        1.0  0.3814072516837755  0.532953103316224  0.6632424679749531  1.0000
  O   O3        1.0  0.4866501768989977  0.5538871502545888  0.21244600727502658  1.0000
  O   O4        1.0  0.5133521488962812  0.44610951670564  0.7875563550223743  1.0000
  O   O5        1.0  0.6592994684489567  0.3466164122189141  0.1406178545071198  1.0000
  O   O6        1.0  0.34070106671353523  0.6533821946464753  0.8593834249958688  1.0000
  O   O7        1.0  0.7914980078738836  0.5355354288311531  0.0790717228921878  1.0000
  O   O8        1.0  0.2085015191030095  0.4644631835158038  0.9209305950828647  1.0000
