data_image0
_chemical_formula_structural       CuH10C4Br2N10
_chemical_formula_sum              "Cu1 H10 C4 Br2 N10"
_cell_length_a       5.209622532236474
_cell_length_b       6.463713818984607
_cell_length_c       9.085845673273388
_cell_angle_alpha    99.15197349885307
_cell_angle_beta     102.47973349937736
_cell_angle_gamma    89.47060511577126

_space_group_name_H-M_alt    "P 1"
_space_group_IT_number       1

loop_
  _space_group_symop_operation_xyz
  'x, y, z'

loop_
  _atom_site_type_symbol
  _atom_site_label
  _atom_site_symmetry_multiplicity
  _atom_site_fract_x
  _atom_site_fract_y
  _atom_site_fract_z
  _atom_site_occupancy
  Cu  Cu1       1.0  0.9999986594545762  5.521949190980833e-07  1.6622148564371286e-06  1.0000
  H   H1        1.0  0.2613003561626712  0.35349298487747666  0.9156103029791183  1.0000
  H   H2        1.0  0.7386990355180744  0.6465074328115817  0.08438700680166993  1.0000
  H   H3        1.0  0.5136788422564038  0.255551300123578  0.035992822806456125  1.0000
  H   H4        1.0  0.48631491422123935  0.7444554203172941  0.9640033980728546  1.0000
  H   H5        1.0  0.4962448720822011  0.24082323355158766  0.3916659826703111  1.0000
  H   H6        1.0  0.5037581908483164  0.7591708959513142  0.6083343759539446  1.0000
  H   H7        1.0  0.8229315475909473  0.13565445137729173  0.42083360420940613  1.0000
  H   H8        1.0  0.1770715832985985  0.8643412504179367  0.5791702414638209  1.0000
  H   H9        1.0  0.7752936076292088  0.40879932894409887  0.47990708257518117  1.0000
  H   H10       1.0  0.22471161753936286  0.5911994917753417  0.520094071019102  1.0000
  C   C1        1.0  0.5403654108839646  0.21200689880905796  0.8177160482425165  1.0000
  C   C2        1.0  0.459643738196732  0.787991884854236  0.182275681014282  1.0000
  C   C3        1.0  0.6924188450783362  0.2498518742567484  0.46662347996157655  1.0000
  C   C4        1.0  0.3075863760957064  0.7501469385378383  0.533372169179188  1.0000
  Br  Br1       1.0  0.0156981570956276  0.6626316014885417  0.8265593518591602  1.0000
  Br  Br2       1.0  0.9842859011531218  0.33737830783574924  0.17343382679541017  1.0000
  N   N1        1.0  0.4689262007988901  0.27194546861856855  0.6798953005721984  1.0000
  N   N2        1.0  0.5310789588073773  0.7280517845634619  0.32010566864521184  1.0000
  N   N3        1.0  0.6684923535676077  0.20487506634590602  0.6147471680188801  1.0000
  N   N4        1.0  0.3315069749475512  0.7951237885606516  0.3852532600571479  1.0000
  N   N5        1.0  0.8528909208856208  0.10949253100909569  0.6995166916850195  1.0000
  N   N6        1.0  0.14710257813623434  0.8905079287919334  0.3004853970310322  1.0000
  N   N7        1.0  0.7743558038146006  0.11153911795400971  0.8299548607139897  1.0000
  N   N8        1.0  0.2256318657139644  0.8884629467414912  0.1700488886420786  1.0000
  N   N9        1.0  0.3979908189297775  0.2387674587973123  0.9280894711549621  1.0000
  N   N10       1.0  0.6020030103003222  0.7612408434457194  0.07191684211754532  1.0000
