data_image0
_chemical_formula_structural       Zn4H36C72O40
_chemical_formula_sum              "Zn4 H36 C72 O40"
_cell_length_a       8.914628691786309
_cell_length_b       17.708907174883773
_cell_length_c       34.86545867176969
_cell_angle_alpha    89.69791164855272
_cell_angle_beta     89.95775153005849
_cell_angle_gamma    89.87022244032832

_space_group_name_H-M_alt    "P 1"
_space_group_IT_number       1

loop_
  _space_group_symop_operation_xyz
  'x, y, z'

loop_
  _atom_site_type_symbol
  _atom_site_label
  _atom_site_symmetry_multiplicity
  _atom_site_fract_x
  _atom_site_fract_y
  _atom_site_fract_z
  _atom_site_occupancy
  Zn  Zn1       1.0  0.6005174098669954  0.9992862772624211  0.5002826386981025  1.0000
  Zn  Zn2       1.0  0.2988548438047545  0.9996406282802895  0.5003478674446739  1.0000
  Zn  Zn3       1.0  0.3088537610852596  0.9984257977955342  0.00028059384054299826  1.0000
  Zn  Zn4       1.0  0.6106959830826354  0.9979447306155582  0.0002925022722095984  1.0000
  H   H1        1.0  0.6342642968144502  0.9937456420362594  0.8816445381872168  1.0000
  H   H2        1.0  0.6412769579939237  0.9924921953675536  0.8109030101637411  1.0000
  H   H3        1.0  0.7605717120242019  0.001635036030101801  0.6920924752124191  1.0000
  H   H4        1.0  0.2730017297335792  0.00026417857971240054  0.6912080268164542  1.0000
  H   H5        1.0  0.2926177895935496  0.9884600603481674  0.7479600100976922  1.0000
  H   H6        1.0  0.6332053422475353  0.007672207024306502  0.751599003168266  1.0000
  H   H7        1.0  0.6347990996333406  0.002039285828907101  0.11884761382324166  1.0000
  H   H8        1.0  0.6416794275214953  0.003249114080844602  0.18959847640406471  1.0000
  H   H9        1.0  0.7604398473225586  0.9965290055574914  0.3084269503849838  1.0000
  H   H10       1.0  0.2728892057195722  0.9994281768112077  0.30945303297295357  1.0000
  H   H11       1.0  0.2924406228484386  0.008100639423872704  0.252586118288498  1.0000
  H   H12       1.0  0.6336438220142496  0.9910281965222657  0.24901265357935629  1.0000
  H   H13       1.0  0.6326100967374586  0.772129284628129  0.49887500840852517  1.0000
  H   H14       1.0  0.15106186960932177  0.7559695255583067  0.5037828646488192  1.0000
  H   H15       1.0  0.6325365435908807  0.2262125450801307  0.5012795855208619  1.0000
  H   H16       1.0  0.15082644603010212  0.24363661121905278  0.4962913653563417  1.0000
  H   H17       1.0  0.273382212712427  0.7713930000872583  0.0011070840620063989  1.0000
  H   H18       1.0  0.7548743081393636  0.7539741288120398  0.9962128793598164  1.0000
  H   H19       1.0  0.274942000645872  0.2254751661306359  0.9965970487131198  1.0000
  H   H20       1.0  0.7559531085008757  0.24162680649801171  0.0033539792160723982  1.0000
  H   H21       1.0  0.1400278418776892  0.9994572209342968  0.9094676455026512  1.0000
  H   H22       1.0  0.13799203186738399  0.005088884750009003  0.7787765080663005  1.0000
  H   H23       1.0  0.2663953518116172  0.9983468194013843  0.5915767231446335  1.0000
  H   H24       1.0  0.7710233485518571  0.9996498208262355  0.591276228658941  1.0000
  H   H25       1.0  0.14063842656391756  0.9979824205538255  0.09111827905976357  1.0000
  H   H26       1.0  0.13840400483937293  0.991855046074541  0.2218420739008805  1.0000
  H   H27       1.0  0.2663989637896123  0.0014089873991878009  0.40909782343662454  1.0000
  H   H28       1.0  0.7709729280159364  0.998844990510371  0.4092052425971317  1.0000
  H   H29       1.0  0.1352682734792054  0.5815833842426913  0.45434065886991687  1.0000
  H   H30       1.0  0.6379411026940642  0.54442879333039  0.5312577262999196  1.0000
  H   H31       1.0  0.13322326205587842  0.4172628943735505  0.5452966232050044  1.0000
  H   H32       1.0  0.6381022258514263  0.454036916476163  0.4687073542437828  1.0000
  H   H33       1.0  0.773679465610975  0.5810360404026513  0.04461170580980678  1.0000
  H   H34       1.0  0.2686168404513083  0.5434111985341235  0.9683313542455134  1.0000
  H   H35       1.0  0.7698643539407187  0.4197065201281022  0.9536452443642953  1.0000
  H   H36       1.0  0.2681437136282838  0.45067835135548523  0.030239257437869982  1.0000
  C   C1        1.0  0.38733619231437183  0.8577079500337351  0.500004349404257  1.0000
  C   C2        1.0  0.516021473165324  0.9987379108248439  0.5742893056807715  1.0000
  C   C3        1.0  0.38723021322394396  0.14134552998065436  0.5004272714031186  1.0000
  C   C4        1.0  0.5159095650349174  0.0002902548943027006  0.42631046879420587  1.0000
  C   C5        1.0  0.519227765400096  0.8561554622200663  0.0007345873035546988  1.0000
  C   C6        1.0  0.3954148836665183  0.9971664160083622  0.9272479757807868  1.0000
  C   C7        1.0  0.5202935403524194  0.14002387012453008  0.9991997591891956  1.0000
  C   C8        1.0  0.39613495802231563  0.9995782450878539  0.07331413897934168  1.0000
  C   C9        1.0  0.3930488255634543  0.9968604686108908  0.8852006834969824  1.0000
  C   C10       1.0  0.530856977090572  0.9951826518589831  0.8651030431460922  1.0000
  C   C11       1.0  0.5337854032475775  0.9948474633972216  0.8257072019635456  1.0000
  C   C12       1.0  0.39917550743609087  0.9963975975607727  0.8039814578456868  1.0000
  C   C13       1.0  0.2611457695570607  0.99847793848209  0.8238659606288363  1.0000
  C   C14       1.0  0.2568369841737733  0.9983099364859034  0.8645213483047268  1.0000
  C   C15       1.0  0.4006518890986683  0.9956070144863322  0.7624006771138523  1.0000
  C   C16       1.0  0.5217394899342621  0.0015390563232245008  0.7390289994412809  1.0000
  C   C17       1.0  0.6537335445839786  0.0009373101826782011  0.6769386303576821  1.0000
  C   C18       1.0  0.5172982941173315  0.0005065416360850011  0.6972629240964634  1.0000
  C   C19       1.0  0.38140708724025524  0.9996768910827786  0.6768780050388299  1.0000
  C   C20       1.0  0.38025231674944854  0.9990752941259232  0.6371054362009898  1.0000
  C   C21       1.0  0.5181726790261081  0.9991663059942659  0.6157535289144532  1.0000
  C   C22       1.0  0.6556004829953892  9.374465255970102e-05  0.63695119939846  1.0000
  C   C23       1.0  0.39358443927122266  0.9998503163204688  0.11536916593385624  1.0000
  C   C24       1.0  0.5313678434999857  0.0009662380069670007  0.13543516675836995  1.0000
  C   C25       1.0  0.5341985669597947  0.0012704324850432004  0.17482849993436386  1.0000
  C   C26       1.0  0.3995059574357782  0.00021638928464540004  0.19657722337565522  1.0000
  C   C27       1.0  0.2615118852174234  0.9983701243391612  0.1767128150118466  1.0000
  C   C28       1.0  0.2572814964275878  0.998714724611674  0.13605930623296555  1.0000
  C   C29       1.0  0.4007667617311482  0.0014673192939441007  0.2381520973364458  1.0000
  C   C30       1.0  0.5218640857835694  0.9966765739112589  0.26155339581685405  1.0000
  C   C31       1.0  0.6535597314921232  0.9976026059252877  0.3236068570273431  1.0000
  C   C32       1.0  0.5171967073316495  0.9981960512463606  0.30330951512061677  1.0000
  C   C33       1.0  0.3812945454436019  0.9996068323032433  0.3237440098557086  1.0000
  C   C34       1.0  0.3801497032604856  0.0003711846757213005  0.363522017304028  1.0000
  C   C35       1.0  0.5180204756918981  0.9999498149174856  0.3848463525306156  1.0000
  C   C36       1.0  0.6554199302509359  0.9986473064644067  0.3635948954940246  1.0000
  C   C37       1.0  0.39082492033468696  0.7734662072227253  0.5002792487743051  1.0000
  C   C38       1.0  0.531151889800256  0.7382172935837233  0.4998160043215376  1.0000
  C   C39       1.0  0.5460001083753878  0.660087934556991  0.5012168412909475  1.0000
  C   C40       1.0  0.4152388314107042  0.6142535520118104  0.501442692257811  1.0000
  C   C41       1.0  0.272797397473326  0.6506502448873592  0.5024797523875717  1.0000
  C   C42       1.0  0.2611178183402387  0.7292418856536788  0.5022007256556975  1.0000
  C   C43       1.0  0.421858746205011  0.5340560416727843  0.5006296565002585  1.0000
  C   C44       1.0  0.42212312486033443  0.4648071346321531  0.49907130495271435  1.0000
  C   C45       1.0  0.4156487292441681  0.3846114415746414  0.49832352290930243  1.0000
  C   C46       1.0  0.5463562817949281  0.3384140345305513  0.4986605250923685  1.0000
  C   C47       1.0  0.5311063034449574  0.26036556157252744  0.5002632119298551  1.0000
  C   C48       1.0  0.39067772441259757  0.22553734217581936  0.4999085773834721  1.0000
  C   C49       1.0  0.26101164801934823  0.27005239162296146  0.4978340306728766  1.0000
  C   C50       1.0  0.2730529921788758  0.3486255916394328  0.49733270648860617  1.0000
  C   C51       1.0  0.5151189335593783  0.7719026968140243  0.9998654209218993  1.0000
  C   C52       1.0  0.3746402147987951  0.737146069907553  0.9999681016052331  1.0000
  C   C53       1.0  0.35937161446192784  0.6591706648958823  0.9978354073280751  1.0000
  C   C54       1.0  0.4901542156839582  0.6130649634804402  0.9972810534143972  1.0000
  C   C55       1.0  0.6327512156055944  0.6490031747105648  0.9966015562060871  1.0000
  C   C56       1.0  0.6447548694081746  0.7274826148242327  0.9975675174792467  1.0000
  C   C57       1.0  0.4841361180436579  0.5328685513861517  0.9975436838260872  1.0000
  C   C58       1.0  0.4850640878855613  0.4635933080944738  0.9988509143186798  1.0000
  C   C59       1.0  0.49202285627369224  0.38339764223495376  0.9996173416148859  1.0000
  C   C60       1.0  0.36130990284253534  0.3375550017449101  0.9989698490158427  1.0000
  C   C61       1.0  0.37619740046515904  0.25946235445422877  0.9978316951863487  1.0000
  C   C62       1.0  0.5165410485674258  0.22428314086800338  0.9990077362073531  1.0000
  C   C63       1.0  0.6460466740256194  0.26844425506924113  0.0012663634544196995  1.0000
  C   C64       1.0  0.6344071697382104  0.3470406126081116  0.001205589712000699  1.0000
  C   C65       1.0  0.1332305968448395  0.6043277322273828  0.5082597877034372  1.0000
  C   C66       1.0  0.7056955342630856  0.6325964137070134  0.5035732444096153  1.0000
  C   C67       1.0  0.1336192795616498  0.39529715664241416  0.49132741509985306  1.0000
  C   C68       1.0  0.7062093115311043  0.3653717707407439  0.49604134580408726  1.0000
  C   C69       1.0  0.7719871500680284  0.6023354267126139  0.9905249822045543  1.0000
  C   C70       1.0  0.19958421083217803  0.6324324661744856  0.9947515868891014  1.0000
  C   C71       1.0  0.774311345377562  0.39282892838082273  0.007180493021287796  1.0000
  C   C72       1.0  0.20181295525799917  0.3652446156128023  0.0007435839012330994  1.0000
  O   O1        1.0  0.5131880000502492  0.8911347500274619  0.4998731572306807  1.0000
  O   O2        1.0  0.2590296960181036  0.8917731238420078  0.5000899214507581  1.0000
  O   O3        1.0  0.3891180765682022  0.9983942938716485  0.5564176198960167  1.0000
  O   O4        1.0  0.6427675777483445  0.9987009133505611  0.5551418375996278  1.0000
  O   O5        1.0  0.25889113794988816  0.10760516569649073  0.5004963231253966  1.0000
  O   O6        1.0  0.5130352656483764  0.10760724689111362  0.5005858590212354  1.0000
  O   O7        1.0  0.6426856501718274  0.9999821543431439  0.44539101676024007  1.0000
  O   O8        1.0  0.3890013408429879  0.000849373132751901  0.44421829058102685  1.0000
  O   O9        1.0  0.39329882665374066  0.8897268044492538  0.0012088227735631988  1.0000
  O   O10       1.0  0.6477956282264684  0.8893930684626387  0.0006964847157390983  1.0000
  O   O11       1.0  0.5200564666483486  0.9969020869000218  0.9447268943939374  1.0000
  O   O12       1.0  0.2659565012350953  0.9977327611707808  0.945448013498648  1.0000
  O   O13       1.0  0.6486717451790227  0.10630996811413244  0.9994271592611239  1.0000
  O   O14       1.0  0.39417295739190183  0.10691121774998895  0.9993164966799594  1.0000
  O   O15       1.0  0.26672436922873277  0.9994494269742877  0.05514879967248728  1.0000
  O   O16       1.0  0.5208856472764792  0.9994437853238339  0.05583550426993608  1.0000
  O   O17       1.0  0.1205679937652349  0.9999581988056793  0.8812929741960145  1.0000
  O   O18       1.0  0.1239240283950309  0.0012809508147456014  0.8064127648498524  1.0000
  O   O19       1.0  0.24523043003062384  0.9986425450962604  0.619647487145137  1.0000
  O   O20       1.0  0.7904711252576887  0.00027780961227110037  0.6193205456563929  1.0000
  O   O21       1.0  0.12108500581993549  0.9974062900221696  0.11929584021819295  1.0000
  O   O22       1.0  0.12427305614470896  0.9958085731798582  0.19421631160285088  1.0000
  O   O23       1.0  0.24516927064836844  0.0012066354972404005  0.3810376453557323  1.0000
  O   O24       1.0  0.7903663124172056  0.9981628805036215  0.38115245466956776  1.0000
  O   O25       1.0  0.07592269213687788  0.5697414192087393  0.4771424206530026  1.0000
  O   O26       1.0  0.07694648784161019  0.5981358331276925  0.5398192642979678  1.0000
  O   O27       1.0  0.7322889376833858  0.5678974771581835  0.5231285889855285  1.0000
  O   O28       1.0  0.8084996233674673  0.6693051187754124  0.49003105276914005  1.0000
  O   O29       1.0  0.0747133285824191  0.4295294134068187  0.5224123605384958  1.0000
  O   O30       1.0  0.0787909164303784  0.40186010026118885  0.4596344112299915  1.0000
  O   O31       1.0  0.7325277870021337  0.4300762101053694  0.4765257753139165  1.0000
  O   O32       1.0  0.8093760145954221  0.32826616005755954  0.5092591411974678  1.0000
  O   O33       1.0  0.8314892611661618  0.5681567013308426  0.021750130733685993  1.0000
  O   O34       1.0  0.8260828072265268  0.595433055532098  0.9587907005125157  1.0000
  O   O35       1.0  0.17387473087197236  0.5679473830669723  0.9753558665508985  1.0000
  O   O36       1.0  0.09587524653053237  0.6696504620637925  0.007459129347267897  1.0000
  O   O37       1.0  0.8305173663353144  0.42956764620031157  0.9763791827822599  1.0000
  O   O38       1.0  0.832395247540198  0.3964628980116702  0.03860046436552269  1.0000
  O   O39       1.0  0.17421150421838405  0.4284228120146382  0.021176944163933294  1.0000
  O   O40       1.0  0.09989061519357277  0.3300233292447033  0.9860579297582458  1.0000
