data_image0
_chemical_formula_structural       Tm2H26C32O24
_chemical_formula_sum              "Tm2 H26 C32 O24"
_cell_length_a       7.900354773323546
_cell_length_b       10.566918844701922
_cell_length_c       11.023094978886506
_cell_angle_alpha    87.32618701573068
_cell_angle_beta     77.62409513111994
_cell_angle_gamma    69.39824833357535

_space_group_name_H-M_alt    "P 1"
_space_group_IT_number       1

loop_
  _space_group_symop_operation_xyz
  'x, y, z'

loop_
  _atom_site_type_symbol
  _atom_site_label
  _atom_site_symmetry_multiplicity
  _atom_site_fract_x
  _atom_site_fract_y
  _atom_site_fract_z
  _atom_site_occupancy
  Tm  Tm1       1.0  0.1685129813024417  0.7338244634363136  0.9344410231712316  1.0000
  Tm  Tm2       1.0  0.8315333041913747  0.2661780765086873  0.06554753344569518  1.0000
  H   H1        1.0  0.440812024403833  0.7414634647294704  0.5051917456620245  1.0000
  H   H2        1.0  0.5591892919168516  0.2585514750015818  0.49480118253205047  1.0000
  H   H3        1.0  0.03090310685556119  0.1290870884294435  0.6303625919715472  1.0000
  H   H4        1.0  0.9690676275495204  0.8709072966109873  0.36965279180391514  1.0000
  H   H5        1.0  0.31153097528644474  0.0641257794804346  0.24522152053524593  1.0000
  H   H6        1.0  0.6884456240131911  0.9359077107504208  0.7547899961728034  1.0000
  H   H7        1.0  0.2320420596514268  0.3006576206924763  0.5566710367139223  1.0000
  H   H8        1.0  0.7679347785458501  0.6993619825974591  0.44333849910186973  1.0000
  H   H9        1.0  0.33741191780349317  0.4974132783728251  0.5336430036731343  1.0000
  H   H10       1.0  0.6625774714659232  0.5026006791605298  0.46636518046952347  1.0000
  H   H11       1.0  0.2951738489687656  0.6415804644484878  0.3480181802373679  1.0000
  H   H12       1.0  0.7048589537266067  0.3584160406945784  0.6519770422586433  1.0000
  H   H13       1.0  0.7063089944887295  0.5998912249937619  0.23811350062854333  1.0000
  H   H14       1.0  0.29365552870240214  0.40013308673217557  0.7619001312925491  1.0000
  H   H15       1.0  0.7975097109687396  0.8383358757944989  0.09305196783385133  1.0000
  H   H16       1.0  0.20255486122793095  0.1616541833645471  0.9069521055805012  1.0000
  H   H17       1.0  0.9080594106114434  0.9292787562770498  0.1336211277457338  1.0000
  H   H18       1.0  0.09196724858178837  0.07073910624585981  0.8663864292859955  1.0000
  H   H19       1.0  0.25475054140645165  0.9725957840147501  0.9800023969876789  1.0000
  H   H20       1.0  0.7452732863491889  0.027412395446980004  0.020006983757440405  1.0000
  H   H21       1.0  0.4004406108182438  0.8539195398432328  0.03880900653990687  1.0000
  H   H22       1.0  0.5996098105683175  0.1460697530002761  0.9611715690578463  1.0000
  H   H23       1.0  0.5224481674784585  0.5968950999332135  0.810117658314141  1.0000
  H   H24       1.0  0.47742797141592064  0.4028331372593499  0.1896999823669389  1.0000
  H   H25       1.0  0.5079586676174656  0.47951220423836827  0.8979717051505318  1.0000
  H   H26       1.0  0.491961951711744  0.5204576396602363  0.10219060018035718  1.0000
  C   C1        1.0  0.5309745934551772  0.7987213013270135  0.2605509361972693  1.0000
  C   C2        1.0  0.46901873986995934  0.20130622197030593  0.7394550600027116  1.0000
  C   C3        1.0  0.3946232781183454  0.8914936649168012  0.3632000142433682  1.0000
  C   C4        1.0  0.605368935094738  0.10852777367249192  0.6367964837585518  1.0000
  C   C5        1.0  0.36618300124573727  0.8449685470059691  0.4844526796507792  1.0000
  C   C6        1.0  0.6338096840993189  0.15505101694217424  0.5155493072154655  1.0000
  C   C7        1.0  0.23977908132558678  0.9299395736069509  0.581574215625281  1.0000
  C   C8        1.0  0.7602130215391512  0.07006814391205302  0.41842669346564787  1.0000
  C   C9        1.0  0.1363353898939295  0.0629721703085977  0.5570500380070484  1.0000
  C   C10       1.0  0.8636385460840965  0.937034752769172  0.4429596823680413  1.0000
  C   C11       1.0  0.16506438617478375  0.10854982807963862  0.43594895152347146  1.0000
  C   C12       1.0  0.8349134386847936  0.891463800226951  0.5640607864534459  1.0000
  C   C13       1.0  0.29430679258579323  0.025352628266482196  0.33876650512919326  1.0000
  C   C14       1.0  0.7056691453383194  0.9746720837736331  0.6612483123781914  1.0000
  C   C15       1.0  0.21423219526130308  0.8729269189644242  0.7084572680293917  1.0000
  C   C16       1.0  0.7857722017202136  0.12707306927178047  0.2915369926619675  1.0000
  C   C17       1.0  0.12237574253584436  0.3392133926794187  0.3911634223688552  1.0000
  C   C18       1.0  0.8776064068404071  0.6608059087522021  0.6088454250813271  1.0000
  C   C19       1.0  0.2121870084555795  0.3652843266229624  0.4775344123135952  1.0000
  C   C20       1.0  0.7878049001219052  0.6347303699102013  0.5224688569337346  1.0000
  C   C21       1.0  0.2717212261088803  0.4754470513695495  0.46387283066427176  1.0000
  C   C22       1.0  0.7282766154564088  0.5245653975767368  0.5361324996612211  1.0000
  C   C23       1.0  0.24493732695243148  0.5574339247166337  0.3622700589540528  1.0000
  C   C24       1.0  0.7550783194777466  0.4425703983053211  0.637724282045525  1.0000
  C   C25       1.0  0.15612773442912004  0.5306976357044347  0.2744395999938263  1.0000
  C   C26       1.0  0.8438791603514842  0.46930833807941497  0.7255630736639986  1.0000
  C   C27       1.0  0.09046768568973816  0.4220310684206579  0.28924872418959774  1.0000
  C   C28       1.0  0.9095128000412132  0.5779892931877271  0.7107593772001832  1.0000
  C   C29       1.0  0.9962132458552022  0.38438881559416416  0.1997612960661215  1.0000
  C   C30       1.0  0.0037668541329055026  0.6156325544222054  0.8002468003120385  1.0000
  C   C31       1.0  0.15599308533352035  0.607016997407051  0.1572152307768349  1.0000
  C   C32       1.0  0.8440487892544936  0.3929807356460844  0.8427687325141235  1.0000
  O   O1        1.0  0.5684649705851044  0.8356534589470287  0.15228449976762448  1.0000
  O   O2        1.0  0.4315620662374185  0.16436946055728904  0.84772908000447  1.0000
  O   O3        1.0  0.6083478114428759  0.6755665594678746  0.2987745310500642  1.0000
  O   O4        1.0  0.3916332044258795  0.3244458384141566  0.7012321283351142  1.0000
  O   O5        1.0  0.3173382194077519  0.7532072804130365  0.7256730175943815  1.0000
  O   O6        1.0  0.6826403438919257  0.24678395659996263  0.2743097279323834  1.0000
  O   O7        1.0  0.08726316407037872  0.9423718053435837  0.7984734188185739  1.0000
  O   O8        1.0  0.9127740831959913  0.05764161377433649  0.20153751932070915  1.0000
  O   O9        1.0  0.05039483015174542  0.23589194429709437  0.4086253896994307  1.0000
  O   O10       1.0  0.9495818084763957  0.7641277537760586  0.5913877986770828  1.0000
  O   O11       1.0  0.8295756117323734  0.45446435268699054  0.19218135216676296  1.0000
  O   O12       1.0  0.17040254369587873  0.5455414066764704  0.8078305963662799  1.0000
  O   O13       1.0  0.08053866438638833  0.2723242381051278  0.1399397801140125  1.0000
  O   O14       1.0  0.9194759560529775  0.7276998520578744  0.8600526870559762  1.0000
  O   O15       1.0  0.07801712637287044  0.5850007670303228  0.0749766956701521  1.0000
  O   O16       1.0  0.9219187986477738  0.4150621080488435  0.9250576476788621  1.0000
  O   O17       1.0  0.2455551341076827  0.6893492043625286  0.1371766796905902  1.0000
  O   O18       1.0  0.7546544033337598  0.3105297562528905  0.8627598704716064  1.0000
  O   O19       1.0  0.8991103206657981  0.8743824493610576  0.06428474823087528  1.0000
  O   O20       1.0  0.10094540009674093  0.12560930795149972  0.935729484122085  1.0000
  O   O21       1.0  0.32451927497066907  0.874025977712513  0.9756476820498392  1.0000
  O   O22       1.0  0.675490597854548  0.12597804158843223  0.024362875710046725  1.0000
  O   O23       1.0  0.46983134711126695  0.578420796817639  0.8949461274067261  1.0000
  O   O24       1.0  0.530148906033176  0.4215263816665101  0.10497167052594851  1.0000
