data_image0
_chemical_formula_structural       Hg4H22C11N2Cl8O4
_chemical_formula_sum              "Hg4 H22 C11 N2 Cl8 O4"
_cell_length_a       7.820512664658383
_cell_length_b       10.288079294800305
_cell_length_c       10.537623753702174
_cell_angle_alpha    115.80201645301125
_cell_angle_beta     89.99377539884321
_cell_angle_gamma    112.34217597782533

_space_group_name_H-M_alt    "P 1"
_space_group_IT_number       1

loop_
  _space_group_symop_operation_xyz
  'x, y, z'

loop_
  _atom_site_type_symbol
  _atom_site_label
  _atom_site_symmetry_multiplicity
  _atom_site_fract_x
  _atom_site_fract_y
  _atom_site_fract_z
  _atom_site_occupancy
  Hg  Hg1       1.0  0.10658638283631927  0.487313691184113  0.8639061287001581  1.0000
  Hg  Hg2       1.0  0.6196004459939177  0.5126545631823448  0.13605518862389232  1.0000
  Hg  Hg3       1.0  0.2442182959103932  0.8205264392439776  0.27963350701092793  1.0000
  Hg  Hg4       1.0  0.42347936032778216  0.17926912518755958  0.7203355422052982  1.0000
  H   H1        1.0  0.060985571758898675  0.9892319662242175  0.7785778376062994  1.0000
  H   H2        1.0  0.07190350320050241  0.010825129919972204  0.2214003649165477  1.0000
  H   H3        1.0  0.9601891592158508  0.9027311547698958  0.5954210731910194  1.0000
  H   H4        1.0  0.05757185004202371  0.09732137572466121  0.40453564739663517  1.0000
  H   H5        1.0  0.9195004013185724  0.7475382617111208  0.782958381740592  1.0000
  H   H6        1.0  0.17202513223767116  0.25255426086947363  0.216989428536465  1.0000
  H   H7        1.0  0.6721513082813929  0.6226856069877444  0.7082599700550392  1.0000
  H   H8        1.0  0.04940588321948531  0.37732965826006665  0.2916585995209076  1.0000
  H   H9        1.0  0.8335128193071099  0.6606402914015846  0.5945188408726878  1.0000
  H   H10       1.0  0.17292489906513714  0.33950584829335645  0.4054405498673859  1.0000
  H   H11       1.0  0.6326567430475478  0.7384813820854248  0.5052676501882943  1.0000
  H   H12       1.0  0.8944276447874061  0.2615251165657072  0.4947987667593808  1.0000
  H   H13       1.0  0.47686666349164875  0.7154622448492776  0.6266999533328744  1.0000
  H   H14       1.0  0.7615425969550033  0.28458071241895777  0.37346710519552323  1.0000
  H   H15       1.0  0.5834213933510315  0.9031173646768595  0.6250491891668234  1.0000
  H   H16       1.0  0.6805310272869889  0.09692318488922072  0.3750788457705454  1.0000
  H   H17       1.0  0.59062538061513  0.8301382371505498  0.870369492809438  1.0000
  H   H18       1.0  0.7603811785009996  0.16987366846566945  0.12975070899980076  1.0000
  H   H19       1.0  0.6734942722897088  0.016151177548174203  0.8687706491209826  1.0000
  H   H20       1.0  0.6574722937216323  0.9838036804566671  0.13123532347792385  1.0000
  H   H21       1.0  0.9985670482997336  0.091562946452477  0.9958606982707182  1.0000
  H   H22       1.0  0.9073558731112713  0.9087917156136243  0.004136534112916395  1.0000
  C   C1        1.0  0.9478753559836975  0.1265937846854541  0.7302192584194956  1.0000
  C   C2        1.0  0.8214828099093268  0.873431923424697  0.2698001429618274  1.0000
  C   C3        1.0  0.9412639271096241  0.9664563340387038  0.7054067580085718  1.0000
  C   C4        1.0  0.9749261585194374  0.033584935432962496  0.2945564589936538  1.0000
  C   C5        1.0  0.8005091720327046  0.710660896152085  0.701476806934352  1.0000
  C   C6        1.0  0.08990172192578436  0.2894291767245108  0.2984778750828597  1.0000
  C   C7        1.0  0.6019169374717919  0.7982816738311557  0.6111877541081726  1.0000
  C   C8        1.0  0.8038534987817272  0.2017817808493803  0.38891584169358856  1.0000
  C   C9        1.0  0.7155505883128727  0.9262321752633371  0.8693515024038093  1.0000
  C   C10       1.0  0.7893808025308502  0.0738439300803151  0.13070225524309362  1.0000
  C   C11       1.0  0.8706429041709355  0.00014163405788280003  2.8019995141900027e-05  1.0000
  N   N1        1.0  0.7663956618188196  0.8524159634923835  0.7238044001949434  1.0000
  N   N2        1.0  0.9140851228572018  0.1476310479335083  0.2762008489545238  1.0000
  Cl  Cl1       1.0  0.08184843666033  0.4673948828523535  0.07957616540095099  1.0000
  Cl  Cl2       1.0  0.6146148475417517  0.5323704809219552  0.9202936848590257  1.0000
  Cl  Cl3       1.0  0.1518711513800995  0.5704651774747945  0.6874596394015812  1.0000
  Cl  Cl4       1.0  0.58150003238228  0.42945073721992344  0.31247661037262026  1.0000
  Cl  Cl5       1.0  0.28313167415665685  0.8767767385007377  0.08534820899933494  1.0000
  Cl  Cl6       1.0  0.40605491031220714  0.12298927103554294  0.9146028631878453  1.0000
  Cl  Cl7       1.0  0.21866562542913212  0.7829982093414571  0.4836371470684213  1.0000
  Cl  Cl8       1.0  0.4354069715434648  0.21653267998392076  0.516208211583006  1.0000
  O   O1        1.0  0.11281312839384583  0.22095320801375354  0.7309176708197498  1.0000
  O   O2        1.0  0.892169747615185  0.7791168235424737  0.2690241111193572  1.0000
  O   O3        1.0  0.807765689219103  0.15876609946624853  0.74785706554583  1.0000
  O   O4        1.0  0.6491792978142287  0.8411774878560154  0.25230246419758373  1.0000
