data_image0
_chemical_formula_structural       Zn8H60C96O44
_chemical_formula_sum              "Zn8 H60 C96 O44"
_cell_length_a       12.455199817434115
_cell_length_b       15.128585351760995
_cell_length_c       26.120302395447684
_cell_angle_alpha    90.29524221389201
_cell_angle_beta     78.12696150453779
_cell_angle_gamma    90.01943914514322

_space_group_name_H-M_alt    "P 1"
_space_group_IT_number       1

loop_
  _space_group_symop_operation_xyz
  'x, y, z'

loop_
  _atom_site_type_symbol
  _atom_site_label
  _atom_site_symmetry_multiplicity
  _atom_site_fract_x
  _atom_site_fract_y
  _atom_site_fract_z
  _atom_site_occupancy
  Zn  Zn1       1.0  0.1488806182399358  0.9907704452675503  0.8691376875991711  1.0000
  Zn  Zn2       1.0  0.0398115907909613  0.8541332796020455  0.7909043096842157  1.0000
  Zn  Zn3       1.0  0.8644824763641168  0.041892778420773914  0.1470254840927297  1.0000
  Zn  Zn4       1.0  0.3696295751590455  0.4874697372551395  0.6449908006805958  1.0000
  Zn  Zn5       1.0  0.47801593284061283  0.36068435783906944  0.7211350652402474  1.0000
  Zn  Zn6       1.0  0.9559156612046138  0.18871072186202303  0.23847912063906318  1.0000
  Zn  Zn7       1.0  0.6568653863274677  0.5383371714982135  0.3663877603003912  1.0000
  Zn  Zn8       1.0  0.5437365781089767  0.6711102604300053  0.29227089711191223  1.0000
  H   H1        1.0  0.7901824908068633  0.7534339091486897  0.9013969697490227  1.0000
  H   H2        1.0  0.9192112918908325  0.9402807999842863  0.9975107295907792  1.0000
  H   H3        1.0  0.63515913429017  0.7858372882036236  0.06415336679292952  1.0000
  H   H4        1.0  0.5834731962874217  0.7690257263583432  0.9081468352195403  1.0000
  H   H5        1.0  0.7206013098285597  0.6411357157258807  0.05023028088164239  1.0000
  H   H6        1.0  0.6813428848341874  0.5071774044274376  0.10190293763152172  1.0000
  H   H7        1.0  0.3664619788725788  0.7901845756915051  0.8998164527309387  1.0000
  H   H8        1.0  0.5030717794723927  0.542501493951427  0.8339256974966819  1.0000
  H   H9        1.0  0.31049537406347844  0.7015728536445209  0.7507339429735327  1.0000
  H   H10       1.0  0.3345490544588047  0.5253309536496572  0.9115747138858982  1.0000
  H   H11       1.0  0.2916930374746656  0.3925526899136429  0.9650326707768005  1.0000
  H   H12       1.0  0.4308502309834736  0.26473556007601223  0.10686473845849784  1.0000
  H   H13       1.0  0.6482343902634115  0.24138477947125375  0.11382576651215716  1.0000
  H   H14       1.0  0.5171163249849684  0.4917453447849169  0.17786692019033276  1.0000
  H   H15       1.0  0.22547486686824675  0.2798942917123028  0.11593290381473051  1.0000
  H   H16       1.0  0.3778872659520759  0.24478398477366173  0.9536419427694087  1.0000
  H   H17       1.0  0.7057410568204434  0.33142681406975777  0.2624093861273878  1.0000
  H   H18       1.0  0.09550863335024222  0.08964336928202239  0.02160307077875961  1.0000
  H   H19       1.0  0.7435390869539376  0.2614633151529517  0.6110046008562195  1.0000
  H   H20       1.0  0.6109783369070031  0.43754179777831576  0.5105445681869372  1.0000
  H   H21       1.0  0.8819424939447202  0.2679803663458883  0.44575531827320003  1.0000
  H   H22       1.0  0.9404161722906821  0.26365680693037064  0.6038521986558154  1.0000
  H   H23       1.0  0.7930356292202775  0.131022200251671  0.46534017813163353  1.0000
  H   H24       1.0  0.8330545964571031  0.9976466133182953  0.4121389787358752  1.0000
  H   H25       1.0  0.15518888771453732  0.2838110960049534  0.6125769233570681  1.0000
  H   H26       1.0  0.018387112113444508  0.03686803908099989  0.677514406909012  1.0000
  H   H27       1.0  0.22082821791610746  0.19095574085567074  0.7588215011905677  1.0000
  H   H28       1.0  0.18768516037724234  0.018874347226578398  0.5990844566243398  1.0000
  H   H29       1.0  0.22841455318228296  0.8853481377849945  0.5452671894123571  1.0000
  H   H30       1.0  0.0907044441296279  0.7587032019465311  0.4024260670773217  1.0000
  H   H31       1.0  0.8734582950504547  0.73635490076083  0.3940385985550067  1.0000
  H   H32       1.0  0.0028601613615251006  0.9884776091541666  0.3340576300231677  1.0000
  H   H33       1.0  0.30208455584956795  0.7727275467586381  0.39898359675717654  1.0000
  H   H34       1.0  0.12751176736332331  0.7371960930244087  0.557659151301401  1.0000
  H   H35       1.0  0.8047407291823134  0.8358508284843468  0.24997874456548183  1.0000
  H   H36       1.0  0.42184794992989794  0.5882955920199462  0.4989745108069388  1.0000
  H   H37       1.0  0.8685424231792355  0.9212032705651367  0.7532013202852499  1.0000
  H   H38       1.0  0.051129620966158015  0.7627553069940376  0.7044165664305385  1.0000
  H   H39       1.0  0.10076114393802979  0.8338756760565927  0.6326491517678792  1.0000
  H   H40       1.0  0.8472032977132147  0.8199140656291987  0.7508022733915285  1.0000
  H   H41       1.0  0.10424714253681341  0.7105762686305042  0.7459333768573659  1.0000
  H   H42       1.0  0.12527902461002333  0.7293899410207558  0.6338837609874236  1.0000
  H   H43       1.0  0.3593892429758512  0.6913709893821148  0.25573343627053197  1.0000
  H   H44       1.0  0.5239622923259972  0.8187733362929778  0.2453197567323714  1.0000
  H   H45       1.0  0.7036287069324915  0.7836743545820968  0.14787987965001298  1.0000
  H   H46       1.0  0.35453908503528453  0.5933070817490744  0.2719923041405466  1.0000
  H   H47       1.0  0.5875174360449906  0.7449117423732617  0.20420167360357067  1.0000
  H   H48       1.0  0.7387413428253142  0.71520607425181  0.18833523428585866  1.0000
  H   H49       1.0  0.1195325374900733  0.11492903398349338  0.2586270832295981  1.0000
  H   H50       1.0  0.008697523827166301  0.3287734862712597  0.18729331759611514  1.0000
  H   H51       1.0  0.9909290743104363  0.23917229947704038  0.3274475078921102  1.0000
  H   H52       1.0  0.1714895792071545  0.19389715804310728  0.22416541584498628  1.0000
  H   H53       1.0  0.9146928566974638  0.36844775287032416  0.23103175073904245  1.0000
  H   H54       1.0  0.8677126642665699  0.2686745956704685  0.33934318667422064  1.0000
  H   H55       1.0  0.6174608393546779  0.2798515220036747  0.7592568129267651  1.0000
  H   H56       1.0  0.384619161168935  0.22902160976779126  0.8736215012399601  1.0000
  H   H57       1.0  0.7894379531472921  0.3555878754526561  0.7278620100174822  1.0000
  H   H58       1.0  0.5017743894537788  0.27545464050161433  0.8047996583728152  1.0000
  H   H59       1.0  0.4108347348205755  0.3324845835191681  0.8760701749047046  1.0000
  H   H60       1.0  0.7129993750637028  0.3310147077642398  0.6892793402691384  1.0000
  C   C1        1.0  0.9504741627133056  0.8732971817714983  0.8991824031688299  1.0000
  C   C2        1.0  0.8630565478245131  0.8489963590769277  0.9449699877917158  1.0000
  C   C3        1.0  0.7849549560882921  0.7852558392334003  0.9393549918449867  1.0000
  C   C4        1.0  0.8590818965538461  0.8900506555450819  0.9932591740474097  1.0000
  C   C5        1.0  0.7015395947497752  0.7619206456373108  0.9818005336828012  1.0000
  C   C6        1.0  0.7781760065579706  0.8658619988225666  0.03640822956447211  1.0000
  C   C7        1.0  0.6189076355970401  0.6960227847600821  0.9730740488492207  1.0000
  C   C8        1.0  0.6995397663226655  0.8024080355201803  0.03054627150660853  1.0000
  C   C9        1.0  0.7775248214687667  0.9092534385841018  0.08833261451720631  1.0000
  C   C10       1.0  0.5981252183308855  0.6175856660408244  0.002970471345726409  1.0000
  C   C11       1.0  0.5652718826819055  0.7093447226069713  0.9316351158603741  1.0000
  C   C12       1.0  0.5196012052204323  0.5551912931635102  0.9914282121274528  1.0000
  C   C13       1.0  0.6566573039846446  0.5965406658540146  0.04301584949229212  1.0000
  C   C14       1.0  0.49078402582674135  0.6484298708942616  0.9186704415808653  1.0000
  C   C15       1.0  0.4648244976831819  0.5712001789452757  0.9493025223069299  1.0000
  C   C16       1.0  0.6345434519819195  0.521537026114636  0.07200922987898653  1.0000
  C   C17       1.0  0.44177134597218537  0.6646764708203889  0.872455196991773  1.0000
  C   C18       1.0  0.38051667555099306  0.7411161754520775  0.8684319157388035  1.0000
  C   C19       1.0  0.4556860121561855  0.6023695821539475  0.8317576106553235  1.0000
  C   C20       1.0  0.3322613783715553  0.7540175252443789  0.8250710428564363  1.0000
  C   C21       1.0  0.40934031969303675  0.615538233482745  0.7878822031883106  1.0000
  C   C22       1.0  0.2568374457468607  0.8308104741708461  0.8239161439324011  1.0000
  C   C23       1.0  0.34745616140327235  0.6915455823022186  0.7845631807671157  1.0000
  C   C24       1.0  0.4219323092821698  0.5455038680482006  0.7465791875593626  1.0000
  C   C25       1.0  0.49611563032262057  0.4765367767387687  0.021936419788289602  1.0000
  C   C26       1.0  0.3817445298774587  0.5102565142946532  0.9412541465919306  1.0000
  C   C27       1.0  0.551805561762187  0.46066119274023265  0.06376005927781853  1.0000
  C   C28       1.0  0.4162318213637874  0.4146128364121893  0.011205361194825516  1.0000
  C   C29       1.0  0.35802568778286314  0.4359227414229706  0.9709840087399046  1.0000
  C   C30       1.0  0.5256187000890408  0.38399047737163267  0.09469790671139584  1.0000
  C   C31       1.0  0.39391205210718994  0.3373622167302487  0.04219020032424942  1.0000
  C   C32       1.0  0.5754516471837335  0.3679390749852658  0.14049305288108374  1.0000
  C   C33       1.0  0.44916266957388024  0.32397851252977716  0.08298710080513423  1.0000
  C   C34       1.0  0.31058287613489455  0.27109266769681273  0.035153144932294815  1.0000
  C   C35       1.0  0.6352225601870174  0.29097337553628927  0.14491550443869278  1.0000
  C   C36       1.0  0.5628091142298289  0.4311859625180787  0.18066451631280245  1.0000
  C   C37       1.0  0.22925824048507346  0.24699770260076548  0.07836175886284741  1.0000
  C   C38       1.0  0.3127079327140266  0.22896150784049493  0.9870019871900839  1.0000
  C   C39       1.0  0.6828712449255933  0.27821750760718794  0.1884976160309862  1.0000
  C   C40       1.0  0.6094240464520696  0.418149511556848  0.22429110791210866  1.0000
  C   C41       1.0  0.1524328726123301  0.1814480536835958  0.07390690593692993  1.0000
  C   C42       1.0  0.23475923495040973  0.16475675695329534  0.9816256476633644  1.0000
  C   C43       1.0  0.7546564971714886  0.2001184113069741  0.19122131056858657  1.0000
  C   C44       1.0  0.6695227588548178  0.34151286539045606  0.22833555625155108  1.0000
  C   C45       1.0  0.5994962103990958  0.4874069187753278  0.26555466179314646  1.0000
  C   C46       1.0  0.06653398797175922  0.15501408737527103  0.12039328615095003  1.0000
  C   C47       1.0  0.15532708128023393  0.1404055352431612  0.025402398763731106  1.0000
  C   C48       1.0  0.23620224521348385  0.12225794512598041  0.9289992272219936  1.0000
  C   C49       1.0  0.5854014138324786  0.3838773961525348  0.6119903986230215  1.0000
  C   C50       1.0  0.6693903186481621  0.3538441807669415  0.5658887768366443  1.0000
  C   C51       1.0  0.7458505678481516  0.2892837366098959  0.5724210784747472  1.0000
  C   C52       1.0  0.6700570920829634  0.387289399846658  0.5159276017350012  1.0000
  C   C53       1.0  0.8232557286947966  0.25730440910218993  0.5297099953454565  1.0000
  C   C54       1.0  0.7465191208886993  0.3557347365248943  0.47264133980673523  1.0000
  C   C55       1.0  0.902721333695368  0.18978427581105  0.5392063915217662  1.0000
  C   C56       1.0  0.8222941447209421  0.29107094603586586  0.479763337777243  1.0000
  C   C57       1.0  0.7472618749637051  0.3921920340473548  0.4186727856546711  1.0000
  C   C58       1.0  0.9208483660580172  0.11021021404866363  0.5097845757431615  1.0000
  C   C59       1.0  0.9572010679584013  0.20340555982406272  0.580409704951869  1.0000
  C   C60       1.0  0.9996668124144608  0.0479553255975986  0.5207489108856934  1.0000
  C   C61       1.0  0.8596039763362314  0.08781691220949031  0.4708509424978546  1.0000
  C   C62       1.0  0.0306959537301807  0.1419841552110697  0.5933476708655407  1.0000
  C   C63       1.0  0.055656082294341006  0.0643234003483997  0.5625145646287566  1.0000
  C   C64       1.0  0.8818220824758854  0.0130305504549568  0.4411770751833474  1.0000
  C   C65       1.0  0.0806654737815862  0.15826513538521428  0.6393389581530827  1.0000
  C   C66       1.0  0.14243274562046082  0.23445032369529883  0.643508814433524  1.0000
  C   C67       1.0  0.06704910078064333  0.09608283288275028  0.6797648911435206  1.0000
  C   C68       1.0  0.19341120171552723  0.2458363966923329  0.6862018174683232  1.0000
  C   C69       1.0  0.11526710286268842  0.1083043159992982  0.7231545137217951  1.0000
  C   C70       1.0  0.2700050813876942  0.3214234638320832  0.6873352526537462  1.0000
  C   C71       1.0  0.18000852972890158  0.18284339692191756  0.72604440138894  1.0000
  C   C72       1.0  0.10124650104454254  0.03991358011502649  0.7652003060626813  1.0000
  C   C73       1.0  0.022547154537171803  0.9692650216362609  0.4898103314553951  1.0000
  C   C74       1.0  0.13902400685895341  0.0033668666578989996  0.5699722727114535  1.0000
  C   C75       1.0  0.9668898584988599  0.9533697347921972  0.44790948708956796  1.0000
  C   C76       1.0  0.10216965439212092  0.9072614491859666  0.5001486786764248  1.0000
  C   C77       1.0  0.16154844834921533  0.9286416007117141  0.5400499024374954  1.0000
  C   C78       1.0  0.994832933040371  0.8777820819457675  0.4156582518408528  1.0000
  C   C79       1.0  0.1238137071649774  0.8297357269833868  0.4689648324079486  1.0000
  C   C80       1.0  0.9453080324506333  0.8635628559125264  0.36939916286277014  1.0000
  C   C81       1.0  0.07095468158422591  0.81726912508865  0.4271493196897468  1.0000
  C   C82       1.0  0.20551573254327593  0.7635050515406833  0.4778239044925885  1.0000
  C   C83       1.0  0.8850441840579466  0.7872166500789034  0.3639961642914359  1.0000
  C   C84       1.0  0.9566608039927832  0.9283987958321803  0.3304442724668137  1.0000
  C   C85       1.0  0.2930618269360822  0.7412234968417977  0.43704259624383485  1.0000
  C   C86       1.0  0.19745096652226124  0.721971163539969  0.5263747120249748  1.0000
  C   C87       1.0  0.8340611033038313  0.7769870675820697  0.3211651279162313  1.0000
  C   C88       1.0  0.9078731852293417  0.9178796095117576  0.28719308233938534  1.0000
  C   C89       1.0  0.37021497189633834  0.6780418878443368  0.44463741226079645  1.0000
  C   C90       1.0  0.27585151240481315  0.6602993870273364  0.5346487592702475  1.0000
  C   C91       1.0  0.7602304078252899  0.6997879057679625  0.3189356760962527  1.0000
  C   C92       1.0  0.8456040538572511  0.8422847673491134  0.28282882841858753  1.0000
  C   C93       1.0  0.9171698192793087  0.9888175534044238  0.2468747378831609  1.0000
  C   C94       1.0  0.4611023199945451  0.654128192992488  0.4003334430519205  1.0000
  C   C95       1.0  0.36165677814007324  0.6373362047092713  0.4931758033011634  1.0000
  C   C96       1.0  0.27041269875525853  0.6192695820936861  0.5875453241899324  1.0000
  O   O1        1.0  0.9988037049401371  0.9468039737817833  0.9009705671616575  1.0000
  O   O2        1.0  0.9693470754508767  0.8179825413671649  0.8610711226711205  1.0000
  O   O3        1.0  0.7191704911888408  0.8797838147586815  0.13005520860875217  1.0000
  O   O4        1.0  0.8405339698763329  0.9770666272726488  0.08624368023316013  1.0000
  O   O5        1.0  0.2500234932848501  0.8883960237142716  0.8603426147444398  1.0000
  O   O6        1.0  0.20312606698199437  0.8318439522969355  0.7873967547659435  1.0000
  O   O7        1.0  0.3777432654786139  0.558788897804284  0.7073811056938555  1.0000
  O   O8        1.0  0.4752303351212745  0.476485790392985  0.7545497142075848  1.0000
  O   O9        1.0  0.040597956399224706  0.7466204937896492  0.7435944098568188  1.0000
  O   O10       1.0  0.06818268350686912  0.7779311954380789  0.646059549487525  1.0000
  O   O11       1.0  0.8608789810314621  0.867354427018398  0.773960444546866  1.0000
  O   O12       1.0  0.16767692863641065  0.05796420746109731  0.9300654204378918  1.0000
  O   O13       1.0  0.1460107487817552  0.0549625181310489  0.8038146831613492  1.0000
  O   O14       1.0  0.04516623297844549  0.9714607242949782  0.758239769588684  1.0000
  O   O15       1.0  0.7651943968510013  0.14446612313899007  0.15378027430018193  1.0000
  O   O16       1.0  0.8012335817832579  0.19577543461316074  0.23027813803177122  1.0000
  O   O17       1.0  0.6554066516045652  0.4761664408784155  0.30050094590502147  1.0000
  O   O18       1.0  0.5365991003485676  0.5531604047459665  0.262064201814539  1.0000
  O   O19       1.0  0.013132471732639305  0.08534716316706438  0.11538642904830713  1.0000
  O   O20       1.0  0.05314958110188431  0.2036038297234128  0.16178177279935824  1.0000
  O   O21       1.0  0.2992046834404647  0.1495010500154237  0.8882635166469018  1.0000
  O   O22       1.0  0.863107848771037  0.9760452949116357  0.2111078294134146  1.0000
  O   O23       1.0  0.9767330466100292  0.056082320785570516  0.2512593961630715  1.0000
  O   O24       1.0  0.12704172474098394  0.17948872905522958  0.2583772124597204  1.0000
  O   O25       1.0  0.9832474784197986  0.33534024030906545  0.2251841998925884  1.0000
  O   O26       1.0  0.9197542828435133  0.2236210948548845  0.3200976125509742  1.0000
  O   O27       1.0  0.5104411540002404  0.43547657889330776  0.6044322943439299  1.0000
  O   O28       1.0  0.5940803708455676  0.35360206824438484  0.6571935439484735  1.0000
  O   O29       1.0  0.7984028366557185  0.35424944538945624  0.3781944962128635  1.0000
  O   O30       1.0  0.6909928915268823  0.46435503169708164  0.4201836560118439  1.0000
  O   O31       1.0  0.2682474966736166  0.3852404061708512  0.6559241544580348  1.0000
  O   O32       1.0  0.33374006832897146  0.3145791970415175  0.7197193597909577  1.0000
  O   O33       1.0  0.5364052785582204  0.2756484913108252  0.7655876640670558  1.0000
  O   O34       1.0  0.4428715395280065  0.276225870089803  0.8627368786948326  1.0000
  O   O35       1.0  0.7472465393344482  0.30733951287297157  0.7172146677868627  1.0000
  O   O36       1.0  0.34015516809103735  0.5564076375633106  0.5876263442897101  1.0000
  O   O37       1.0  0.7527130709966344  0.643252952111382  0.35550783904511024  1.0000
  O   O38       1.0  0.7075809823726118  0.6966718930385412  0.2816643437967487  1.0000
  O   O39       1.0  0.5088841276012773  0.580362288898101  0.4022899142454508  1.0000
  O   O40       1.0  0.4834755852269482  0.7099755649026348  0.36277363163092974  1.0000
  O   O41       1.0  0.20359299122477387  0.6468083883489938  0.627311190785342  1.0000
  O   O42       1.0  0.34047924429320636  0.6528939634661414  0.286170155095789  1.0000
  O   O43       1.0  0.5192998142773676  0.756836910123653  0.23575701279469297  1.0000
  O   O44       1.0  0.6850999455944802  0.7240931371922982  0.1663540397488817  1.0000
