data_image0
_chemical_formula_structural       Cd8H104C120N8O40
_chemical_formula_sum              "Cd8 H104 C120 N8 O40"
_cell_length_a       18.092888033401845
_cell_length_b       18.09292211047061
_cell_length_c       18.09287007187475
_cell_angle_alpha    96.00370364121562
_cell_angle_beta     116.59645796611304
_cell_angle_gamma    116.5965227000177

_space_group_name_H-M_alt    "P 1"
_space_group_IT_number       1

loop_
  _space_group_symop_operation_xyz
  'x, y, z'

loop_
  _atom_site_type_symbol
  _atom_site_label
  _atom_site_symmetry_multiplicity
  _atom_site_fract_x
  _atom_site_fract_y
  _atom_site_fract_z
  _atom_site_occupancy
  Cd  Cd1       1.0  0.8365232947841436  0.1481818258382078  0.6716814782913687  1.0000
  Cd  Cd2       1.0  0.6634839482109812  0.8351617276324748  0.8116603889124077  1.0000
  Cd  Cd3       1.0  0.4764966440439054  0.8116600139254971  0.14818060144886394  1.0000
  Cd  Cd4       1.0  0.02350175883299963  0.6716817950871814  0.8351610999501131  1.0000
  Cd  Cd5       1.0  0.16347874434205079  0.8518178583735009  0.3283198164664397  1.0000
  Cd  Cd6       1.0  0.33651932313210864  0.1648411952466447  0.18833903348860298  1.0000
  Cd  Cd7       1.0  0.5235002326406715  0.1883398576067208  0.8518184024529133  1.0000
  Cd  Cd8       1.0  0.9764986304555451  0.3283169084918003  0.16483824814963552  1.0000
  H   H1        1.0  0.9599302530037832  0.07054766222599816  0.7158844385230692  1.0000
  H   H2        1.0  0.8578450952255707  0.0008690924272017733  0.6274672782107514  1.0000
  H   H3        1.0  0.6383308749349297  0.08380062505951007  0.6344358471597075  1.0000
  H   H4        1.0  0.5868561433645709  0.1046451520778931  0.6912593469921473  1.0000
  H   H5        1.0  0.6908258891880552  0.09675408098849676  0.7482567210807858  1.0000
  H   H6        1.0  0.9863248597050503  0.35749907299121747  0.7361320930703171  1.0000
  H   H7        1.0  0.9456869586770721  0.4225753371738678  0.6852737327778795  1.0000
  H   H8        1.0  0.882656710135599  0.3066955668095021  0.6231233932978167  1.0000
  H   H9        1.0  0.8899629837015935  0.4456302327393616  0.9768104459557132  1.0000
  H   H10       1.0  0.8861475942151532  0.5511129827290734  0.07052559221843789  1.0000
  H   H11       1.0  0.7767900822376533  0.6050543737076102  0.9997424975967276  1.0000
  H   H12       1.0  0.6742573450763417  0.5547490346109784  0.8339903382673625  1.0000
  H   H13       1.0  0.679168000340965  0.44906944521178355  0.7392888847330708  1.0000
  H   H14       1.0  0.5400829515850206  0.7559574134846018  0.6106207401997991  1.0000
  H   H15       1.0  0.6421697261014502  0.7696275540583741  0.6430297838675756  1.0000
  H   H16       1.0  0.8616682202872216  0.9961051859327061  0.945471073487745  1.0000
  H   H17       1.0  0.9131442056955592  0.1044030311915593  0.017790997617368066  1.0000
  H   H18       1.0  0.809175068647356  0.057431628671949515  0.9059294418275952  1.0000
  H   H19       1.0  0.5136739496783633  0.7498065355985946  0.8711740785678328  1.0000
  H   H20       1.0  0.5543128134262288  0.7395868808930859  0.9768890087081272  1.0000
  H   H21       1.0  0.6173437676046165  0.7404673540596038  0.9240396249506373  1.0000
  H   H22       1.0  0.6100385899342626  0.08684924676269656  0.05566883904215564  1.0000
  H   H23       1.0  0.6138558044155004  0.18438209244857273  0.1649664331036788  1.0000
  H   H24       1.0  0.7232109416669061  0.22295321322705783  0.32826506883468193  1.0000
  H   H25       1.0  0.8257405230536747  0.1597326500040241  0.38049237438156774  1.0000
  H   H26       1.0  0.8208293168496895  0.06011928363805912  0.2699027400525438  1.0000
  H   H27       1.0  0.3546654246730013  0.6106215650450153  0.07054101220938232  1.0000
  H   H28       1.0  0.3733991970305368  0.6430291255562467  0.0008608233054871986  1.0000
  H   H29       1.0  0.4493643070333705  0.945471069097714  0.08380217456988251  1.0000
  H   H30       1.0  0.4133846699399797  0.017789220640345684  0.10464556097154094  1.0000
  H   H31       1.0  0.34849709750528046  0.905928876791066  0.09675416406746953  1.0000
  H   H32       1.0  0.6213669438933709  0.8711746415114022  0.35749909004975666  1.0000
  H   H33       1.0  0.7373023532559417  0.9768895532281906  0.4225764668880387  1.0000
  H   H34       1.0  0.6835722036756097  0.9240403659032882  0.3066952709802067  1.0000
  H   H35       1.0  0.4688185487257782  0.05566839581651108  0.44562866221917813  1.0000
  H   H36       1.0  0.48058317271619433  0.16496498520579198  0.5511097234667516  1.0000
  H   H37       1.0  0.6053108415033818  0.3282637383160037  0.6050543547594102  1.0000
  H   H38       1.0  0.7207600769798432  0.3804925184160555  0.55475361301108  1.0000
  H   H39       1.0  0.7097844005611051  0.2699034693484492  0.44907446640664245  1.0000
  H   H40       1.0  0.14533811693477355  0.715880276470813  0.7559579491450987  1.0000
  H   H41       1.0  0.12659543587198385  0.62746178702902  0.7696228376520579  1.0000
  H   H42       1.0  0.05063399256378185  0.6344370300563825  0.9961047346801732  1.0000
  H   H43       1.0  0.08661385183187788  0.6912608879106942  0.10440427245044498  1.0000
  H   H44       1.0  0.1515023020828466  0.7482576181963267  0.05743049524252801  1.0000
  H   H45       1.0  0.8786334389773954  0.7361335071319531  0.7498083846433089  1.0000
  H   H46       1.0  0.7626965155178028  0.6852747343240111  0.7395864197754985  1.0000
  H   H47       1.0  0.8164255162148354  0.6231227705534866  0.7404657625918603  1.0000
  H   H48       1.0  0.031178937861021494  0.976807406977983  0.08684685456347549  1.0000
  H   H49       1.0  0.019415251649292007  0.0705269356265461  0.18437752649560216  1.0000
  H   H50       1.0  0.8946894878779545  0.9997447899669044  0.22295222657586328  1.0000
  H   H51       1.0  0.7792428689968459  0.8339945404626692  0.15973558457968545  1.0000
  H   H52       1.0  0.7902165534471096  0.7392885245152104  0.060122224451497105  1.0000
  H   H53       1.0  0.04007611745878849  0.9294543466116494  0.2841195912785678  1.0000
  H   H54       1.0  0.14216044825481314  0.9991334271151262  0.37253532962166946  1.0000
  H   H55       1.0  0.3616676598348791  0.9161962243017644  0.36556247646106493  1.0000
  H   H56       1.0  0.4131421825959621  0.8953528260606307  0.30873789615240815  1.0000
  H   H57       1.0  0.309171405110675  0.9032435339496133  0.25174112764859297  1.0000
  H   H58       1.0  0.013675734266044588  0.6425005038526026  0.26386743822529  1.0000
  H   H59       1.0  0.054312190142596306  0.5774241315017434  0.3147267984928915  1.0000
  H   H60       1.0  0.11734305685551048  0.6933045202588133  0.37687637409099745  1.0000
  H   H61       1.0  0.11004173692479208  0.5543707951454238  0.023192742562805794  1.0000
  H   H62       1.0  0.11385835862812153  0.44889128382313015  0.9294757239432837  1.0000
  H   H63       1.0  0.22321216157109805  0.39494618376894425  0.0002589803569392982  1.0000
  H   H64       1.0  0.32574139850201084  0.44524668613311746  0.16600851314215956  1.0000
  H   H65       1.0  0.32083157022031367  0.5509257646675608  0.2607119413331346  1.0000
  H   H66       1.0  0.459923414746406  0.24404659835551  0.3893790761966398  1.0000
  H   H67       1.0  0.35783788070326483  0.23037569172472422  0.35697216548268057  1.0000
  H   H68       1.0  0.13833257424263928  0.0038972655777982303  0.05452995447324577  1.0000
  H   H69       1.0  0.08685514780886212  0.8955973102687127  0.982211374911685  1.0000
  H   H70       1.0  0.19082572588323632  0.9425708226784906  0.0940721388208771  1.0000
  H   H71       1.0  0.4863229311300046  0.2501913345317845  0.12882361186441213  1.0000
  H   H72       1.0  0.44568550841051296  0.2604130986472698  0.02310954790596043  1.0000
  H   H73       1.0  0.38265599526123845  0.25953473473066424  0.07596035053276749  1.0000
  H   H74       1.0  0.3899570462814454  0.9131513898661654  0.9443313480306371  1.0000
  H   H75       1.0  0.38614478543328096  0.8156194854769583  0.8350355170364024  1.0000
  H   H76       1.0  0.27678903000822436  0.7770477467859679  0.6717359871249327  1.0000
  H   H77       1.0  0.17425759410051725  0.8402664562714862  0.6195059990366615  1.0000
  H   H78       1.0  0.17916797332304676  0.9398803331820744  0.7300947640839508  1.0000
  H   H79       1.0  0.6453316566934006  0.38937917991211196  0.929457622200779  1.0000
  H   H80       1.0  0.6266011922580078  0.3569695780227279  0.9991385247942686  1.0000
  H   H81       1.0  0.5506336013144804  0.054529165314789976  0.9161973291220132  1.0000
  H   H82       1.0  0.5866148882440569  0.9822119947250201  0.8953547840034728  1.0000
  H   H83       1.0  0.6515014290147504  0.09407197585407102  0.9032451284299511  1.0000
  H   H84       1.0  0.37863220492483407  0.12882482748433696  0.6425003358460655  1.0000
  H   H85       1.0  0.26269741373516803  0.02311053384012507  0.5774233005007757  1.0000
  H   H86       1.0  0.3164265316514872  0.07595935844479132  0.6933034439310147  1.0000
  H   H87       1.0  0.531181427073136  0.944330562794683  0.5543710802709113  1.0000
  H   H88       1.0  0.5194157714194533  0.835033610525109  0.44888951923321235  1.0000
  H   H89       1.0  0.3946889296144536  0.6717343467102171  0.39494630990977003  1.0000
  H   H90       1.0  0.2792396900127302  0.6195075683321252  0.4452472597526835  1.0000
  H   H91       1.0  0.2902149529389034  0.7300968730721992  0.5509245899975708  1.0000
  H   H92       1.0  0.8546624811630538  0.2841172983309194  0.24404247943086682  1.0000
  H   H93       1.0  0.8734037170751492  0.37253567944443955  0.23037914358654624  1.0000
  H   H94       1.0  0.9493674242657163  0.36556403748459604  0.0038975320541751214  1.0000
  H   H95       1.0  0.913386942697983  0.308741563599803  0.8955967555105458  1.0000
  H   H96       1.0  0.8484980830811677  0.25174308694454356  0.9425696136392785  1.0000
  H   H97       1.0  0.12136818253318896  0.26386843399399146  0.2501929599119563  1.0000
  H   H98       1.0  0.23730366083987792  0.3147270989538599  0.26041481937998157  1.0000
  H   H99       1.0  0.18357342379702152  0.3768778265792535  0.2595347935776359  1.0000
  H   H100      1.0  0.9688224872175224  0.0231896574391969  0.9131538906067572  1.0000
  H   H101      1.0  0.9805871968383288  0.929474495915166  0.8156213712165651  1.0000
  H   H102      1.0  0.1053113066474936  0.00025766250397652834  0.7770454852602952  1.0000
  H   H103      1.0  0.22075668506046509  0.16600867694478452  0.8402638631149697  1.0000
  H   H104      1.0  0.20978073672856826  0.26071109166467477  0.939877490434881  1.0000
  C   C1        1.0  0.9169424511140462  0.4949091021964165  0.7868549953723016  1.0000
  C   C2        1.0  0.6498028690065851  0.25245248229340683  0.8011975100432378  1.0000
  C   C3        1.0  0.7204677922870674  0.2820387080032064  0.7722419983491517  1.0000
  C   C4        1.0  0.7242872745525588  0.2189148101128283  0.7247169765261245  1.0000
  C   C5        1.0  0.6564020516233172  0.12086177735674417  0.6985246624338897  1.0000
  C   C6        1.0  0.8516505534718632  0.33296525294609586  0.7204325624019531  1.0000
  C   C7        1.0  0.9204406222738372  0.35653771154851943  0.6893826606932905  1.0000
  C   C8        1.0  0.8499842044797674  0.39832341659838044  0.7671636256396892  1.0000
  C   C9        1.0  0.7850774606613484  0.37334008846928424  0.7956715613896177  1.0000
  C   C10       1.0  0.7846975883221177  0.4400590267336358  0.851315506804681  1.0000
  C   C11       1.0  0.8424621782507559  0.46906235303387717  0.9448436958821986  1.0000
  C   C12       1.0  0.8393273510296455  0.5279996080983625  0.9979416088856395  1.0000
  C   C13       1.0  0.7781510250949354  0.5582421814728635  0.9581029122727357  1.0000
  C   C14       1.0  0.7207447564021195  0.5300042610351811  0.8649668101912267  1.0000
  C   C15       1.0  0.7240757984858276  0.47123981718738167  0.8118725893442967  1.0000
  C   C16       1.0  0.5830555443991515  0.8699121733687464  0.07796588679313034  1.0000
  C   C17       1.0  0.8501971429374182  0.15139524366722432  0.10265032370575272  1.0000
  C   C18       1.0  0.7795305226282848  0.05177404294673966  0.06157101243126556  1.0000
  C   C19       1.0  0.7757138624046791  0.0004300820511248568  0.9946283586465156  1.0000
  C   C20       1.0  0.8435983285847398  0.04212338651367285  0.9644607136869607  1.0000
  C   C21       1.0  0.6483486050301085  0.8687827911434173  0.9813149678617633  1.0000
  C   C22       1.0  0.5795595617532501  0.7689428573592425  0.9360980534161596  1.0000
  C   C23       1.0  0.6500133950409223  0.9171791847063633  0.04833951402014958  1.0000
  C   C24       1.0  0.7149167066653773  0.010593604110205608  0.0882587099900576  1.0000
  C   C25       1.0  0.715305107755924  0.06661906593469534  0.15536515177113588  1.0000
  C   C26       1.0  0.6575373783751745  0.10238123571255646  0.12659907658870406  1.0000
  C   C27       1.0  0.6606719723723699  0.15861487105262753  0.18867274666880707  1.0000
  C   C28       1.0  0.7218477527391871  0.17995203659683787  0.2800899069622673  1.0000
  C   C29       1.0  0.7792530390423805  0.14422247000946709  0.30926204997538054  1.0000
  C   C30       1.0  0.775922476094202  0.0877968846199481  0.2471651039896443  1.0000
  C   C31       1.0  0.7080555054778587  0.07796775448893827  0.49490998946152587  1.0000
  C   C32       1.0  0.4512548423471118  0.10265018563030288  0.25245350850693876  1.0000
  C   C33       1.0  0.5097964817267667  0.06157108127052181  0.28204021221173997  1.0000
  C   C34       1.0  0.49419753498599345  0.9946291023913294  0.21891424086684458  1.0000
  C   C35       1.0  0.42233612254531055  0.964460373635497  0.1208625846687781  1.0000
  C   C36       1.0  0.6125333418195568  0.9813165746426408  0.3329652292218411  1.0000
  C   C37       1.0  0.6671553907738286  0.9360983172540787  0.35653830227059996  1.0000
  C   C38       1.0  0.6311614199403266  0.04834102029448679  0.3983249709388943  1.0000
  C   C39       1.0  0.5776652936192619  0.08826068628994234  0.3733415525114481  1.0000
  C   C40       1.0  0.5887445999762376  0.15536562715253424  0.44005808234223315  1.0000
  C   C41       1.0  0.5242181477557182  0.12659884990195283  0.46906179674523674  1.0000
  C   C42       1.0  0.5300567709148893  0.18867198737977026  0.5280003755989638  1.0000
  C   C43       1.0  0.6001377767196132  0.2800889464093644  0.5582433556320225  1.0000
  C   C44       1.0  0.6650398081278015  0.3092625040830514  0.5300097350076172  1.0000
  C   C45       1.0  0.6593670385321886  0.24716594627240351  0.47124186324631967  1.0000
  C   C46       1.0  0.7919435980518587  0.7868523238954455  0.8699142468470668  1.0000
  C   C47       1.0  0.048750768631876454  0.8012028795189893  0.15139583771883738  1.0000
  C   C48       1.0  0.99020485182956  0.7722443174209845  0.05177475971084517  1.0000
  C   C49       1.0  0.005800393889252716  0.7247155938266021  0.00042985479924345  1.0000
  C   C50       1.0  0.07766331759058431  0.698526193154251  0.04212328740909036  1.0000
  C   C51       1.0  0.8874636811330208  0.7204303009049584  0.8687821078263197  1.0000
  C   C52       1.0  0.8328428623871529  0.6893819562165434  0.7689429545066272  1.0000
  C   C53       1.0  0.8688362518061512  0.7671620231513433  0.9171795731061533  1.0000
  C   C54       1.0  0.9223337509975877  0.7956755054064077  0.010595365207102265  1.0000
  C   C55       1.0  0.9112553382520406  0.8513126811034656  0.06662059155719655  1.0000
  C   C56       1.0  0.9757809231562788  0.9448445514154786  0.10238107110574657  1.0000
  C   C57       1.0  0.9699420667724399  0.9979423045022816  0.1586135226480891  1.0000
  C   C58       1.0  0.8998625787278486  0.9581058098318567  0.17995111125078003  1.0000
  C   C59       1.0  0.8349614111997354  0.8649706224746155  0.14422331884988165  1.0000
  C   C60       1.0  0.8406295057397629  0.811873334924535  0.08779731673330828  1.0000
  C   C61       1.0  0.08305896984144588  0.5050899634625312  0.21314761595493792  1.0000
  C   C62       1.0  0.35019648861721453  0.7475458587254096  0.19880023289144325  1.0000
  C   C63       1.0  0.27953094716455945  0.7179590147829772  0.22775595578001165  1.0000
  C   C64       1.0  0.2757131147374566  0.7810838931460186  0.2752834769485659  1.0000
  C   C65       1.0  0.3435962743379479  0.8791362006217158  0.30147313339814014  1.0000
  C   C66       1.0  0.1483512809710491  0.6670335581608315  0.2795679964725223  1.0000
  C   C67       1.0  0.07956058987090855  0.6434624832078059  0.3106177647827836  1.0000
  C   C68       1.0  0.15001536195477877  0.6016737953230589  0.23283630314615059  1.0000
  C   C69       1.0  0.2149190066551867  0.626658037173499  0.20432486537054467  1.0000
  C   C70       1.0  0.21531043610189476  0.5599419613349071  0.14868915618548328  1.0000
  C   C71       1.0  0.15753923857800345  0.5309387146671655  0.05515801816468267  1.0000
  C   C72       1.0  0.16067406992290503  0.4719994582008411  0.002058791691702278  1.0000
  C   C73       1.0  0.22184894657799253  0.44175877902035415  0.041896485624469855  1.0000
  C   C74       1.0  0.27925522764657273  0.4699906942921431  0.1350319634222217  1.0000
  C   C75       1.0  0.27592377207545143  0.52875539269197  0.18812823672190854  1.0000
  C   C76       1.0  0.4169374103104814  0.13008712086753607  0.9220279850191699  1.0000
  C   C77       1.0  0.1498015923926204  0.8486044800406063  0.8973506019553595  1.0000
  C   C78       1.0  0.22046779921065957  0.9482259361134239  0.9384292022452453  1.0000
  C   C79       1.0  0.2242848729231638  0.9995696421368975  0.005370908952173146  1.0000
  C   C80       1.0  0.15640122960002864  0.9578778286916291  0.03554018397552733  1.0000
  C   C81       1.0  0.3516455860268195  0.13121773891787572  0.01868069231146309  1.0000
  C   C82       1.0  0.42043772841948607  0.23105675946089124  0.06389945072032781  1.0000
  C   C83       1.0  0.3499812095063675  0.08282109016264637  0.9516563044502104  1.0000
  C   C84       1.0  0.28507810669118805  0.9894055419815617  0.9117381889565265  1.0000
  C   C85       1.0  0.28468991441066305  0.9333789512197586  0.8446333803391467  1.0000
  C   C86       1.0  0.3424611481448494  0.8976196169325803  0.8734002159087095  1.0000
  C   C87       1.0  0.33932593597621974  0.8413853631998195  0.8113273097105632  1.0000
  C   C88       1.0  0.2781522189352046  0.8200489235762521  0.71991059630988  1.0000
  C   C89       1.0  0.22074528279509334  0.8557775093708317  0.6907370593261816  1.0000
  C   C90       1.0  0.22407605042435838  0.9122039683453168  0.7528330831328276  1.0000
  C   C91       1.0  0.291945293175786  0.9220326956197271  0.5050897250299399  1.0000
  C   C92       1.0  0.5487455428169098  0.8973505195105744  0.7475466003748747  1.0000
  C   C93       1.0  0.49020328526507495  0.9384290056377226  0.7179601078645489  1.0000
  C   C94       1.0  0.5058020231965729  0.005372113294164673  0.7810849987332203  1.0000
  C   C95       1.0  0.5776621992929024  0.03553960558473787  0.8791370773202514  1.0000
  C   C96       1.0  0.38746642517155283  0.018683512425667508  0.6670345381669732  1.0000
  C   C97       1.0  0.33284355336108007  0.06390027863687926  0.6434603877418963  1.0000
  C   C98       1.0  0.3688387605404132  0.9516588117416094  0.6016744020595793  1.0000
  C   C99       1.0  0.4223338552004068  0.9117387823856762  0.6266589787593232  1.0000
  C   C100      1.0  0.411254962331583  0.8446335868110001  0.5599409491632557  1.0000
  C   C101      1.0  0.475781828043935  0.8734001085491698  0.5309384984323271  1.0000
  C   C102      1.0  0.46994279139366313  0.8113272264236927  0.47199920859399197  1.0000
  C   C103      1.0  0.3998621990800401  0.7199100120417654  0.44175693954553447  1.0000
  C   C104      1.0  0.33496037235367043  0.6907373277929807  0.4699901906783308  1.0000
  C   C105      1.0  0.34063107862347414  0.7528331596829859  0.5287576155468584  1.0000
  C   C106      1.0  0.20805493672457234  0.21314452402526032  0.1300890509609616  1.0000
  C   C107      1.0  0.9512564205572291  0.1988026231783524  0.8486061614288684  1.0000
  C   C108      1.0  0.00979821483465318  0.22775773139296965  0.9482272429316718  1.0000
  C   C109      1.0  0.9941997865944218  0.27528423756924547  0.9995717289491208  1.0000
  C   C110      1.0  0.9223387174103551  0.3014754927794175  0.9578782154433011  1.0000
  C   C111      1.0  0.11253588117627096  0.27956891273844786  0.1312180290541107  1.0000
  C   C112      1.0  0.16715690460542723  0.31061813053164405  0.23105791825713598  1.0000
  C   C113      1.0  0.13116269233243835  0.23283657193930204  0.0828218803437011  1.0000
  C   C114      1.0  0.07766560663136356  0.20432283449196129  0.9894062465398928  1.0000
  C   C115      1.0  0.08874649619455252  0.1486861292031421  0.933382730754644  1.0000
  C   C116      1.0  0.0242209071606396  0.05515626157347242  0.897619143175845  1.0000
  C   C117      1.0  0.0300612086995784  0.0020586158545584095  0.8413884550957035  1.0000
  C   C118      1.0  0.10013739294286952  0.041895151141545725  0.8200466285840091  1.0000
  C   C119      1.0  0.16503752468466357  0.1350319768602688  0.8557757873517813  1.0000
  C   C120      1.0  0.15937087942499054  0.1881273700562787  0.9122033448359727  1.0000
  N   N1        1.0  0.7907978698876335  0.24565278927678258  0.7018696694178316  1.0000
  N   N2        1.0  0.709201538711831  0.9110732997908572  0.9548562092798745  1.0000
  N   N3        1.0  0.5437823814739676  0.9548562720458807  0.24565340516800663  1.0000
  N   N4        1.0  0.956215714432311  0.701870139657189  0.9110733576904618  1.0000
  N   N5        1.0  0.20920128305434826  0.7543446783171249  0.2981284430084655  1.0000
  N   N6        1.0  0.29079575146163716  0.08892631686921257  0.045141847544087496  1.0000
  N   N7        1.0  0.4562167673442303  0.0451431969498587  0.7543460207278156  1.0000
  N   N8        1.0  0.043785497714637266  0.29813005461894454  0.08892872584802798  1.0000
  O   O1        1.0  0.007107194044891745  0.5386804468452696  0.8537138006843249  1.0000
  O   O2        1.0  0.8797718016043775  0.5295265782037862  0.736396157062984  1.0000
  O   O3        1.0  0.6763254198512385  0.23588617574311155  0.8721334250958463  1.0000
  O   O4        1.0  0.5674335781606956  0.2450456377604979  0.7545320370894542  1.0000
  O   O5        1.0  0.9098764065587233  0.06446140091017588  0.658385685765168  1.0000
  O   O6        1.0  0.4928914850973316  0.8466079633038394  0.031573680228177574  1.0000
  O   O7        1.0  0.6202241700190286  0.8566226404890716  0.14975274890114312  1.0000
  O   O8        1.0  0.8236744185172286  0.19580797880741604  0.059560710256675975  1.0000
  O   O9        1.0  0.9325671912041074  0.18709864020144815  0.17761209240922676  1.0000
  O   O10       1.0  0.5901378247886913  0.7485161151971627  0.6545908842778232  1.0000
  O   O11       1.0  0.684968365200831  0.031575315277898044  0.5386822098761284  1.0000
  O   O12       1.0  0.7931326790765284  0.14975494200724898  0.5295278706519042  1.0000
  O   O13       1.0  0.36375225393310734  0.059560012328404445  0.23588554556206276  1.0000
  O   O14       1.0  0.49051262882631613  0.17761121084431866  0.24504508321233226  1.0000
  O   O15       1.0  0.40607475342562094  0.6545920017737787  0.06445419375919674  1.0000
  O   O16       1.0  0.8150325505984385  0.853712915318994  0.8466089120529858  1.0000
  O   O17       1.0  0.706866668571756  0.7363946786903172  0.8566250195440259  1.0000
  O   O18       1.0  0.13624822571200199  0.8721405418360675  0.19580854729453978  1.0000
  O   O19       1.0  0.009495192978349032  0.7545345103903002  0.18710135334869446  1.0000
  O   O20       1.0  0.09392485718169037  0.6583833407241431  0.7485140512552347  1.0000
  O   O21       1.0  0.9928946403987525  0.46131836410159394  0.1462873108776251  1.0000
  O   O22       1.0  0.1202296193511144  0.4704724874551687  0.26360645426425566  1.0000
  O   O23       1.0  0.3236741424551183  0.7641130385405431  0.12786450103469335  1.0000
  O   O24       1.0  0.4325666023185662  0.7549541945957261  0.2454662305340776  1.0000
  O   O25       1.0  0.09013037739126892  0.9355403533754514  0.34161629158371193  1.0000
  O   O26       1.0  0.5071012649297515  0.15339045766759807  0.968420008388264  1.0000
  O   O27       1.0  0.3797679577113584  0.14337716381163557  0.8502419116918388  1.0000
  O   O28       1.0  0.17632411212879626  0.8041908719556972  0.9404389268336357  1.0000
  O   O29       1.0  0.06743154412667011  0.8129010833463185  0.8223893859393526  1.0000
  O   O30       1.0  0.4098679233705624  0.25148727841032353  0.34540914331309114  1.0000
  O   O31       1.0  0.3150328428179139  0.9684268813604577  0.46131787100705407  1.0000
  O   O32       1.0  0.2068693600474632  0.8502447426846518  0.47047176604348795  1.0000
  O   O33       1.0  0.6362487535283493  0.9404393093231393  0.7641141440306781  1.0000
  O   O34       1.0  0.5094873428480825  0.822389749328771  0.7549554200598152  1.0000
  O   O35       1.0  0.5939233596055119  0.3454091057435137  0.9355460458160322  1.0000
  O   O36       1.0  0.18496680703271554  0.1462854240991832  0.15339435775642574  1.0000
  O   O37       1.0  0.29313124390576206  0.2636035530398503  0.14337759217812623  1.0000
  O   O38       1.0  0.8637548326987528  0.12786551106206914  0.8041916607872535  1.0000
  O   O39       1.0  0.9905144771543846  0.245469460833249  0.8129027009567477  1.0000
  O   O40       1.0  0.9060759455986797  0.34161510734243467  0.25148656051659657  1.0000
