data_image0
_chemical_formula_structural       Zn4H11C21NO13
_chemical_formula_sum              "Zn4 H11 C21 N1 O13"
_cell_length_a       10.937075765501257
_cell_length_b       10.966679342050874
_cell_length_c       13.242718320218946
_cell_angle_alpha    102.58983438822246
_cell_angle_beta     101.0280768166996
_cell_angle_gamma    98.45536214740862

_space_group_name_H-M_alt    "P 1"
_space_group_IT_number       1

loop_
  _space_group_symop_operation_xyz
  'x, y, z'

loop_
  _atom_site_type_symbol
  _atom_site_label
  _atom_site_symmetry_multiplicity
  _atom_site_fract_x
  _atom_site_fract_y
  _atom_site_fract_z
  _atom_site_occupancy
  Zn  Zn1       1.0  0.42178826696153493  0.6153622576284122  0.5914143659361741  1.0000
  Zn  Zn2       1.0  0.6122194030610543  0.42076957562136386  0.5910560000741752  1.0000
  Zn  Zn3       1.0  0.6012170895955578  0.5994774677494091  0.4272226923962775  1.0000
  Zn  Zn4       1.0  0.36948573146879937  0.3667776995928945  0.39442561019648537  1.0000
  H   H1        1.0  0.5741551283707763  0.5752386173140991  0.10671946151051512  1.0000
  H   H2        1.0  0.6097768248997609  0.042825435111332404  0.5948099303189807  1.0000
  H   H3        1.0  0.042096985249727936  0.6146030588013361  0.5992879891181602  1.0000
  H   H4        1.0  0.6036397081772477  0.24735800840124966  0.9641060469956243  1.0000
  H   H5        1.0  0.5271062382575238  0.0289403033156788  0.8461447810728231  1.0000
  H   H6        1.0  0.3489001249335999  0.9872430549905359  0.6872688259652691  1.0000
  H   H7        1.0  0.2443199090248882  0.16511131987545014  0.6485704787096793  1.0000
  H   H8        1.0  0.32057310386817756  0.38342712117093203  0.7667925967689299  1.0000
  H   H9        1.0  0.4005794213077323  0.3100563149372988  0.0546127234181739  1.0000
  H   H10       1.0  0.965222729108909  0.3852138393863029  0.40126758841931576  1.0000
  H   H11       1.0  0.3815490304506284  0.9628118837944368  0.3997564762002455  1.0000
  C   C1        1.0  0.8388048670372683  0.5324338092861893  0.5266784296704756  1.0000
  C   C2        1.0  0.4706962240010882  0.1626865407630689  0.4764410118205049  1.0000
  C   C3        1.0  0.1642862501939035  0.4728486515517147  0.4780479871044392  1.0000
  C   C4        1.0  0.4656585996252929  0.4347774259105392  0.21632319233705738  1.0000
  C   C5        1.0  0.5454572897006642  0.5499354130070274  0.7854694351465454  1.0000
  C   C6        1.0  0.549593740755519  0.5628496795464387  0.9017660815209181  1.0000
  C   C7        1.0  0.5158450160792825  0.4609046014607898  0.9423835597766298  1.0000
  C   C8        1.0  0.5266093293282167  0.8386738921605358  0.5236087941126684  1.0000
  C   C9        1.0  0.4595822524592919  0.40150936445427726  0.10073679111064847  1.0000
  C   C10       1.0  0.5207414632464591  0.4833504780927457  0.05540590250060267  1.0000
  C   C11       1.0  0.02536958812054019  0.4611991277749893  0.46699836591147903  1.0000
  C   C12       1.0  0.45798112455977963  0.023647566951709095  0.4642822786081027  1.0000
  C   C13       1.0  0.46858536489389024  0.33050196825594463  0.8724899003202394  1.0000
  C   C14       1.0  0.5247340441083992  0.22919360519885157  0.8950402364301837  1.0000
  C   C15       1.0  0.4820468311526512  0.10662478300826451  0.8283652653996255  1.0000
  C   C16       1.0  0.3815500647123642  0.0832302631271062  0.7392859897513374  1.0000
  C   C17       1.0  0.3237186916145376  0.18304739827051722  0.7173184031491786  1.0000
  C   C18       1.0  0.3670513290538651  0.3059904250953167  0.7832317964551192  1.0000
  C   C19       1.0  0.5846521492061852  0.6901983583288142  0.9657587154623498  1.0000
  C   C20       1.0  0.9776980424806965  0.5403224846605994  0.5342284112447756  1.0000
  C   C21       1.0  0.5356522984961104  0.9772668884422872  0.5306381838003915  1.0000
  N   N1        1.0  0.6164262502921717  0.7962135835365205  0.015992628961939235  1.0000
  O   O1        1.0  0.5013755452203765  0.5005004126323342  0.5012952495135605  1.0000
  O   O2        1.0  0.5660658877329681  0.23555474681181474  0.545456598814006  1.0000
  O   O3        1.0  0.5880591040207718  0.7803650549136093  0.46300697835816607  1.0000
  O   O4        1.0  0.7824812664152887  0.5899939785024556  0.4638609178121697  1.0000
  O   O5        1.0  0.38383866398322647  0.19723983603128656  0.4160845795742887  1.0000
  O   O6        1.0  0.19893569180603515  0.3939746229601865  0.40796915016245794  1.0000
  O   O7        1.0  0.5443467835126939  0.5352394621369143  0.27336817156133714  1.0000
  O   O8        1.0  0.6065229781793917  0.47195879696641185  0.7421497515052237  1.0000
  O   O9        1.0  0.481332142899177  0.6211307687521027  0.7429438255400098  1.0000
  O   O10       1.0  0.39058771670040926  0.35948902526575205  0.24904608808500933  1.0000
  O   O11       1.0  0.791206497230995  0.47027828491049223  0.5852257914021237  1.0000
  O   O12       1.0  0.45960997991379327  0.7928171606640151  0.5804183714347104  1.0000
  O   O13       1.0  0.237237584079196  0.5598846589280555  0.5555367119367034  1.0000
