data_image0
_chemical_formula_structural       Zn2H30C50N14O8
_chemical_formula_sum              "Zn2 H30 C50 N14 O8"
_cell_length_a       9.220246623835761
_cell_length_b       10.180065669316688
_cell_length_c       14.826
_cell_angle_alpha    95.69626932632389
_cell_angle_beta     92.11529068583765
_cell_angle_gamma    99.94677651501661

_space_group_name_H-M_alt    "P 1"
_space_group_IT_number       1

loop_
  _space_group_symop_operation_xyz
  'x, y, z'

loop_
  _atom_site_type_symbol
  _atom_site_label
  _atom_site_symmetry_multiplicity
  _atom_site_fract_x
  _atom_site_fract_y
  _atom_site_fract_z
  _atom_site_occupancy
  Zn  Zn1       1.0  0.3615124996605843  0.1274784099353496  0.46954525889287174  1.0000
  Zn  Zn2       1.0  0.6384875448338292  0.8725206779497795  0.530454342720617  1.0000
  H   H1        1.0  0.9116340012297002  0.866366686172988  0.6833580182096811  1.0000
  H   H2        1.0  0.08836515358447632  0.1336334048077887  0.31664163134466605  1.0000
  H   H3        1.0  0.780106224167291  0.7496013377170385  0.7750931993380521  1.0000
  H   H4        1.0  0.21989382032712257  0.2503977501680978  0.2249064022754297  1.0000
  H   H5        1.0  0.8762763384161191  0.09878285284347747  0.9704835667108185  1.0000
  H   H6        1.0  0.12372479138753081  0.9012162350416517  0.029516059815364325  1.0000
  H   H7        1.0  0.5343679660725797  0.7597165541925293  0.0029024706217484126  1.0000
  H   H8        1.0  0.465632274050833  0.24028353678824738  0.9970965293545435  1.0000
  H   H9        1.0  0.2971067266327481  0.3187115728208667  0.8026888869122217  1.0000
  H   H10       1.0  0.7028924281814285  0.68128851815991  0.19731143713288196  1.0000
  H   H11       1.0  0.4050748802561941  0.3039169151654662  0.6498213028280517  1.0000
  H   H12       1.0  0.5949240789289759  0.6960821727196631  0.35017827387272865  1.0000
  H   H13       1.0  0.11777464747353857  0.9535467317007187  0.5538787277141921  1.0000
  H   H14       1.0  0.882225397020875  0.0464523561844103  0.4461208738992894  1.0000
  H   H15       1.0  0.37879433745403196  0.9482744609951226  0.2923020236566174  1.0000
  H   H16       1.0  0.6212071836076234  0.051726633081294396  0.7076984230674627  1.0000
  H   H17       1.0  0.5931253515326133  0.3280634335111685  0.3976458053166639  1.0000
  H   H18       1.0  0.406877948889516  0.6719356543739607  0.6023558945071983  1.0000
  H   H19       1.0  0.7597702881073545  0.3528388928257513  0.2680799597684  1.0000
  H   H20       1.0  0.2402288667068149  0.6471611981550254  0.7319203642767036  1.0000
  H   H21       1.0  0.14705385496705498  0.45272615397342253  0.6419553672625185  1.0000
  H   H22       1.0  0.8529461895273586  0.5472729339117066  0.3580442343509703  1.0000
  H   H23       1.0  0.61469131110794  0.4051593585283726  0.5494749440464801  1.0000
  H   H24       1.0  0.385309124644472  0.5948417355480444  0.4505261522556553  1.0000
  H   H25       1.0  0.9900832160726907  0.2266504638887596  0.6163200259926426  1.0000
  H   H26       1.0  0.009916632792716496  0.7733476209007293  0.3836788282765157  1.0000
  H   H27       1.0  0.03566937365938828  0.6566585077137289  0.620950445901322  1.0000
  H   H28       1.0  0.9643306708350181  0.3433405801714001  0.3790505046936801  1.0000
  H   H29       1.0  0.8107765104691468  0.1869469351981081  0.09880825512809821  1.0000
  H   H30       1.0  0.1892226443450298  0.8130531557826686  0.901191394426256  1.0000
  C   C1        1.0  0.7595864252332022  0.8054075607830455  0.8388234351393606  1.0000
  C   C2        1.0  0.24041381489021066  0.1945925301977312  0.1611762393276877  1.0000
  C   C3        1.0  0.84244166500212  0.933566069565117  0.8667333043235317  1.0000
  C   C4        1.0  0.15755857512129273  0.06643402141565248  0.1332663701435237  1.0000
  C   C5        1.0  0.8112865126582846  0.999743298495872  0.9491118361662103  1.0000
  C   C6        1.0  0.18871264215588474  0.0002567924848975  0.0508878133881439  1.0000
  C   C7        1.0  0.6992119821026819  0.9376657214627144  0.9994001074461708  1.0000
  C   C8        1.0  0.3007871727114946  0.06233436951806229  0.0005995421081763963  1.0000
  C   C9        1.0  0.6228612336374866  0.8094861476721105  0.9646679222931595  1.0000
  C   C10       1.0  0.3771390064859261  0.190513943308666  0.0353317521738958  1.0000
  C   C11       1.0  0.9564586992285414  0.9978574786848923  0.8118300312441208  1.0000
  C   C12       1.0  0.0435413452658722  0.0021416092002368996  0.18817024486012462  1.0000
  C   C13       1.0  0.0903235240695821  0.0305392468858017  0.694018393335952  1.0000
  C   C14       1.0  0.9096743498063447  0.9694598409993347  0.3059811584521341  1.0000
  C   C15       1.0  0.1363374223070721  0.13472677905989627  0.7656866088036622  1.0000
  C   C16       1.0  0.8636617325070971  0.8652733119208803  0.23431236625992824  1.0000
  C   C17       1.0  0.2535425245798351  0.23667339556499195  0.7507174125378456  1.0000
  C   C18       1.0  0.7464564346053422  0.7633256923201373  0.24928148967217825  1.0000
  C   C19       1.0  0.3136160708504007  0.22857941681243688  0.666150845378013  1.0000
  C   C20       1.0  0.6863830839637755  0.7714206741683396  0.3338488041763341  1.0000
  C   C21       1.0  0.1539939810484867  0.0300146278639133  0.6106417869909535  1.0000
  C   C22       1.0  0.846006259074926  0.9699854631168632  0.38935788747609484  1.0000
  C   C23       1.0  0.5509210104234583  0.03808453232100819  0.20904374344713267  1.0000
  C   C24       1.0  0.4490794253289608  0.9619165617554088  0.7909553293827258  1.0000
  C   C25       1.0  0.4639767633536636  0.03396582160617359  0.2840868593979309  1.0000
  C   C26       1.0  0.5360238680277547  0.9660362755658837  0.7159122862854872  1.0000
  C   C27       1.0  0.5868869625245239  0.24797226490056795  0.342445552650247  1.0000
  C   C28       1.0  0.4131154482173685  0.7520278260802087  0.657555520623724  1.0000
  C   C29       1.0  0.6790838045733452  0.261816990980968  0.2706457227360559  1.0000
  C   C30       1.0  0.3209162399210612  0.7381820969041611  0.7293545533681894  1.0000
  C   C31       1.0  0.6602535517898218  0.15337733637136344  0.20352457200032606  1.0000
  C   C32       1.0  0.3397479692718335  0.8466237577050535  0.7964752002329903  1.0000
  C   C33       1.0  0.6972253234752303  0.164833691723075  0.5652767706879303  1.0000
  C   C34       1.0  0.3027747210191833  0.8351653961620542  0.4347228309255514  1.0000
  C   C35       1.0  0.7925197407998114  0.3011694361961688  0.5826096667886419  1.0000
  C   C36       1.0  0.20747941401435813  0.6988306547846078  0.4173899827657054  1.0000
  C   C37       1.0  0.02984833078338058  0.44330608277931555  0.6236142109976583  1.0000
  C   C38       1.0  0.9701515180820266  0.5566920020101662  0.3763859922530273  1.0000
  C   C39       1.0  0.7528423418263728  0.6622878804686393  0.5666309057774371  1.0000
  C   C40       1.0  0.24715957049328813  0.33771521979907243  0.433370361144533  1.0000
  C   C41       1.0  0.8184783840056086  0.5427680313738819  0.5849893281314423  1.0000
  C   C42       1.0  0.1815211620665664  0.45723406579818254  0.4150111416207949  1.0000
  C   C43       1.0  0.7309185351159257  0.4151281230398212  0.5707576539163881  1.0000
  C   C44       1.0  0.2690808153272499  0.5848729710365959  0.42924274298228243  1.0000
  C   C45       1.0  0.9426460481577975  0.31588785858261287  0.608727517394577  1.0000
  C   C46       1.0  0.05735271539837329  0.6841102262068688  0.39127063747112356  1.0000
  C   C47       1.0  0.968150491937088  0.5566990236796769  0.612187024198839  1.0000
  C   C48       1.0  0.03184974818632468  0.4433010673010996  0.38781332475897307  1.0000
  C   C49       1.0  0.6575051638257534  0.0001384271988911  0.08484850935895591  1.0000
  C   C50       1.0  0.34249399098841593  0.9998616637818855  0.9151511401953984  1.0000
  N   N1        1.0  0.6521854024404944  0.7443380948722406  0.8865957965204174  1.0000
  N   N2        1.0  0.34781572736315525  0.2556609930128885  0.11340450449652201  1.0000
  N   N3        1.0  0.9773713643721464  0.9446221897548168  0.7257708752902802  1.0000
  N   N4        1.0  0.0226279860710292  0.055378904321599996  0.2742295216083974  1.0000
  N   N5        1.0  0.0507504145838453  0.11202973391997519  0.8388107946276335  1.0000
  N   N6        1.0  0.9492498255395674  0.8879703570608014  0.1611882053486582  1.0000
  N   N7        1.0  0.2647842000625786  0.1292920068599557  0.5978538811192069  1.0000
  N   N8        1.0  0.7352145634935852  0.8707060779295333  0.40214629721877065  1.0000
  N   N9        1.0  0.5512767767733848  0.9453845424443585  0.13437741175283696  1.0000
  N   N10       1.0  0.44872474428827047  0.05461655163205849  0.8656230349712359  1.0000
  N   N11       1.0  0.4833483601589208  0.13735689583882757  0.3494262102645109  1.0000
  N   N12       1.0  0.5166540505829715  0.8626431951419491  0.6505748630094601  1.0000
  N   N13       1.0  0.7261977760428806  0.126569605281766  0.12394243352517263  1.0000
  N   N14       1.0  0.2738004890910588  0.8734314887946582  0.8760565894792836  1.0000
  O   O1        1.0  0.7593896446654469  0.062555050559773  0.5721371078738855  1.0000
  O   O2        1.0  0.24061148513821004  0.9374440373253634  0.4278625186523044  1.0000
  O   O3        1.0  0.5613190106368222  0.15804674659483448  0.5466122810902974  1.0000
  O   O4        1.0  0.43868083822858495  0.8419513381946543  0.45338994563265794  1.0000
  O   O5        1.0  0.6302458311116936  0.6466726905763308  0.5219472187602179  1.0000
  O   O6        1.0  0.3697560812079672  0.3533304096913739  0.4780540481617522  1.0000
  O   O7        1.0  0.8235506240309648  0.7804786278349098  0.5950287329769497  1.0000
  O   O8        1.0  0.17645296048494433  0.21952748171973008  0.4049727774184078  1.0000
