data_image0
_chemical_formula_structural       Cd2H36C36N8O12
_chemical_formula_sum              "Cd2 H36 C36 N8 O12"
_cell_length_a       9.820682542850967
_cell_length_b       10.571927104231005
_cell_length_c       11.181060298859563
_cell_angle_alpha    73.2175880403929
_cell_angle_beta     65.69108430253428
_cell_angle_gamma    63.75260562831433

_space_group_name_H-M_alt    "P 1"
_space_group_IT_number       1

loop_
  _space_group_symop_operation_xyz
  'x, y, z'

loop_
  _atom_site_type_symbol
  _atom_site_label
  _atom_site_symmetry_multiplicity
  _atom_site_fract_x
  _atom_site_fract_y
  _atom_site_fract_z
  _atom_site_occupancy
  Cd  Cd1       1.0  0.4686713859409435  0.1788642486385825  0.220692661160058  1.0000
  Cd  Cd2       1.0  0.5313259486609139  0.8211353448162909  0.7793076930844552  1.0000
  H   H1        1.0  0.5557423519434223  0.1226174584212032  0.9544049791725371  1.0000
  H   H2        1.0  0.44425499442788635  0.87738215795396  0.0455926815741492  1.0000
  H   H3        1.0  0.595311524541941  0.9932063562393837  0.06415791787719612  1.0000
  H   H4        1.0  0.4046869479116068  0.006793273175134098  0.9358375491849104  1.0000
  H   H5        1.0  0.26069836051200923  0.44752989518090647  0.5854129826463037  1.0000
  H   H6        1.0  0.7393105460187925  0.552463229312316  0.4145930094678648  1.0000
  H   H7        1.0  0.48566331975524674  0.6363356154039933  0.2027058142993141  1.0000
  H   H8        1.0  0.514340906251391  0.3636554387092517  0.7972970280930768  1.0000
  H   H9        1.0  0.28967446580452333  0.8557612169366351  0.5406299227402017  1.0000
  H   H10       1.0  0.7103293549399223  0.14423625316955932  0.4593668929192986  1.0000
  H   H11       1.0  0.2616514169457103  0.5789782400971291  0.7820431168726075  1.0000
  H   H12       1.0  0.7383512581007422  0.421019178769221  0.21796038163451928  1.0000
  H   H13       1.0  0.15577704801773953  0.7624445179547266  0.7518110548074192  1.0000
  H   H14       1.0  0.8442298993029309  0.2375561037648239  0.2481873893394919  1.0000
  H   H15       1.0  0.24007904870430952  0.3400630526333615  0.8486023029127595  1.0000
  H   H16       1.0  0.7599127221799262  0.6599366055063456  0.15139375660032775  1.0000
  H   H17       1.0  0.11485776052967367  0.160790248688734  0.9594950861561885  1.0000
  H   H18       1.0  0.8851266557757211  0.8392189743044581  0.04050285078353958  1.0000
  H   H19       1.0  0.8223184179540294  0.22371622842091204  0.015811115956992628  1.0000
  H   H20       1.0  0.1776682456572941  0.7762982888905299  0.9841864066278917  1.0000
  H   H21       1.0  0.6446344137381032  0.4697091731272138  0.9551274237817822  1.0000
  H   H22       1.0  0.3553654288034095  0.5303084527098035  0.04487083861403108  1.0000
  H   H23       1.0  0.6864701880756101  0.8959386890985496  0.3848517650062251  1.0000
  H   H24       1.0  0.3135284919583583  0.10406301965926448  0.6151484438551195  1.0000
  H   H25       1.0  0.004681671863238497  0.019098768066136505  0.15899951230546353  1.0000
  H   H26       1.0  0.9953167692051038  0.9809008002276088  0.8410031374175091  1.0000
  H   H27       1.0  0.1547432075746541  0.8528430011942733  0.1920222704472606  1.0000
  H   H28       1.0  0.8452541113345969  0.1471565617002071  0.8079816751276852  1.0000
  H   H29       1.0  0.07253033265148169  0.9886998024020742  0.2943191735146798  1.0000
  H   H30       1.0  0.927466538776315  0.011300816564663302  0.705685546304352  1.0000
  H   H31       1.0  0.859851679734781  0.7210993680595549  0.46513933209731567  1.0000
  H   H32       1.0  0.14014587814010326  0.2789023352989943  0.5348621726160019  1.0000
  H   H33       1.0  0.008374883464057216  0.765902914228036  0.4779047592749564  1.0000
  H   H34       1.0  0.9916224393683419  0.2340966563065408  0.5220982884673833  1.0000
  H   H35       1.0  0.06149444516058364  0.6669570821911748  0.3498148345131185  1.0000
  H   H36       1.0  0.9385028815949709  0.3330424959834985  0.6501873153966146  1.0000
  C   C1        1.0  0.2630768676810646  0.6537955691035008  0.5803051656102128  1.0000
  C   C2        1.0  0.7369322856616661  0.3461997111339841  0.41969658997712145  1.0000
  C   C3        1.0  0.2952797259912359  0.5366979304955136  0.524673196111131  1.0000
  C   C4        1.0  0.7047233847672127  0.4632984093782825  0.4753322216497295  1.0000
  C   C5        1.0  0.37501449765614575  0.5304546080619873  0.3890147433324245  1.0000
  C   C6        1.0  0.6249926277305348  0.46953748012083446  0.6109894749111718  1.0000
  C   C7        1.0  0.4234059906804075  0.6419886171491599  0.30836053005559444  1.0000
  C   C8        1.0  0.5766031518282729  0.35800136428840545  0.6916408438478499  1.0000
  C   C9        1.0  0.39259909907828205  0.7590178240831732  0.36310962865544383  1.0000
  C   C10       1.0  0.6074018144398108  0.24097859667325855  0.6368876068180642  1.0000
  C   C11       1.0  0.31149224584221696  0.7646108718931257  0.4991091940039  1.0000
  C   C12       1.0  0.6885162406691875  0.2353833621530299  0.5008912875261019  1.0000
  C   C13       1.0  0.1823865703369449  0.6590638591892598  0.7274009177005709  1.0000
  C   C14       1.0  0.8176201419412477  0.34093462970631094  0.27259906947535495  1.0000
  C   C15       1.0  0.8436852795042781  0.5441584215985884  0.8663390251095536  1.0000
  C   C16       1.0  0.15631543931978334  0.45585177801380883  0.1336591027794185  1.0000
  C   C17       1.0  0.009787195977807467  0.5078147767295249  0.8379527629657774  1.0000
  C   C18       1.0  0.9902144030519648  0.49218800429834886  0.16204433258373985  1.0000
  C   C19       1.0  0.11191316136230971  0.3696990262714124  0.8700907566756797  1.0000
  C   C20       1.0  0.8880788171023535  0.6303027112115911  0.12991004463665234  1.0000
  C   C21       1.0  0.040130553837137435  0.26979218586239995  0.9326633449656117  1.0000
  C   C22       1.0  0.9598572063420148  0.7302117316083782  0.06733301623212638  1.0000
  C   C23       1.0  0.8732492931791285  0.30546103488562437  0.9636661242402482  1.0000
  C   C24       1.0  0.12673691118128255  0.6945545155777921  0.036334866086548234  1.0000
  C   C25       1.0  0.7725871423701275  0.4421699768727195  0.9313654782724968  1.0000
  C   C26       1.0  0.22740780720825146  0.5578487674805642  0.0686288656166171  1.0000
  C   C27       1.0  0.7696039746068095  0.9502583007216143  0.31839392633622754  1.0000
  C   C28       1.0  0.2303971317344988  0.0497348929380976  0.6816085670852489  1.0000
  C   C29       1.0  0.04502258179893909  0.9394262843253427  0.23723046648265717  1.0000
  C   C30       1.0  0.9549772086246691  0.06057540691144678  0.7627711400245474  1.0000
  C   C31       1.0  0.9646577081845815  0.7514925844737306  0.40863361368416673  1.0000
  C   C32       1.0  0.035338496411888756  0.24850698830167062  0.5913698320775398  1.0000
  C   C33       1.0  0.4112814842724858  0.4034306243532413  0.33107463298414797  1.0000
  C   C34       1.0  0.5887218428480877  0.5965625342644216  0.6689306557290281  1.0000
  C   C35       1.0  0.4485803043191297  0.8770403542885247  0.278243569896837  1.0000
  C   C36       1.0  0.5514237445568922  0.1229539574818332  0.7217504232171592  1.0000
  N   N1        1.0  0.9198830502518403  0.8833142775306865  0.32128576201621684  1.0000
  N   N2        1.0  0.0801118275928658  0.11668849402187927  0.6787164151473207  1.0000
  N   N3        1.0  0.03329535162920639  0.6328150969901855  0.7792079688446024  1.0000
  N   N4        1.0  0.9667098067010468  0.3671844731387637  0.22079049709695642  1.0000
  N   N5        1.0  0.8948142257149385  0.7387120047588666  0.7697521889156961  1.0000
  N   N6        1.0  0.10519095129566829  0.26129287945019547  0.23024486304452552  1.0000
  N   N7        1.0  0.780288593103769  0.6870210495942999  0.8218340136528325  1.0000
  N   N8        1.0  0.2197152414624667  0.31298700283153374  0.1781653610396603  1.0000
  O   O1        1.0  0.3604686268694265  0.30585179612086927  0.4060716940082472  1.0000
  O   O2        1.0  0.6395293519602561  0.6941435218051238  0.593932246107535  1.0000
  O   O3        1.0  0.49251223685185136  0.39701799634679696  0.208038025078814  1.0000
  O   O4        1.0  0.5074977770808288  0.6029698271056745  0.791967187332098  1.0000
  O   O5        1.0  0.41128965366784315  0.9823642373669658  0.33413389822746353  1.0000
  O   O6        1.0  0.5887139594961822  0.017631153395939195  0.6658581756327921  1.0000
  O   O7        1.0  0.5322874020746438  0.8626525739677506  0.15644522534295635  1.0000
  O   O8        1.0  0.46771574885072187  0.1373385664273954  0.8435481389101085  1.0000
  O   O9        1.0  0.724799633480046  0.0664231738253775  0.24676796612556734  1.0000
  O   O10       1.0  0.27519728409016847  0.9335828127021485  0.7532290548838817  1.0000
  O   O11       1.0  0.6110663817931721  0.08603175093012537  0.02158591576706211  1.0000
  O   O12       1.0  0.3889271623888743  0.9139689282397825  0.9784137132818176  1.0000
