data_image0
_chemical_formula_structural       Zn8H16C80N12O50
_chemical_formula_sum              "Zn8 H16 C80 N12 O50"
_cell_length_a       19.615100675233045
_cell_length_b       19.61335766928251
_cell_length_c       29.261341163335917
_cell_angle_alpha    70.41523735683687
_cell_angle_beta     70.41163908443522
_cell_angle_gamma    90.01983454348594

_space_group_name_H-M_alt    "P 1"
_space_group_IT_number       1

loop_
  _space_group_symop_operation_xyz
  'x, y, z'

loop_
  _atom_site_type_symbol
  _atom_site_label
  _atom_site_symmetry_multiplicity
  _atom_site_fract_x
  _atom_site_fract_y
  _atom_site_fract_z
  _atom_site_occupancy
  Zn  Zn1       1.0  0.6906211167732794  0.27195263526982666  0.45548390874174055  1.0000
  Zn  Zn2       1.0  0.3093981244793865  0.7273829778655241  0.5444966742627387  1.0000
  Zn  Zn3       1.0  0.2718446379666162  0.8539356196417384  0.4554074630566091  1.0000
  Zn  Zn4       1.0  0.7274052315153626  0.14605469713754363  0.5445792513840786  1.0000
  Zn  Zn5       1.0  0.853928907184887  0.2725877938591951  0.4554193064344004  1.0000
  Zn  Zn6       1.0  0.1460584843153612  0.7281368711036221  0.5445972231595775  1.0000
  Zn  Zn7       1.0  0.2726057543736005  0.6905759865486302  0.455518818486965  1.0000
  Zn  Zn8       1.0  0.7280276743520134  0.30937183829573905  0.5445113609156138  1.0000
  H   H1        1.0  0.0255093904005506  0.352684874057104  0.9509537240694712  1.0000
  H   H2        1.0  0.9760403305008084  0.6473754262515996  0.04904020889720326  1.0000
  H   H3        1.0  0.3526840810006746  0.02325653577007388  0.9509755402805451  1.0000
  H   H4        1.0  0.647362287324384  0.9751311440909518  0.049028137360153344  1.0000
  H   H5        1.0  0.023457817403937004  0.6964397957658618  0.9509113481660736  1.0000
  H   H6        1.0  0.9749177636452444  0.30362823937910116  0.049075286093113735  1.0000
  H   H7        1.0  0.6964002643426069  0.02577390764064099  0.9509076472670656  1.0000
  H   H8        1.0  0.30361458281581116  0.975831858948204  0.04909856070368325  1.0000
  H   H9        1.0  0.9610227531597176  0.37141447941840505  0.2946495086859287  1.0000
  H   H10       1.0  0.25580680491612634  0.6285622414759048  0.7053974042201859  1.0000
  H   H11       1.0  0.37176220419004125  0.7442254721963477  0.2945993726361563  1.0000
  H   H12       1.0  0.6288180327137951  0.0388981218265771  0.7053630975596689  1.0000
  H   H13       1.0  0.7441737132680827  0.3341367748457316  0.2946217407302639  1.0000
  H   H14       1.0  0.039044247529730604  0.6659927719131248  0.7052946450735503  1.0000
  H   H15       1.0  0.333678955699618  0.960878893927564  0.2947189321601087  1.0000
  H   H16       1.0  0.6655733910894314  0.25586959112891355  0.7053689755636228  1.0000
  C   C1        1.0  0.0141546427246411  0.3893815153122514  0.9727642374906935  1.0000
  C   C2        1.0  0.9866009804634146  0.6106916330751345  0.02721609921086101  1.0000
  C   C3        1.0  0.3893620269829228  0.012886478709887817  0.9727930987576627  1.0000
  C   C4        1.0  0.6106643351483071  0.9863118692959957  0.027220937352510167  1.0000
  C   C5        1.0  0.013070965534097902  0.6379303244071083  0.9727377759062605  1.0000
  C   C6        1.0  0.9862138452940172  0.36214089972232694  0.027246415202725343  1.0000
  C   C7        1.0  0.637896678991055  0.014259674869407707  0.9727404081099988  1.0000
  C   C8        1.0  0.36212671452440043  0.9864152566826615  0.02727148029650551  1.0000
  C   C9        1.0  0.9501736557903158  0.399559277453214  0.22008849727018284  1.0000
  C   C10       1.0  0.170272260533892  0.6005153055598385  0.779933646656275  1.0000
  C   C11       1.0  0.39973295792182023  0.8297427823813802  0.22007220982674616  1.0000
  C   C12       1.0  0.6005744610997041  0.049795471101596475  0.7799198310461718  1.0000
  C   C13       1.0  0.829720797900869  0.38045719132193784  0.2200723756214416  1.0000
  C   C14       1.0  0.0498382699820539  0.6196310289623953  0.7798825919352339  1.0000
  C   C15       1.0  0.3801966603903679  0.9501126960215699  0.22012496032339615  1.0000
  C   C16       1.0  0.6193590707420852  0.17031879619548837  0.7799233237808848  1.0000
  C   C17       1.0  0.9042133247368654  0.40424968693531566  0.19158725694672535  1.0000
  C   C18       1.0  0.0957864377444082  0.5958491502990738  0.808398560078075  1.0000
  C   C19       1.0  0.4042022666820487  0.9041988355242337  0.1916089018156484  1.0000
  C   C20       1.0  0.5957424108036236  0.09579917743225526  0.8084121513786185  1.0000
  C   C21       1.0  0.6794960252562916  0.17970737576320767  0.6406812707319745  1.0000
  C   C22       1.0  0.3203722294181262  0.820229033397105  0.359337488551617  1.0000
  C   C23       1.0  0.1797430497589403  0.6796045772242252  0.6406722826264823  1.0000
  C   C24       1.0  0.8202687231406927  0.320463807145174  0.35931971385904393  1.0000
  C   C25       1.0  0.6204212803136215  0.37957632528736684  0.4999939381874654  1.0000
  C   C26       1.0  0.3800111709016747  0.6199677122788213  0.5000033426693022  1.0000
  C   C27       1.0  0.3795272476008336  0.8796977372551706  0.49985807609527205  1.0000
  C   C28       1.0  0.6200706056078858  0.11992155829964442  0.5000479014912216  1.0000
  C   C29       1.0  0.8795589820406067  0.12042456159716865  0.49999188528339994  1.0000
  C   C30       1.0  0.1199546103409048  0.8800286760996551  0.5000099030217483  1.0000
  C   C31       1.0  0.12029118686373863  0.6204617422585272  0.5001391411227445  1.0000
  C   C32       1.0  0.8800630103538367  0.37991601794576  0.4999561092216211  1.0000
  C   C33       1.0  0.9236758757287619  0.37333535638170195  0.27401572620482995  1.0000
  C   C34       1.0  0.19780696129485884  0.6267185901945853  0.7259969539897426  1.0000
  C   C35       1.0  0.3734799565582776  0.8022042656542395  0.2740048008934579  1.0000
  C   C36       1.0  0.6267628538910159  0.0762793111818496  0.7259945197118894  1.0000
  C   C37       1.0  0.8021901629540198  0.3528358896153422  0.27400719112702626  1.0000
  C   C38       1.0  0.0763521808492982  0.6472774528920339  0.7259588443967716  1.0000
  C   C39       1.0  0.3525407172357617  0.923596143045046  0.2740504015786272  1.0000
  C   C40       1.0  0.6469666368211122  0.19783788833537136  0.725988905409423  1.0000
  C   C41       1.0  0.5681587079681735  0.06807815074010652  0.5000622780400263  1.0000
  C   C42       1.0  0.4314200523740226  0.9315415746253353  0.49984893791761215  1.0000
  C   C43       1.0  0.0681037103375104  0.9318701142948884  0.5000081573422362  1.0000
  C   C44       1.0  0.9314136945682211  0.06857126184330309  0.4999903966587523  1.0000
  C   C45       1.0  0.9319007018373997  0.431831625961408  0.49994284626601615  1.0000
  C   C46       1.0  0.06844584665469  0.5685721877877228  0.5001441178083823  1.0000
  C   C47       1.0  0.43185606137601695  0.5681246620839177  0.5000015156445983  1.0000
  C   C48       1.0  0.568560021837108  0.4314265083504267  0.49999774842135736  1.0000
  C   C49       1.0  0.5240794426139245  0.024063561408190933  0.5000202344612177  1.0000
  C   C50       1.0  0.4754715905742799  0.9755078499415288  0.49996219801545994  1.0000
  C   C51       1.0  0.0240478696287951  0.9759205775455868  0.500000820365635  1.0000
  C   C52       1.0  0.9754580661273523  0.024517687712958078  0.4999931078700754  1.0000
  C   C53       1.0  0.975922117874049  0.4759129059709649  0.49997699627351727  1.0000
  C   C54       1.0  0.0244777957941551  0.5245207333225039  0.5000334165281614  1.0000
  C   C55       1.0  0.47591188508631893  0.524066255436729  0.49999949021003687  1.0000
  C   C56       1.0  0.5245101961605698  0.47546975541654024  0.4999984738825701  1.0000
  C   C57       1.0  0.8493394392935727  0.3495325808991581  0.30117142575494427  1.0000
  C   C58       1.0  0.15067779792097724  0.6505557407677004  0.6988221306994973  1.0000
  C   C59       1.0  0.3494347534582261  0.8492974404733075  0.3011857425134039  1.0000
  C   C60       1.0  0.6504002085283958  0.15065166534247254  0.698830513241468  1.0000
  C   C61       1.0  0.054103482172237705  0.6202649716236195  0.8881689027686052  1.0000
  C   C62       1.0  0.9424787409747706  0.3798052168602053  0.11181955997583516  1.0000
  C   C63       1.0  0.6202058939424475  0.05783464565930542  0.8881688657646478  1.0000
  C   C64       1.0  0.3797896929126168  0.9456148237182019  0.11183770982353279  1.0000
  C   C65       1.0  0.0577025467529779  0.4916415181531873  0.8881708480697271  1.0000
  C   C66       1.0  0.9458364277713754  0.5084436482316191  0.11179858879007305  1.0000
  C   C67       1.0  0.4915906651033382  0.05388831224824755  0.8882056039786618  1.0000
  C   C68       1.0  0.5084171283066324  0.9425311574940092  0.1118228868078717  1.0000
  C   C69       1.0  0.0277941998712024  0.4641534631392901  0.945516392723178  1.0000
  C   C70       1.0  0.9732239170398175  0.535918661912163  0.05445433191997035  1.0000
  C   C71       1.0  0.4641240590617601  0.02649965008013311  0.9455499003614705  1.0000
  C   C72       1.0  0.5359006307009366  0.972436696815315  0.05447623379740926  1.0000
  C   C73       1.0  0.0266805618794663  0.5903963389101604  0.9455126311209554  1.0000
  C   C74       1.0  0.9724519837611966  0.4096700790614064  0.05447299444372075  1.0000
  C   C75       1.0  0.5903668729978193  0.02779755980206759  0.9455163014535869  1.0000
  C   C76       1.0  0.40965873692193366  0.9730529530703436  0.05449349551891206  1.0000
  C   C77       1.0  0.013853668618487799  0.5138624139518342  0.9723377820532589  1.0000
  C   C78       1.0  0.986242671047208  0.4862061072396742  0.0276384743338908  1.0000
  C   C79       1.0  0.5138374728175705  0.013726951086631864  0.9723607698328677  1.0000
  C   C80       1.0  0.4861906800143175  0.9861241341013735  0.027663420571350576  1.0000
  N   N1        1.0  0.0680562507702547  0.5681452233535251  0.8637962043412272  1.0000
  N   N2        1.0  0.9319516890281819  0.4319376616931263  0.13618612490520818  1.0000
  N   N3        1.0  0.5680782562835914  0.06807061606080117  0.8638103318380813  1.0000
  N   N4        1.0  0.4319144450818158  0.9319397679285257  0.136207404762537  1.0000
  N   N5        1.0  0.0298885763008983  0.42294758580565167  0.19388043438644337  1.0000
  N   N6        1.0  0.2236778584505004  0.5770347939816884  0.8061947811878127  1.0000
  N   N7        1.0  0.4234781839816577  0.7763746054137567  0.19381019898867885  1.0000
  N   N8        1.0  0.5774457972849804  0.9700279949998746  0.8061344515821105  1.0000
  N   N9        1.0  0.7763103040242142  0.3831269198921559  0.1938180539344216  1.0000
  N   N10       1.0  0.9701281934370131  0.6168701792189496  0.8060755534936703  1.0000
  N   N11       1.0  0.3827246154928332  0.029784604094217647  0.19393780144508097  1.0000
  N   N12       1.0  0.6165322093049639  0.22376423174384996  0.8061752697722468  1.0000
  O   O1        1.0  0.7500144175386154  0.2499716672213523  0.49999666899130085  1.0000
  O   O2        1.0  0.2499640652125237  0.7500256718961539  0.5000050900255957  1.0000
  O   O3        1.0  0.6885795343549289  0.13260087193997075  0.6186630109398551  1.0000
  O   O4        1.0  0.30715022079799326  0.8673328473764599  0.3813467416100595  1.0000
  O   O5        1.0  0.132650124492308  0.6927913740205865  0.618658930613968  1.0000
  O   O6        1.0  0.8673625341070377  0.3114360200515733  0.38134166721834356  1.0000
  O   O7        1.0  0.6924852385939815  0.24883335505059268  0.6186099168623045  1.0000
  O   O8        1.0  0.31156572154917234  0.7511157644484852  0.38141628327517196  1.0000
  O   O9        1.0  0.2488541194137355  0.6884424367363023  0.6185939957652167  1.0000
  O   O10       1.0  0.7511474775883401  0.30744463977357855  0.3813847370809923  1.0000
  O   O11       1.0  0.6528741517086374  0.37168207307379203  0.5322710376632003  1.0000
  O   O12       1.0  0.3464623354737029  0.6268105395923059  0.468477399470153  1.0000
  O   O13       1.0  0.3715374605718509  0.8149828565599789  0.5322001286153794  1.0000
  O   O14       1.0  0.6269931266947993  0.18499154364970144  0.4684715960055924  1.0000
  O   O15       1.0  0.8148811498717806  0.09608403526837608  0.5324113698267822  1.0000
  O   O16       1.0  0.18493534993700678  0.904629119315544  0.46823072359351403  1.0000
  O   O17       1.0  0.09593475960677011  0.6528810159131594  0.5324433302953864  1.0000
  O   O18       1.0  0.9047637084030384  0.34642192094594987  0.46839325640929275  1.0000
  O   O19       1.0  0.3471165288078808  0.9040510592604817  0.46755314027379313  1.0000
  O   O20       1.0  0.6535715403284783  0.09522481448384214  0.5316027784664498  1.0000
  O   O21       1.0  0.6283225854443871  0.34712200331299675  0.46771406008482325  1.0000
  O   O22       1.0  0.37316053809674804  0.653521650469308  0.5315296963466452  1.0000
  O   O23       1.0  0.18500884123002242  0.6284451901964517  0.46780226135624053  1.0000
  O   O24       1.0  0.8149939564294683  0.37298565041393783  0.531533730388034  1.0000
  O   O25       1.0  0.9038946414065236  0.18510715496022112  0.46757420661453597  1.0000
  O   O26       1.0  0.09536406545718279  0.815044037104542  0.5317897307814691  1.0000
  O   O27       1.0  0.06452867423920589  0.6855759003418173  0.8618903816097115  1.0000
  O   O28       1.0  0.9266167279358087  0.3144971757660642  0.13811109680261058  1.0000
  O   O29       1.0  0.6854951016423598  0.07399126776118671  0.8618721736969732  1.0000
  O   O30       1.0  0.314472146323773  0.9349581110519124  0.13812183901431044  1.0000
  O   O31       1.0  0.0736485964936264  0.45262894269256293  0.8618929328412576  1.0000
  O   O32       1.0  0.9353823241832941  0.5474905752996547  0.1380609245667586  1.0000
  O   O33       1.0  0.4525548340215336  0.06411430666842936  0.8619464189966876  1.0000
  O   O34       1.0  0.547444184041943  0.926783985913275  0.13809571984072735  1.0000
  O   O35       1.0  0.0603961967821078  0.4154099210777814  0.1516990732257071  1.0000
  O   O36       1.0  0.06023258835348601  0.44736668245737826  0.2169939124520681  1.0000
  O   O37       1.0  0.2119906991967824  0.5846180938668654  0.8483646361835327  1.0000
  O   O38       1.0  0.27705867254229594  0.5524819816950031  0.7831382315232672  1.0000
  O   O39       1.0  0.41594284055098285  0.7879397658975477  0.1516396841792087  1.0000
  O   O40       1.0  0.4481927134148477  0.7231388452692044  0.21687144626951496  1.0000
  O   O41       1.0  0.5850268749986896  0.939645849533278  0.848313395390747  1.0000
  O   O42       1.0  0.55318082757924  0.9395253000499794  0.7830365568818678  1.0000
  O   O43       1.0  0.78796036029771  0.4328806360140615  0.1516475975969911  1.0000
  O   O44       1.0  0.7229798476058348  0.33541556486657237  0.21688147118751286  1.0000
  O   O45       1.0  0.9395485422829494  0.5671455414789719  0.8482589344526942  1.0000
  O   O46       1.0  0.9398701915595424  0.6644631294602092  0.7829436943841513  1.0000
  O   O47       1.0  0.4323968851019444  0.060462918909131184  0.15174580566862522  1.0000
  O   O48       1.0  0.33500080227394585  0.05992198794495347  0.2170789661124743  1.0000
  O   O49       1.0  0.5667394316661145  0.21207245957283774  0.8483341619523301  1.0000
  O   O50       1.0  0.6641672470257305  0.27716053520833833  0.7831202045897214  1.0000
