data_image0
_chemical_formula_structural       Nd4H12C8S4O20
_chemical_formula_sum              "Nd4 H12 C8 S4 O20"
_cell_length_a       7.975274710037609
_cell_length_b       8.322859415064428
_cell_length_c       9.235570424739013
_cell_angle_alpha    95.17047383808749
_cell_angle_beta     90.00033890763548
_cell_angle_gamma    89.99987169639444

_space_group_name_H-M_alt    "P 1"
_space_group_IT_number       1

loop_
  _space_group_symop_operation_xyz
  'x, y, z'

loop_
  _atom_site_type_symbol
  _atom_site_label
  _atom_site_symmetry_multiplicity
  _atom_site_fract_x
  _atom_site_fract_y
  _atom_site_fract_z
  _atom_site_occupancy
  Nd  Nd1       1.0  0.25018039848706053  0.4967328133599266  0.4377465828793349  1.0000
  Nd  Nd2       1.0  0.7501817306691978  0.0032697278630778  0.5622543348805067  1.0000
  Nd  Nd3       1.0  0.749815018972207  0.5032649741452034  0.5622518972233551  1.0000
  Nd  Nd4       1.0  0.24981995617822153  0.9967317026958965  0.4377487560786904  1.0000
  H   H1        1.0  0.5646866084368016  0.3106756560925774  0.13503149796088112  1.0000
  H   H2        1.0  0.0646901806964379  0.18932839452490668  0.864967510322721  1.0000
  H   H3        1.0  0.43531507840209843  0.6893269689477747  0.8649695191416881  1.0000
  H   H4        1.0  0.9353140138744821  0.8106742007058968  0.1350280905806329  1.0000
  H   H5        1.0  0.3783403081987232  0.333263577519233  0.0355791780691206  1.0000
  H   H6        1.0  0.8783402644467702  0.1667363433979645  0.9644232725331391  1.0000
  H   H7        1.0  0.621662632525073  0.6667366466343336  0.9644238202676333  1.0000
  H   H8        1.0  0.12166267626587773  0.8332638628711206  0.035576476080358084  1.0000
  H   H9        1.0  0.5058742115977213  0.1568652136274551  0.9942249166133267  1.0000
  H   H10       1.0  0.005872773656165001  0.3431365161803299  0.005772531831276199  1.0000
  H   H11       1.0  0.4941312368607385  0.8431361930824152  0.005773841390848096  1.0000
  H   H12       1.0  0.9941251515329699  0.6568636543239775  0.9942207173232945  1.0000
  C   C1        1.0  0.3625008349985991  0.1626089365261265  0.1913604714037689  1.0000
  C   C2        1.0  0.8625043397259733  0.3373861851524537  0.8086415302423262  1.0000
  C   C3        1.0  0.63749959797304  0.8373888688592999  0.808641258434605  1.0000
  C   C4        1.0  0.13749985487001481  0.6626092014596165  0.1913589311131858  1.0000
  C   C5        1.0  0.4600242743193733  0.24401159890938828  0.0809310148914477  1.0000
  C   C6        1.0  0.9600249655268132  0.25598696166773033  0.9190684979953829  1.0000
  C   C7        1.0  0.5399786663932745  0.7559886073596969  0.9190687337220567  1.0000
  C   C8        1.0  0.03997797516725401  0.7440132147938882  0.08092583441268889  1.0000
  S   S1        1.0  0.6176416509287962  0.7308726508276209  0.31373138653207633  1.0000
  S   S2        1.0  0.11764255553980263  0.7691266589699878  0.6862687972740815  1.0000
  S   S3        1.0  0.3823562742889879  0.26912877377299077  0.6862706211767176  1.0000
  S   S4        1.0  0.8823503541810923  0.2308699400173424  0.3137328399201138  1.0000
  O   O1        1.0  0.5306318748300995  0.5858182291574747  0.379057062793855  1.0000
  O   O2        1.0  0.030634501467552908  0.9141824260027177  0.6209416993874299  1.0000
  O   O3        1.0  0.469363542629644  0.41418318352224054  0.62094277842656  1.0000
  O   O4        1.0  0.9693646776154669  0.08581777430801199  0.3790569659756713  1.0000
  O   O5        1.0  0.7877614531309122  0.7365071708183064  0.394279568762336  1.0000
  O   O6        1.0  0.2877630709087314  0.7634930679975866  0.6057226336215323  1.0000
  O   O7        1.0  0.21223772596697194  0.26349305333839357  0.60572342956511  1.0000
  O   O8        1.0  0.7122336004634776  0.23650840429601064  0.3942880400128388  1.0000
  O   O9        1.0  0.531492970839871  0.8850766462148697  0.3880396925873839  1.0000
  O   O10       1.0  0.0314887068797631  0.6149252258441961  0.611961332950095  1.0000
  O   O11       1.0  0.46850746212852107  0.11492477838365997  0.6119623151276272  1.0000
  O   O12       1.0  0.9685067105672759  0.3850737501808154  0.3880339900548861  1.0000
  O   O13       1.0  0.3288822670609548  0.24235216523778996  0.3162220342687547  1.0000
  O   O14       1.0  0.8288825906174183  0.2576466316507222  0.6837800787123953  1.0000
  O   O15       1.0  0.6711181659106772  0.7576456401476364  0.683779695569612  1.0000
  O   O16       1.0  0.17111658847520064  0.7423511677742596  0.3162205678817856  1.0000
  O   O17       1.0  0.313340242657553  0.018176454609076097  0.1707425881305298  1.0000
  O   O18       1.0  0.8133372846008344  0.4818235566884397  0.8292562907554599  1.0000
  O   O19       1.0  0.6866652057950234  0.9818273589480386  0.8292552718836462  1.0000
  O   O20       1.0  0.18665938672522495  0.5181754252970238  0.1707401154937145  1.0000
