data_image0
_chemical_formula_structural       Ag4H32C40Br4N8O12
_chemical_formula_sum              "Ag4 H32 C40 Br4 N8 O12"
_cell_length_a       7.132464141715164
_cell_length_b       12.755271415658651
_cell_length_c       14.152050987289915
_cell_angle_alpha    113.60334494597804
_cell_angle_beta     90.00483096698702
_cell_angle_gamma    89.99794673508988

_space_group_name_H-M_alt    "P 1"
_space_group_IT_number       1

loop_
  _space_group_symop_operation_xyz
  'x, y, z'

loop_
  _atom_site_type_symbol
  _atom_site_label
  _atom_site_symmetry_multiplicity
  _atom_site_fract_x
  _atom_site_fract_y
  _atom_site_fract_z
  _atom_site_occupancy
  Ag  Ag1       1.0  0.7893803882009395  0.013421474923120486  0.46634427282216245  1.0000
  Ag  Ag2       1.0  0.7107080180287467  0.513460003201665  0.9663614280503124  1.0000
  Ag  Ag3       1.0  0.210660279398887  0.9865523625373318  0.533633650301006  1.0000
  Ag  Ag4       1.0  0.2894097676266796  0.48655533226485675  0.03364188182017365  1.0000
  H   H1        1.0  0.7525141891382319  0.26206633951559166  0.4908065186599301  1.0000
  H   H2        1.0  0.7475077996480834  0.7620904202080184  0.9907979410666383  1.0000
  H   H3        1.0  0.24749844341327076  0.7379319437412024  0.5091997023598793  1.0000
  H   H4        1.0  0.2524978230495591  0.23792344404140667  0.009207075415730492  1.0000
  H   H5        1.0  0.7549454928172495  0.3731225478351305  0.379500907686392  1.0000
  H   H6        1.0  0.7450515912568534  0.8731391438881675  0.879490202562401  1.0000
  H   H7        1.0  0.24502227317366726  0.6268693142845124  0.6204992143647698  1.0000
  H   H8        1.0  0.2549372059942812  0.1268676748650606  0.12051066398863237  1.0000
  H   H9        1.0  0.9067199303513007  0.060111460613129004  0.12362237005864067  1.0000
  H   H10       1.0  0.5932268864943923  0.5601233314115106  0.623619365733809  1.0000
  H   H11       1.0  0.09327727855197308  0.9398812525523327  0.876377996076698  1.0000
  H   H12       1.0  0.4067591081994948  0.43987548685952055  0.3763919749771246  1.0000
  H   H13       1.0  0.9133895271353437  0.9646485785582826  0.24655028375811838  1.0000
  H   H14       1.0  0.5866228688280086  0.46466171928375394  0.7465552114110706  1.0000
  H   H15       1.0  0.08662310467494899  0.0353525030408122  0.7534510647425137  1.0000
  H   H16       1.0  0.4133911678176503  0.5353434444738241  0.2534614971930224  1.0000
  H   H17       1.0  0.9069667065245355  0.5441968236605349  0.16210945766506057  1.0000
  H   H18       1.0  0.5930244995243327  0.04418420862133128  0.6620700511033488  1.0000
  H   H19       1.0  0.0930529357596015  0.4558060382782686  0.837893111108279  1.0000
  H   H20       1.0  0.40698251861589796  0.9558039009595805  0.3379020353914726  1.0000
  H   H21       1.0  0.936850060623776  0.44801368122785606  0.28102559600876026  1.0000
  H   H22       1.0  0.5631309793081982  0.9479958805217806  0.7809866580039682  1.0000
  H   H23       1.0  0.0631303254185553  0.551993748137207  0.7189811212878963  1.0000
  H   H24       1.0  0.4368480016649769  0.05201623014021811  0.2190015383458643  1.0000
  H   H25       1.0  0.7056503429288127  0.14385150016460102  0.040043370037338405  1.0000
  H   H26       1.0  0.7943254611870146  0.643842581718282  0.5400362878052434  1.0000
  H   H27       1.0  0.2943188254885314  0.8561535387260054  0.9599562764299633  1.0000
  H   H28       1.0  0.20566754280457633  0.3561557022806526  0.45996993350851767  1.0000
  H   H29       1.0  0.679158117159389  0.2546889968170305  0.9314893647017468  1.0000
  H   H30       1.0  0.8208190390605097  0.7546593254537017  0.4314676876442363  1.0000
  H   H31       1.0  0.3208292789458511  0.7453240159625025  0.06851540752846566  1.0000
  H   H32       1.0  0.17917396145931966  0.24531829087368356  0.5685226710074643  1.0000
  C   C1        1.0  0.7881413099656669  0.22167894193999868  0.4090624774560324  1.0000
  C   C2        1.0  0.7118538058029175  0.7217060991317937  0.9090586240057091  1.0000
  C   C3        1.0  0.211841879568837  0.7783143820493308  0.5909437395089155  1.0000
  C   C4        1.0  0.2881391983816428  0.2783117212429219  0.09094468998139862  1.0000
  C   C5        1.0  0.789990400466671  0.28239114840103247  0.3466358402329063  1.0000
  C   C6        1.0  0.7100113242436095  0.7824066675145291  0.8466300813708115  1.0000
  C   C7        1.0  0.2099843755549884  0.7176030410704544  0.6533628213062528  1.0000
  C   C8        1.0  0.28997466916924  0.21759867588684761  0.15337249015434645  1.0000
  C   C9        1.0  0.8282177963896515  0.2255818290706415  0.2409474229576958  1.0000
  C   C10       1.0  0.6717952913779328  0.7255770775646442  0.74093474407897  1.0000
  C   C11       1.0  0.17177801198796064  0.7744214914896618  0.7590595341373215  1.0000
  C   C12       1.0  0.32819911467764484  0.2744301224101521  0.2590697790253529  1.0000
  C   C13       1.0  0.8719019251731267  0.10886520504399042  0.2044455276230224  1.0000
  C   C14       1.0  0.6280664362862396  0.608878842525293  0.7044519654643577  1.0000
  C   C15       1.0  0.12809107711066048  0.8911288311649274  0.7955516709882601  1.0000
  C   C16       1.0  0.3719139501024529  0.39113121960354397  0.29555621673510046  1.0000
  C   C17       1.0  0.8743007158989186  0.054328286354383706  0.2719870001394895  1.0000
  C   C18       1.0  0.6256954875174614  0.5543472934155035  0.771995707890589  1.0000
  C   C19       1.0  0.125696492996191  0.9456700867773122  0.7280121523618489  1.0000
  C   C20       1.0  0.3743087347836678  0.44566430655169154  0.22801930042414398  1.0000
  C   C21       1.0  0.8626255081592688  0.4556562396292635  0.13809432510407052  1.0000
  C   C22       1.0  0.6373628359070054  0.9556382310348397  0.6380653563541613  1.0000
  C   C23       1.0  0.1373997411168659  0.544338647519446  0.8619031175494029  1.0000
  C   C24       1.0  0.3626231524227777  0.04435196509286499  0.36191087614312056  1.0000
  C   C25       1.0  0.8775723924142227  0.4005991059339706  0.20478980402560149  1.0000
  C   C26       1.0  0.6223943914478767  0.9005862733473508  0.7047525118538329  1.0000
  C   C27       1.0  0.12241640524784  0.5994039097444883  0.7952142278645836  1.0000
  C   C28       1.0  0.3775663620469487  0.09941313190520873  0.2952327482196608  1.0000
  C   C29       1.0  0.820944010225901  0.2862038354156483  0.17155877362384328  1.0000
  C   C30       1.0  0.6790326191001981  0.786193651165391  0.6715466042584025  1.0000
  C   C31       1.0  0.17903356986759178  0.7137960139160597  0.8284386742393152  1.0000
  C   C32       1.0  0.3209435595896082  0.21381223961918036  0.3284532866290277  1.0000
  C   C33       1.0  0.7549347499256953  0.23208216357582503  0.070020340644696  1.0000
  C   C34       1.0  0.74505626891262  0.7320693149137087  0.5700047335479254  1.0000
  C   C35       1.0  0.24506105756573496  0.7679222510087417  0.9299812548809072  1.0000
  C   C36       1.0  0.254931125195121  0.26792309347592896  0.4299927074245743  1.0000
  C   C37       1.0  0.7409156884298582  0.29339700854069417  0.008261881804195117  1.0000
  C   C38       1.0  0.7590667899631285  0.7933655099163062  0.5082436452188615  1.0000
  C   C39       1.0  0.2590829229723326  0.7066097335547429  0.991738253272402  1.0000
  C   C40       1.0  0.24091359197929307  0.20660955041111612  0.4917459800464599  1.0000
  Br  Br1       1.0  0.17511981898054066  0.7467344046257199  0.2977844326019152  1.0000
  Br  Br2       1.0  0.3249107679723621  0.24677837939855612  0.7978146867255089  1.0000
  Br  Br3       1.0  0.8249068304266487  0.2532423582704197  0.7022056810207358  1.0000
  Br  Br4       1.0  0.6751243001588846  0.7532515854672184  0.20220204404258618  1.0000
  N   N1        1.0  0.8288560371292846  0.1090533000226088  0.3724078450321712  1.0000
  N   N2        1.0  0.671177307803262  0.6090741477787843  0.8724103207971082  1.0000
  N   N3        1.0  0.17115098614251417  0.8909418929621112  0.6275925232040861  1.0000
  N   N4        1.0  0.3288465413660616  0.3909348316875666  0.12759542224397077  1.0000
  N   N5        1.0  0.7918699875260983  0.40402303933326783  0.04211188159891319  1.0000
  N   N6        1.0  0.7081250258066802  0.9039946434321354  0.5420800576571095  1.0000
  N   N7        1.0  0.20815245925687254  0.5959833074223155  0.9578923965603534  1.0000
  N   N8        1.0  0.29187357998102215  0.09598207024762219  0.4578937249042382  1.0000
  O   O1        1.0  0.035761255598856685  0.8646603280870622  0.3466544316320536  1.0000
  O   O2        1.0  0.4643015952039918  0.3646944111971848  0.8467104933837815  1.0000
  O   O3        1.0  0.9642611813563987  0.13531106888741107  0.6533000892855013  1.0000
  O   O4        1.0  0.5357390889176868  0.635336950883982  0.1533513328295442  1.0000
  O   O5        1.0  0.3684642504814661  0.785196110934578  0.37292345719210823  1.0000
  O   O6        1.0  0.13154031578798  0.2852500405046499  0.8729226918581998  1.0000
  O   O7        1.0  0.6315021198578138  0.21480034144647686  0.6271127444504785  1.0000
  O   O8        1.0  0.8684625006384579  0.7147625269765144  0.1270698920994207  1.0000
  O   O9        1.0  0.0684570951564183  0.6466316373805797  0.32812125138895704  1.0000
  O   O10       1.0  0.43152075933095796  0.1466502634854479  0.8281490271334349  1.0000
  O   O11       1.0  0.9315331008079184  0.3533562179661375  0.6718642415292422  1.0000
  O   O12       1.0  0.5684708410657322  0.8533527650920693  0.17184720463785655  1.0000
