data_image0
_chemical_formula_structural       Cd3H66C70N4O16
_chemical_formula_sum              "Cd3 H66 C70 N4 O16"
_cell_length_a       9.368576055386775
_cell_length_b       14.387978060971768
_cell_length_c       14.753322680304207
_cell_angle_alpha    70.73693789496501
_cell_angle_beta     87.82185817200543
_cell_angle_gamma    91.97738045476744

_space_group_name_H-M_alt    "P 1"
_space_group_IT_number       1

loop_
  _space_group_symop_operation_xyz
  'x, y, z'

loop_
  _atom_site_type_symbol
  _atom_site_label
  _atom_site_symmetry_multiplicity
  _atom_site_fract_x
  _atom_site_fract_y
  _atom_site_fract_z
  _atom_site_occupancy
  Cd  Cd1       1.0  0.38960385216819293  0.38379756908050666  0.31920258646749744  1.0000
  Cd  Cd2       1.0  0.6103962423464112  0.6162021990323796  0.6807990064771731  1.0000
  Cd  Cd3       1.0  0.49999585557563353  0.5000027635464548  0.4999983076171261  1.0000
  H   H1        1.0  0.027517107773959992  0.292183013278752  0.6078542331473287  1.0000
  H   H2        1.0  0.972483241357686  0.7078190126512923  0.39215135308417354  1.0000
  H   H3        1.0  0.9790948604040606  0.2145107695636028  0.7837131476985847  1.0000
  H   H4        1.0  0.0209088196026954  0.7854935130053491  0.2162922514160499  1.0000
  H   H5        1.0  0.4224708746723138  0.1451740281256306  0.8171853335340558  1.0000
  H   H6        1.0  0.5775321333485336  0.8548213300685603  0.18281489211803154  1.0000
  H   H7        1.0  0.47058924822906784  0.23003536258081436  0.6419055018663613  1.0000
  H   H8        1.0  0.5294072137611536  0.7699584237228123  0.3580934476054836  1.0000
  H   H9        1.0  0.0162454960750793  0.23670849728552676  0.9236199280626565  1.0000
  H   H10       1.0  0.9837622691986142  0.7632935993848023  0.07638332867684032  1.0000
  H   H11       1.0  0.0639961505927005  0.004308654763811101  0.19045486880843748  1.0000
  H   H12       1.0  0.9360060380708999  0.9956911259253118  0.8095452871610362  1.0000
  H   H13       1.0  0.30669570074394414  0.008997833999316604  0.9351292763528392  1.0000
  H   H14       1.0  0.6933034407606229  0.9910048625318384  0.06487070968516662  1.0000
  H   H15       1.0  0.9888794252655655  0.3228361050333532  0.02195829345111384  1.0000
  H   H16       1.0  0.011127224246259018  0.6771645113148071  0.9780461694928135  1.0000
  H   H17       1.0  0.802612256357456  0.39876250629384197  0.09604348368532102  1.0000
  H   H18       1.0  0.1973921563859875  0.6012373270567082  0.9039592851907371  1.0000
  H   H19       1.0  0.6639500869735996  0.11389671386727682  0.2916088942261084  1.0000
  H   H20       1.0  0.3360412919066532  0.8861058050297075  0.7083826216191439  1.0000
  H   H21       1.0  0.8409586728190703  0.0354540785921458  0.2138301250234633  1.0000
  H   H22       1.0  0.1590383476367023  0.9645507763286505  0.7861665165327026  1.0000
  H   H23       1.0  0.2408375057927472  0.9259863132303964  0.2622112969134918  1.0000
  H   H24       1.0  0.7591675747219567  0.07400905085916072  0.7377868167831068  1.0000
  H   H25       1.0  0.29599530705760907  0.7550983634792631  0.35711637994839407  1.0000
  H   H26       1.0  0.7040054985385352  0.24489694873435042  0.642881907777408  1.0000
  H   H27       1.0  0.32745946960327643  0.6795784533026249  0.09958746842145426  1.0000
  H   H28       1.0  0.6725424211330021  0.3204190562075908  0.9004073443006034  1.0000
  H   H29       1.0  0.2703170246334992  0.8496834000891981  0.0028109248605688625  1.0000
  H   H30       1.0  0.7296818062552007  0.15031629492689552  0.9971846367687289  1.0000
  H   H31       1.0  0.9509975029899351  0.38072434080744705  0.4386714344322442  1.0000
  H   H32       1.0  0.0489917325098546  0.6192716125304473  0.5613318128775404  1.0000
  H   H33       1.0  0.782826044211987  0.31823853515667383  0.4438209517133629  1.0000
  H   H34       1.0  0.2171623196536743  0.6817625509697083  0.5561792821342023  1.0000
  H   H35       1.0  0.8036229967945019  0.39640967289279416  0.5138598694196972  1.0000
  H   H36       1.0  0.1963695225481743  0.603587069730814  0.4861443534703583  1.0000
  H   H37       1.0  0.8625643207612299  0.6083403663839634  0.1417144526535168  1.0000
  H   H38       1.0  0.1374379545229303  0.39165944102862227  0.8582884032371467  1.0000
  H   H39       1.0  0.7372170632503908  0.6328607401912691  0.22458275368675368  1.0000
  H   H40       1.0  0.2627842119915016  0.3671405282863986  0.7754196579943765  1.0000
  H   H41       1.0  0.6949336409107332  0.5380344770069314  0.17545647090809516  1.0000
  H   H42       1.0  0.305068750093028  0.4619682717929052  0.8245447345685973  1.0000
  H   H43       1.0  0.03192854982935958  0.5117270727045237  0.19000904509340444  1.0000
  H   H44       1.0  0.9680705065773478  0.4882719654649463  0.8099948601578788  1.0000
  H   H45       1.0  0.9697196492730241  0.38897628227945097  0.25609342151207665  1.0000
  H   H46       1.0  0.030277265952456393  0.6110212759605957  0.7439130834115417  1.0000
  H   H47       1.0  0.06202162468134989  0.4618884363192493  0.3138460579797808  1.0000
  H   H48       1.0  0.9379775183459174  0.5381106285736977  0.6861605471926923  1.0000
  H   H49       1.0  0.33765190698261455  0.42982781318927726  0.9874253222766214  1.0000
  H   H50       1.0  0.6623559993877634  0.5701786855406255  0.012574446371473934  1.0000
  H   H51       1.0  0.38434579822440174  0.4805724087173716  0.07784292809866863  1.0000
  H   H52       1.0  0.6156622074550883  0.5194348470721692  0.9221586216319011  1.0000
  H   H53       1.0  0.20265668532628922  0.4710257489923038  0.052389160920874575  1.0000
  H   H54       1.0  0.7973502516235554  0.5289814938282476  0.9476124323169941  1.0000
  H   H55       1.0  0.41038902330813437  0.1739127553006838  0.043320502929255204  1.0000
  H   H56       1.0  0.5896124908168544  0.8260973039343967  0.9566735826084809  1.0000
  H   H57       1.0  0.5078503456109473  0.28690884994664156  0.02866045352831043  1.0000
  H   H58       1.0  0.49214783391697386  0.7130974986580726  0.9713363317840089  1.0000
  H   H59       1.0  0.33994606825881135  0.2861127234393805  0.9749861435621838  1.0000
  H   H60       1.0  0.6600574765724474  0.7138936966911231  0.025011099193925246  1.0000
  H   H61       1.0  0.33725813150005013  0.10115076072874982  0.18767874265437  1.0000
  H   H62       1.0  0.6627388113017574  0.8988533438132863  0.8123167927996207  1.0000
  H   H63       1.0  0.20134908018486897  0.15374911302909314  0.24133238518820826  1.0000
  H   H64       1.0  0.7986489186580384  0.8462542741457642  0.7586640255971985  1.0000
  H   H65       1.0  0.3833785341894398  0.1685606885496895  0.266362022369492  1.0000
  H   H66       1.0  0.616619361622412  0.831440487574085  0.7336351199911633  1.0000
  C   C1        1.0  0.2528889864027448  0.26622420147793957  0.614098650785962  1.0000
  C   C2        1.0  0.747111173077279  0.7337755866775524  0.38590496709960576  1.0000
  C   C3        1.0  0.11370405307814481  0.2606787653633091  0.6542244084674351  1.0000
  C   C4        1.0  0.8862940719736584  0.7393232079053007  0.34577856485747555  1.0000
  C   C5        1.0  0.086989507551678  0.2165653278221811  0.7528439814433767  1.0000
  C   C6        1.0  0.913015210562982  0.7834396846901795  0.2471591053646521  1.0000
  C   C7        1.0  0.19658640984602727  0.173476509290488  0.8132371413224745  1.0000
  C   C8        1.0  0.803416778859841  0.8265218103335529  0.1867634588565324  1.0000
  C   C9        1.0  0.33497752952071375  0.1764794493387143  0.7718309527398829  1.0000
  C   C10       1.0  0.6650248308613058  0.8235240164355491  0.228167983937503  1.0000
  C   C11       1.0  0.3627437103571651  0.2239616446389476  0.6737805355610718  1.0000
  C   C12       1.0  0.6372562378161035  0.776035899061114  0.32622043899826286  1.0000
  C   C13       1.0  0.16590471410172106  0.1283448831772702  0.9179457211623471  1.0000
  C   C14       1.0  0.8341006643402977  0.8716527520911798  0.08205773578166742  1.0000
  C   C15       1.0  0.06805338908460358  0.1705837715272835  0.9651413960270929  1.0000
  C   C16       1.0  0.9319532731157664  0.829417575157038  0.034862148078126244  1.0000
  C   C17       1.0  0.0324009445854472  0.1280306138389875  0.0637428913962665  1.0000
  C   C18       1.0  0.9675987848371645  0.8719617774227331  0.9362604651522941  1.0000
  C   C19       1.0  0.0949018621625655  0.040281450890155716  0.11461616596387358  1.0000
  C   C20       1.0  0.9051025072705909  0.9597183690986596  0.8853852529515932  1.0000
  C   C21       1.0  0.19458905373775082  0.996777732875941  0.06977557896995275  1.0000
  C   C22       1.0  0.8054142305552786  0.0032198898162790015  0.9302293149492584  1.0000
  C   C23       1.0  0.23068546832099907  0.04238025897048911  0.9714245409202815  1.0000
  C   C24       1.0  0.769316591934455  0.9576158499952143  0.028578184301878244  1.0000
  C   C25       1.0  0.9279322831273332  0.17346092827745  0.11172903684540363  1.0000
  C   C26       1.0  0.07206889280545428  0.8265395831405796  0.8882715937532525  1.0000
  C   C27       1.0  0.9158948971304923  0.2763385958901097  0.07977342261413867  1.0000
  C   C28       1.0  0.0841075588386957  0.7236641729523258  0.9202298078034515  1.0000
  C   C29       1.0  0.8134162435810808  0.3193353641136482  0.12145217005858201  1.0000
  C   C30       1.0  0.1865827299270038  0.6806651013238113  0.8785465226137814  1.0000
  C   C31       1.0  0.7216328811427245  0.26118301706660674  0.19789501077373473  1.0000
  C   C32       1.0  0.2783619458549467  0.7388210682183284  0.8021012866751532  1.0000
  C   C33       1.0  0.7349337624178318  0.15887810016420192  0.2318523461031248  1.0000
  C   C34       1.0  0.2650600391604812  0.8411259855134858  0.7681453448136609  1.0000
  C   C35       1.0  0.8356347836650287  0.11554582214929353  0.1886997894454367  1.0000
  C   C36       1.0  0.1643599186464471  0.8844560454036882  0.8112965645984074  1.0000
  C   C37       1.0  0.24989507040280762  0.900744317002598  0.12511243039564593  1.0000
  C   C38       1.0  0.7500984564260306  0.09925387253885282  0.87488721138849  1.0000
  C   C39       1.0  0.2605665761419473  0.8728229121740727  0.22544934831763175  1.0000
  C   C40       1.0  0.7394343287633018  0.127173157099179  0.7745507204906446  1.0000
  C   C41       1.0  0.2915411507131083  0.7771297230086206  0.2792122560589688  1.0000
  C   C42       1.0  0.7084586294636849  0.22286558959774538  0.7207874251347307  1.0000
  C   C43       1.0  0.31492621222636796  0.7067151023865893  0.23419976562178133  1.0000
  C   C44       1.0  0.6850737090471098  0.2932846122793507  0.7657964274805166  1.0000
  C   C45       1.0  0.31012666935259864  0.734917510620406  0.13400222624124308  1.0000
  C   C46       1.0  0.6898646371183403  0.26508208025106234  0.8659922899785784  1.0000
  C   C47       1.0  0.2794446314813541  0.8306468511801128  0.08015905054510608  1.0000
  C   C48       1.0  0.7205631576467226  0.16936033780074675  0.9198357493824858  1.0000
  C   C49       1.0  0.28674641661772426  0.3156064886906549  0.5092228118486588  1.0000
  C   C50       1.0  0.7132506016388049  0.6843932806004814  0.490782961499704  1.0000
  C   C51       1.0  0.6094312668170545  0.3087714276577883  0.2401108920126376  1.0000
  C   C52       1.0  0.3905700935226974  0.6912334991815499  0.7598876004552152  1.0000
  C   C53       1.0  0.3446584203477983  0.6025684673622251  0.2922044108789663  1.0000
  C   C54       1.0  0.655336933324449  0.397426746602136  0.7077907194818565  1.0000
  C   C55       1.0  0.7775919096741077  0.4698827761307599  0.3653617592023649  1.0000
  C   C56       1.0  0.22240387557825156  0.5301162030891575  0.6346402516299392  1.0000
  C   C57       1.0  0.8353339682929787  0.38755161707003083  0.44503622398151776  1.0000
  C   C58       1.0  0.16465649496633014  0.6124473039858316  0.5549666793675883  1.0000
  C   C59       1.0  0.7819470990848743  0.5752685268104117  0.2003920227459516  1.0000
  C   C60       1.0  0.2180541761570183  0.4247327416672564  0.7996103889351786  1.0000
  C   C61       1.0  0.9848381859477372  0.46377100772605934  0.2594276402466776  1.0000
  C   C62       1.0  0.0151629952297014  0.5362273260452214  0.7405770968287229  1.0000
  C   C63       1.0  0.2866254148043552  0.3379630531685721  0.13888149646503214  1.0000
  C   C64       1.0  0.7133771606063702  0.6620441110525733  0.8611175708808575  1.0000
  C   C65       1.0  0.30433792730718773  0.43440013849176756  0.05755027262662082  1.0000
  C   C66       1.0  0.6956700604390987  0.5656085646083611  0.9424480894659197  1.0000
  C   C67       1.0  0.4003324222583585  0.25088835480315913  0.038494284941315016  1.0000
  C   C68       1.0  0.5996658782338145  0.7491187575420569  0.9615049564337781  1.0000
  C   C69       1.0  0.31161858605786813  0.16375979357125206  0.21070571249484257  1.0000
  C   C70       1.0  0.6883806188894113  0.8362465546407026  0.7892896793495864  1.0000
  N   N1        1.0  0.8503702553570703  0.5039808251365727  0.279502345572844  1.0000
  N   N2        1.0  0.14962660759152874  0.4960174433970367  0.7205012155711685  1.0000
  N   N3        1.0  0.3264120724226416  0.25369158210190085  0.1265320425830794  1.0000
  N   N4        1.0  0.6735884125610382  0.7463170235344735  0.8734659490802769  1.0000
  O   O1        1.0  0.41735889550454175  0.3511846198098852  0.4832790255085797  1.0000
  O   O2        1.0  0.5826368337489926  0.6488136157121362  0.5167225542018413  1.0000
  O   O3        1.0  0.19455067089474198  0.3197649413654844  0.4482375237592962  1.0000
  O   O4        1.0  0.8054502952539905  0.6802296939589071  0.5517670826476005  1.0000
  O   O5        1.0  0.5789017128075145  0.3966771455851728  0.19297909764104298  1.0000
  O   O6        1.0  0.4211006169527706  0.603327037163517  0.8070175702370292  1.0000
  O   O7        1.0  0.5459449886579222  0.2589800436793013  0.32082178186610827  1.0000
  O   O8        1.0  0.45405076072805156  0.7410218301617917  0.6791738536901376  1.0000
  O   O9        1.0  0.3573141141198874  0.5426463237327611  0.24539452020106006  1.0000
  O   O10       1.0  0.6426952741343541  0.45735346088796563  0.7545965564734444  1.0000
  O   O11       1.0  0.3519887131282502  0.5823018696337741  0.38237271402353196  1.0000
  O   O12       1.0  0.6479967599163103  0.4176880618096562  0.617623839931646  1.0000
  O   O13       1.0  0.6588761403254466  0.506039706059866  0.37548085927749497  1.0000
  O   O14       1.0  0.3411218854172446  0.4939615101491057  0.6245203329649484  1.0000
  O   O15       1.0  0.2348461096337928  0.33634651280674893  0.21978140524533527  1.0000
  O   O16       1.0  0.7651520915492682  0.6636598424788289  0.7802160550472833  1.0000
