data_image0
_chemical_formula_structural       Gd2H24C32O22
_chemical_formula_sum              "Gd2 H24 C32 O22"
_cell_length_a       5.9091869993897195
_cell_length_b       9.91757880550793
_cell_length_c       14.745724317879537
_cell_angle_alpha    85.527170904111
_cell_angle_beta     88.94119841943233
_cell_angle_gamma    74.48461984050199

_space_group_name_H-M_alt    "P 1"
_space_group_IT_number       1

loop_
  _space_group_symop_operation_xyz
  'x, y, z'

loop_
  _atom_site_type_symbol
  _atom_site_label
  _atom_site_symmetry_multiplicity
  _atom_site_fract_x
  _atom_site_fract_y
  _atom_site_fract_z
  _atom_site_occupancy
  Gd  Gd1       1.0  0.829990004433348  0.7071587699052915  0.4582046050233188  1.0000
  Gd  Gd2       1.0  0.16999233261228847  0.2928545947908887  0.5418022680415078  1.0000
  H   H1        1.0  0.6242933092034091  0.8942117021502866  0.019243902903326688  1.0000
  H   H2        1.0  0.3757211041012455  0.10577532217995866  0.9807520008476588  1.0000
  H   H3        1.0  0.2707817542429965  0.6056280827257438  0.5697199667766881  1.0000
  H   H4        1.0  0.7292402091644873  0.3943568038969048  0.4302807725558466  1.0000
  H   H5        1.0  0.20401604699564047  0.7709791261428551  0.5751557249538877  1.0000
  H   H6        1.0  0.7959927369263226  0.22900478361288634  0.4248471310458227  1.0000
  H   H7        1.0  0.043940601690699826  0.847175022925342  0.29929967049484657  1.0000
  H   H8        1.0  0.9560469980312047  0.1528257459408735  0.7007139240569416  1.0000
  H   H9        1.0  0.20232943001548145  0.848237712677154  0.3862865495478047  1.0000
  H   H10       1.0  0.7976663274346549  0.15176719575415382  0.6137335993391488  1.0000
  H   H11       1.0  0.5973913083027041  0.6800359418768381  0.14104782774285948  1.0000
  H   H12       1.0  0.40259464691046526  0.3199920566341419  0.8589650855184061  1.0000
  H   H13       1.0  0.362883582900821  0.6145019093837619  0.020973958008241297  1.0000
  H   H14       1.0  0.6371289327591398  0.3855238555581337  0.9790322182555754  1.0000
  H   H15       1.0  0.09788917872372592  0.45920158388044297  0.0647016392910302  1.0000
  H   H16       1.0  0.9021536657103366  0.5407905246982169  0.9352885127205823  1.0000
  H   H17       1.0  0.7179502885649924  0.2908068383244569  0.137479762356655  1.0000
  H   H18       1.0  0.28203948374896015  0.7091981186722479  0.862513948814822  1.0000
  H   H19       1.0  0.13240664490399445  0.860133643278161  0.1362127581003847  1.0000
  H   H20       1.0  0.8675939883416531  0.1398691564304357  0.8637884941695546  1.0000
  H   H21       1.0  0.4423571180126371  0.91597143363515  0.2277891499484781  1.0000
  H   H22       1.0  0.5576678575596503  0.0840270559652296  0.7721966581143676  1.0000
  H   H23       1.0  0.3902519992636255  0.1616270624636797  0.2715993788770561  1.0000
  H   H24       1.0  0.6097623229375982  0.8383725313594326  0.7283870788618356  1.0000
  C   C1        1.0  0.17909706350533125  0.4478015049511372  0.2068782005270435  1.0000
  C   C2        1.0  0.8209050586600314  0.5522023386393187  0.7931148571667421  1.0000
  C   C3        1.0  0.3071504643853872  0.4855770148194267  0.2749486901872801  1.0000
  C   C4        1.0  0.6928637063776009  0.5144141962069851  0.7250510737868935  1.0000
  C   C5        1.0  0.45890825011851166  0.5699576153539496  0.24997231755112637  1.0000
  C   C6        1.0  0.5410940552207463  0.4300409845311961  0.7500338883346771  1.0000
  C   C7        1.0  0.47858673913871996  0.6148153134358127  0.1584262993195509  1.0000
  C   C8        1.0  0.5214271412761846  0.3851915982873138  0.8415814958806251  1.0000
  C   C9        1.0  0.3490965260094611  0.5764605334559006  0.09160921212622242  1.0000
  C   C10       1.0  0.6509215397881075  0.42355263990317843  0.9083941897038201  1.0000
  C   C11       1.0  0.20015228975479704  0.49150833575914293  0.1155925351214293  1.0000
  C   C12       1.0  0.7998748218058367  0.5084922291668975  0.8844046932712785  1.0000
  C   C13       1.0  0.27537304734300244  0.429269205030984  0.3705411221956468  1.0000
  C   C14       1.0  0.724638375296834  0.5707241119053138  0.6294632907127848  1.0000
  C   C15       1.0  0.5986925408685905  0.6134056424687202  0.31995855207211576  1.0000
  C   C16       1.0  0.4013090718267165  0.3866023838741199  0.6800471834855415  1.0000
  C   C17       1.0  0.05324683979131346  0.23894155607439424  0.2057817201314052  1.0000
  C   C18       1.0  0.9467616210798581  0.761051785599662  0.7942084564992129  1.0000
  C   C19       1.0  0.876614106528933  0.20862899908291868  0.1564970799359529  1.0000
  C   C20       1.0  0.12338302500639728  0.7913706832383698  0.8434968768999623  1.0000
  C   C21       1.0  0.906406632349828  0.0715177221561305  0.1313312342782424  1.0000
  C   C22       1.0  0.09358617777971966  0.9284840770787713  0.8686633056132607  1.0000
  C   C23       1.0  0.11016753328776474  0.9658917668368049  0.15706796844457216  1.0000
  C   C24       1.0  0.8898327858787096  0.034107894083767604  0.8429327635885855  1.0000
  C   C25       1.0  0.28465899528418953  0.9981566297398317  0.20702196071157175  1.0000
  C   C26       1.0  0.7153602588349485  0.0018314194984938989  0.7929670974200888  1.0000
  C   C27       1.0  0.25770588663524296  0.13479407477341715  0.23141949343803248  1.0000
  C   C28       1.0  0.7423107220255073  0.8651960818916398  0.7685708222276304  1.0000
  C   C29       1.0  0.7257035764936788  0.04184061486594  0.0734678696820126  1.0000
  C   C30       1.0  0.2743052318150205  0.9581474855297358  0.9265300289001955  1.0000
  C   C31       1.0  0.6013894415738575  0.0132530105986532  0.5272816310188873  1.0000
  C   C32       1.0  0.39855999312104007  0.9867542504016383  0.472725630363712  1.0000
  O   O1        1.0  0.014959876574138772  0.37436597777759323  0.23294084742702378  1.0000
  O   O2        1.0  0.9850497036235807  0.6256284023177088  0.767053343668394  1.0000
  O   O3        1.0  0.3893293958743339  0.3052990581858168  0.39628124242910456  1.0000
  O   O4        1.0  0.610675199778228  0.6946942948778414  0.6037245422460131  1.0000
  O   O5        1.0  0.12117741804870966  0.501346836470077  0.4222582261194957  1.0000
  O   O6        1.0  0.878822901117765  0.49865282445049525  0.5777425059136548  1.0000
  O   O7        1.0  0.592390312782136  0.5634731579521599  0.4031043407054611  1.0000
  O   O8        1.0  0.40763419727274913  0.43651381006349504  0.5968942533558773  1.0000
  O   O9        1.0  0.7180160864684735  0.7002661629343622  0.2984166614649482  1.0000
  O   O10       1.0  0.282001698608262  0.2997354915702816  0.701593421843107  1.0000
  O   O11       1.0  0.5614608920112402  0.13841690605020324  0.038868253443091284  1.0000
  O   O12       1.0  0.43855712343740555  0.8615742932832334  0.9611165807666353  1.0000
  O   O13       1.0  0.7547337512643254  0.9078343554768724  0.06111541906275869  1.0000
  O   O14       1.0  0.24527847053800395  0.09215372685513763  0.9388817936361065  1.0000
  O   O15       1.0  0.7967849680533801  0.9241724478765576  0.5268477686007174  1.0000
  O   O16       1.0  0.20314915213470627  0.07585165621159012  0.4731444452870193  1.0000
  O   O17       1.0  0.5523954891339216  0.1259159977164899  0.5688028428691255  1.0000
  O   O18       1.0  0.44752586060503313  0.874101889136476  0.4311971747972336  1.0000
  O   O19       1.0  0.14884193358143694  0.6950130225103238  0.5542495759570868  1.0000
  O   O20       1.0  0.851145796078704  0.3049762335688088  0.44575713447166265  1.0000
  O   O21       1.0  0.061512619720439025  0.8218257369112082  0.3643292688272979  1.0000
  O   O22       1.0  0.9384569840881978  0.17817722081996124  0.6356883305934957  1.0000
