data_image0
_chemical_formula_structural       Co2Ag2H18C22N2O10
_chemical_formula_sum              "Co2 Ag2 H18 C22 N2 O10"
_cell_length_a       5.9275244356264984
_cell_length_b       7.649782264149955
_cell_length_c       13.078091886999506
_cell_angle_alpha    103.74642928732442
_cell_angle_beta     99.30759581817162
_cell_angle_gamma    92.34613868738589

_space_group_name_H-M_alt    "P 1"
_space_group_IT_number       1

loop_
  _space_group_symop_operation_xyz
  'x, y, z'

loop_
  _atom_site_type_symbol
  _atom_site_label
  _atom_site_symmetry_multiplicity
  _atom_site_fract_x
  _atom_site_fract_y
  _atom_site_fract_z
  _atom_site_occupancy
  Co  Co1       1.0  0.02099643940835699  0.8748082606383463  0.22951492781997018  1.0000
  Co  Co2       1.0  0.9790064017292578  0.1251863387592991  0.7704833158504627  1.0000
  Ag  Ag1       1.0  0.6769809069583843  0.4251946698606233  0.44776045644078977  1.0000
  Ag  Ag2       1.0  0.32300128148582263  0.5747810305100173  0.5522259263589362  1.0000
  H   H1        1.0  0.7126724831881005  0.004362129073797399  0.08296355009166231  1.0000
  H   H2        1.0  0.2873398424555091  0.9956244491406991  0.9170289094994714  1.0000
  H   H3        1.0  0.7970611978072738  0.6518876694094117  0.033801704792317366  1.0000
  H   H4        1.0  0.2029601752850994  0.3481042772154765  0.966199070313138  1.0000
  H   H5        1.0  0.2550242744278677  0.632930164620241  0.1008275396346647  1.0000
  H   H6        1.0  0.7450002691755984  0.3670766078590334  0.8991793957564838  1.0000
  H   H7        1.0  0.44459660861519973  0.9751783030159302  0.1877123912817922  1.0000
  H   H8        1.0  0.555422809386954  0.0248284594608279  0.8122933968812518  1.0000
  H   H9        1.0  0.10780480303773027  0.201841400802877  0.179050418114997  1.0000
  H   H10       1.0  0.892208829013974  0.7981586201286605  0.8209509257048639  1.0000
  H   H11       1.0  0.7170083925230698  0.07010647811415541  0.3464537449754985  1.0000
  H   H12       1.0  0.282973006477647  0.929878635387375  0.6535377364865412  1.0000
  H   H13       1.0  0.6270673058035641  0.7071678562630909  0.2712474871812915  1.0000
  H   H14       1.0  0.3729093866695976  0.29282131875091716  0.7287411613239884  1.0000
  H   H15       1.0  0.027387448999476795  0.5528500633020385  0.2967495495465969  1.0000
  H   H16       1.0  0.9725890513851141  0.44713767985630426  0.7032480575296347  1.0000
  H   H17       1.0  0.3654825119037568  0.8203717323277219  0.38980012834033323  1.0000
  H   H18       1.0  0.6345052465853627  0.1796092437852009  0.610203474037796  1.0000
  C   C1        1.0  0.8783930085622416  0.950435016169301  0.09607269256135  1.0000
  C   C2        1.0  0.1216292074410532  0.04956508027503761  0.9039239477539454  1.0000
  C   C3        1.0  0.9255292792607648  0.7643226589375018  0.06975016300481222  1.0000
  C   C4        1.0  0.0745110496235242  0.23567071321907923  0.9302506944741609  1.0000
  C   C5        1.0  0.1663404280812983  0.7550361426217903  0.10317649873173447  1.0000
  C   C6        1.0  0.8336672497483448  0.24495573885613453  0.8968255426516195  1.0000
  C   C7        1.0  0.26682349333788835  0.9357641321048933  0.150306179690773  1.0000
  C   C8        1.0  0.7331822484551012  0.06424259238271192  0.8496978214187437  1.0000
  C   C9        1.0  0.0888405078093513  0.056589551551027684  0.146038853430575  1.0000
  C   C10       1.0  0.9111719241817653  0.9433983363089595  0.8539583875809882  1.0000
  C   C11       1.0  0.8405843462586515  0.9695994059682745  0.3478473922057645  1.0000
  C   C12       1.0  0.1594237744617146  0.0303965809719173  0.6521491467846587  1.0000
  C   C13       1.0  0.7936381155729393  0.7785066764508457  0.3080648181479191  1.0000
  C   C14       1.0  0.2063585491208215  0.2214771506233078  0.6919260869108612  1.0000
  C   C15       1.0  0.005653415849316386  0.6960220591325949  0.321871824143706  1.0000
  C   C16       1.0  0.9943240136700241  0.3039576280665273  0.6781201223606601  1.0000
  C   C17       1.0  0.184185167944463  0.8361473908181623  0.3695999396543499  1.0000
  C   C18       1.0  0.8157897572464208  0.16384169712507196  0.630397740880106  1.0000
  C   C19       1.0  0.083163669244513  0.0064788221069349995  0.3858235220768123  1.0000
  C   C20       1.0  0.9168071848808877  0.9935035366778564  0.6141690787466842  1.0000
  C   C21       1.0  0.21644653023651728  0.18649424394666164  0.4283391486985906  1.0000
  C   C22       1.0  0.7835073617770902  0.8134555997813492  0.5716544642406447  1.0000
  N   N1        1.0  0.5488915308159078  0.35978928104272256  0.1888080540911403  1.0000
  N   N2        1.0  0.4510975019122582  0.6402727227714636  0.8112040684934386  1.0000
  O   O1        1.0  0.43216819369622766  0.18476758045299144  0.43318049600329545  1.0000
  O   O2        1.0  0.5678655840938304  0.8152121692476796  0.5668294133402014  1.0000
  O   O3        1.0  0.10639327213139178  0.32372038507490686  0.45769195365330967  1.0000
  O   O4        1.0  0.8935761618518399  0.6762821843011508  0.5423072292538365  1.0000
  O   O5        1.0  0.70282138665074  0.3103820437386133  0.2546300773491765  1.0000
  O   O6        1.0  0.2971523421728435  0.6895774296561824  0.7453533765105789  1.0000
  O   O7        1.0  0.39366066924911536  0.4543856340102365  0.2240699232387087  1.0000
  O   O8        1.0  0.60631541993083  0.5456003649775526  0.7759717557197803  1.0000
  O   O9        1.0  0.5542865373332688  0.3141311895015519  0.09014597931243881  1.0000
  O   O10       1.0  0.4457887425264104  0.686108175906334  0.90987093167832  1.0000
