data_image0
_chemical_formula_structural       Co4H44C56N20O24
_chemical_formula_sum              "Co4 H44 C56 N20 O24"
_cell_length_a       8.67196048203639
_cell_length_b       9.540781613583471
_cell_length_c       19.040459684642773
_cell_angle_alpha    100.65885248513305
_cell_angle_beta     89.99969679298037
_cell_angle_gamma    90.00019004546373

_space_group_name_H-M_alt    "P 1"
_space_group_IT_number       1

loop_
  _space_group_symop_operation_xyz
  'x, y, z'

loop_
  _atom_site_type_symbol
  _atom_site_label
  _atom_site_symmetry_multiplicity
  _atom_site_fract_x
  _atom_site_fract_y
  _atom_site_fract_z
  _atom_site_occupancy
  Co  Co1       1.0  0.8833511584050697  0.49585765012696476  0.6246400567065747  1.0000
  Co  Co2       1.0  0.3833522886326364  0.004145638437592003  0.8753585145740813  1.0000
  Co  Co3       1.0  0.11664594743836426  0.5041401732831546  0.3753594853781407  1.0000
  Co  Co4       1.0  0.6166482766442413  0.9958607235768542  0.12464231850889719  1.0000
  H   H1        1.0  0.4506765586549689  0.5664904293665598  0.5879651034983195  1.0000
  H   H2        1.0  0.9506730094406134  0.9335088668492446  0.9120348203024304  1.0000
  H   H3        1.0  0.5493263128882544  0.43350741350217004  0.41203601594597916  1.0000
  H   H4        1.0  0.04932524955043498  0.06649108310715228  0.08796438729572738  1.0000
  H   H5        1.0  0.5577809532926421  0.4034109762957883  0.8325082182009068  1.0000
  H   H6        1.0  0.057782533887149184  0.09659054949975848  0.6674925519684931  1.0000
  H   H7        1.0  0.44221615254721053  0.5965911326248231  0.16749328385645865  1.0000
  H   H8        1.0  0.9422168782412467  0.9034083404274537  0.3325070857653642  1.0000
  H   H9        1.0  0.5731414173809312  0.73561051798427  0.4346410080171593  1.0000
  H   H10       1.0  0.07314249322992339  0.7643902702693312  0.06535984012694479  1.0000
  H   H11       1.0  0.42686145415785853  0.2643862648540036  0.5653605415641109  1.0000
  H   H12       1.0  0.9268603783415935  0.23561285978352234  0.9346380770552397  1.0000
  H   H13       1.0  0.6885052313548029  0.17944610844796927  0.44958373819471115  1.0000
  H   H14       1.0  0.18850668628491005  0.3205537541542682  0.05041592832012039  1.0000
  H   H15       1.0  0.3114953339084251  0.8205474489077319  0.5504154212794886  1.0000
  H   H16       1.0  0.811495032136797  0.6794526013773492  0.9495843789729435  1.0000
  H   H17       1.0  0.8687740802391274  0.9433511206719699  0.603523901823884  1.0000
  H   H18       1.0  0.36877515656379245  0.556650109077964  0.8964748163262254  1.0000
  H   H19       1.0  0.13122187245782158  0.0566477822196205  0.3964767874910746  1.0000
  H   H20       1.0  0.6312207961586579  0.44335194796864397  0.10352247942325477  1.0000
  H   H21       1.0  0.17517745437844207  0.5990609130835978  0.5455737896007306  1.0000
  H   H22       1.0  0.6751755991523254  0.9009367045004595  0.954426119634817  1.0000
  H   H23       1.0  0.8248219577366384  0.4009347967522245  0.45442713854402667  1.0000
  H   H24       1.0  0.32482381298024876  0.0990653849704088  0.045573805054068786  1.0000
  H   H25       1.0  0.4529324004859701  0.45714971298081497  0.7008676073170788  1.0000
  H   H26       1.0  0.9529298910031372  0.042849501387856  0.7991335828172691  1.0000
  H   H27       1.0  0.5470670116271917  0.5428492093668495  0.29913465935999983  1.0000
  H   H28       1.0  0.047066061699901185  0.9571493885355481  0.20086605492039664  1.0000
  H   H29       1.0  0.14290652019675318  0.42132370229936805  0.7328700159682383  1.0000
  H   H30       1.0  0.6429056671488593  0.0786748175670979  0.7671308055205157  1.0000
  H   H31       1.0  0.8570917387790613  0.5786762800774952  0.26713182057314805  1.0000
  H   H32       1.0  0.3570925918377553  0.9213240723588425  0.2328688322146134  1.0000
  H   H33       1.0  0.7398001777365406  0.29708940469517126  0.7293395447347135  1.0000
  H   H34       1.0  0.23980094621146003  0.20291145472127434  0.7706607288269536  1.0000
  H   H35       1.0  0.2601992343885442  0.702911631229327  0.2706613358797867  1.0000
  H   H36       1.0  0.7601984659155504  0.7970863686913744  0.22933881325522518  1.0000
  H   H37       1.0  0.5418115140363255  0.6767921751036355  0.8459212643655004  1.0000
  H   H38       1.0  0.04181407864566469  0.8232094088784906  0.6540787954654019  1.0000
  H   H39       1.0  0.45818559181127927  0.32320884785013954  0.1540785646742577  1.0000
  H   H40       1.0  0.9581876397646454  0.17679055404989436  0.345921463706233  1.0000
  H   H41       1.0  0.7193292311248596  0.7413197569366617  0.7348313231080963  1.0000
  H   H42       1.0  0.21933026726006224  0.7586822172843952  0.7651683456835909  1.0000
  H   H43       1.0  0.2806690278675887  0.258681259534292  0.26516798014174  1.0000
  H   H44       1.0  0.7806691448619744  0.24131882512419625  0.23483306071955914  1.0000
  C   C1        1.0  0.7283316197186095  0.691801421881621  0.5536364729530446  1.0000
  C   C2        1.0  0.22832726880574938  0.8081995056090818  0.9463630803621894  1.0000
  C   C3        1.0  0.27167009869362596  0.30819532853491444  0.446362447686269  1.0000
  C   C4        1.0  0.7716732964686128  0.1918025838630513  0.05363684432543179  1.0000
  C   C5        1.0  0.7260349907058196  0.8241657668722481  0.5213877125882929  1.0000
  C   C6        1.0  0.22603669980355784  0.6758362026386705  0.9786103640650905  1.0000
  C   C7        1.0  0.27396557456741266  0.17583311657212872  0.4786113993556496  1.0000
  C   C8        1.0  0.7739638654768937  0.3241658738652831  0.02138850904524499  1.0000
  C   C9        1.0  0.6379537714188003  0.8285109323266936  0.4603792329985622  1.0000
  C   C10       1.0  0.13795365423745656  0.671487858890636  0.03962075528441739  1.0000
  C   C11       1.0  0.3620491001307755  0.17148475806065022  0.5396201177764437  1.0000
  C   C12       1.0  0.8620480641847831  0.32851421761458255  0.960378117824639  1.0000
  C   C13       1.0  0.631935907411524  0.9559539890392441  0.43456879320545017  1.0000
  C   C14       1.0  0.13193271800732728  0.544045836007804  0.06542972662298038  1.0000
  C   C15       1.0  0.36806927042746196  0.04404382789565629  0.5654302230817334  1.0000
  C   C16       1.0  0.8680666941371694  0.455958367039898  0.9345688120033343  1.0000
  C   C17       1.0  0.7037667679414097  0.08045954160012063  0.4692000484174839  1.0000
  C   C18       1.0  0.20376881278350817  0.4195414145829588  0.030799154341202978  1.0000
  C   C19       1.0  0.29623379732738186  0.9195382818137999  0.5307994936634228  1.0000
  C   C20       1.0  0.7962305993596032  0.5804617219501864  0.969199288633433  1.0000
  C   C21       1.0  0.7900894421406901  0.07581137792260509  0.5307774654169464  1.0000
  C   C22       1.0  0.2900921678312755  0.4241895790796661  0.9692216457867103  1.0000
  C   C23       1.0  0.20991112312532315  0.9241843124622094  0.4692218853606035  1.0000
  C   C24       1.0  0.7099095505967907  0.5758146239705653  0.0307768928370677  1.0000
  C   C25       1.0  0.8036483793302336  0.9466348906998334  0.5550997521846027  1.0000
  C   C26       1.0  0.30364888014796065  0.5533662088505764  0.9449001610041062  1.0000
  C   C27       1.0  0.19635218593551673  0.053362939198180505  0.444900315684947  1.0000
  C   C28       1.0  0.696351685132228  0.4466380071665767  0.055099429198229175  1.0000
  C   C29       1.0  0.8561898221150698  0.20890966813291104  0.5748828813812067  1.0000
  C   C30       1.0  0.3561948810747281  0.2910914406657525  0.9251166100007918  1.0000
  C   C31       1.0  0.1438049774433949  0.791087088760122  0.42511656505437395  1.0000
  C   C32       1.0  0.6438033779127464  0.7089127948011438  0.07488455757000878  1.0000
  C   C33       1.0  0.20606746415967334  0.5562531326888518  0.5926984809061435  1.0000
  C   C34       1.0  0.7060651605654582  0.9437434862862588  0.9073012646328562  1.0000
  C   C35       1.0  0.7939331010958026  0.4437415106336858  0.4073023515856632  1.0000
  C   C36       1.0  0.29393309842837567  0.056258596699244406  0.09269813426865878  1.0000
  C   C37       1.0  0.34882234515678323  0.48207445527441445  0.6747151691000253  1.0000
  C   C38       1.0  0.8488205934296005  0.0179223777465722  0.8252844817006844  1.0000
  C   C39       1.0  0.6511782201059187  0.5179233811076925  0.32528542455817433  1.0000
  C   C40       1.0  0.15117881870628477  0.9820775657270034  0.17471420010755878  1.0000
  C   C41       1.0  0.19603900971186755  0.46254915461106094  0.6893412097877769  1.0000
  C   C42       1.0  0.6960386526622881  0.037448402575385814  0.8106583474297506  1.0000
  C   C43       1.0  0.8039604024106947  0.5374476087711315  0.310658762431366  1.0000
  C   C44       1.0  0.30396075947498247  0.9625526074127465  0.18934043003017104  1.0000
  C   C45       1.0  0.711595592148356  0.40888532463714705  0.7456423590700749  1.0000
  C   C46       1.0  0.21159614191110873  0.09111759283730689  0.7543571163477337  1.0000
  C   C47       1.0  0.28840266683799587  0.5911157048019929  0.25435799575704715  1.0000
  C   C48       1.0  0.7884021170721947  0.9088834430859267  0.2456437642680313  1.0000
  C   C49       1.0  0.6103624432328372  0.6087632080917729  0.8057555119803295  1.0000
  C   C50       1.0  0.11036363583298937  0.8912385330697676  0.6942449226348583  1.0000
  C   C51       1.0  0.3896369688875508  0.39123890731546845  0.19424651586313493  1.0000
  C   C52       1.0  0.8896380825712311  0.10876144282680397  0.30575638811406947  1.0000
  C   C53       1.0  0.6976971678806974  0.639451169111098  0.750367267840026  1.0000
  C   C54       1.0  0.19769875696811565  0.8605496910418325  0.7496323529510744  1.0000
  C   C55       1.0  0.3023010911025991  0.3605498668121356  0.2496336127757458  1.0000
  C   C56       1.0  0.8023018082973649  0.13945027836938095  0.2503684320104752  1.0000
  N   N1        1.0  0.5375573988758615  0.9624403421269606  0.371131047548637  1.0000
  N   N2        1.0  0.0375580601223291  0.5375582154197716  0.12886811031208364  1.0000
  N   N3        1.0  0.462443166388752  0.0375542817433043  0.628868207577234  1.0000
  N   N4        1.0  0.9624425051564668  0.46244493408282517  0.8711313842385732  1.0000
  N   N5        1.0  0.10797280481147448  0.5094874276325001  0.6376584919152319  1.0000
  N   N6        1.0  0.6079711952614061  0.9905100422145524  0.8623415653602888  1.0000
  N   N7        1.0  0.892028913588568  0.4905093487204084  0.3623425318786601  1.0000
  N   N8        1.0  0.39202706372633134  0.0094920537391374  0.13765888511851188  1.0000
  N   N9        1.0  0.3523779421909196  0.5407555357680991  0.6139227519246615  1.0000
  N   N10       1.0  0.8523747890617555  0.9592435378723181  0.8860768626218982  1.0000
  N   N11       1.0  0.6476214699180642  0.45924018703590974  0.38607922779738135  1.0000
  N   N12       1.0  0.1476234699353896  0.04075639911589231  0.11392129339897386  1.0000
  N   N13       1.0  0.7602896910990891  0.5137084296364163  0.7131135809535178  1.0000
  N   N14       1.0  0.2602913060595212  0.9862947076280832  0.7868866190490349  1.0000
  N   N15       1.0  0.23970741474242624  0.486292606285545  0.286887299663526  1.0000
  N   N16       1.0  0.7397069529340498  0.013709514870626504  0.21311349694448714  1.0000
  N   N17       1.0  0.6209272844133409  0.46310082386716545  0.8019373339672453  1.0000
  N   N18       1.0  0.12092944433165799  0.03689977423024969  0.6980632014493648  1.0000
  N   N19       1.0  0.37906982143121576  0.53690020557071  0.19806302086115574  1.0000
  N   N20       1.0  0.8790722740711698  0.9630991351517649  0.3019380136478843  1.0000
  O   O1        1.0  0.8542060393676251  0.6722413558960483  0.5872741847156887  1.0000
  O   O2        1.0  0.3541986919338739  0.8277598353353354  0.9127240397459315  1.0000
  O   O3        1.0  0.14580375102936213  0.3277564804961983  0.4127264089323431  1.0000
  O   O4        1.0  0.6457984139212201  0.17224224116481676  0.08727483336821247  1.0000
  O   O5        1.0  0.6141312702062293  0.6106897038926817  0.5463651563643522  1.0000
  O   O6        1.0  0.11413404985612627  0.8893131185543267  0.9536358913873354  1.0000
  O   O7        1.0  0.3858692950470583  0.38931029145489765  0.45363773175178307  1.0000
  O   O8        1.0  0.8858688217079018  0.11068895795215643  0.04636298172045629  1.0000
  O   O9        1.0  0.8216823868716077  0.32718622393390007  0.5548338379192612  1.0000
  O   O10       1.0  0.3216879335405664  0.17281484142740308  0.9451683584193443  1.0000
  O   O11       1.0  0.17831933152287147  0.6728062863607959  0.4451668032679164  1.0000
  O   O12       1.0  0.6783160911588836  0.8271893875617309  0.05483228335646828  1.0000
  O   O13       1.0  0.9335491596079135  0.20344715860750281  0.6302927702113335  1.0000
  O   O14       1.0  0.43355027074272806  0.29655093367185975  0.869707315387998  1.0000
  O   O15       1.0  0.06644679308459439  0.7965506842536243  0.36970834924058943  1.0000
  O   O16       1.0  0.5664479882530241  0.7034479368018012  0.1302907449811954  1.0000
  O   O17       1.0  0.5218304996088462  0.07944561339212439  0.35252963423680933  1.0000
  O   O18       1.0  0.021832343621902298  0.4205549428367448  0.14746996929629566  1.0000
  O   O19       1.0  0.47816891250623417  0.9205500964436978  0.6474712939079408  1.0000
  O   O20       1.0  0.9781682216718649  0.5794503137585921  0.8525276134031399  1.0000
  O   O21       1.0  0.47677527175192563  0.8497238531538116  0.3397952320175647  1.0000
  O   O22       1.0  0.9767770777045115  0.6502756893875346  0.1602045356866455  1.0000
  O   O23       1.0  0.5232229872288484  0.15027291022711609  0.660204740202843  1.0000
  O   O24       1.0  0.0232246407205139  0.34972852014679023  0.8397945287257753  1.0000
