data_image0
_chemical_formula_structural       Hg4H56C44S4Cl8O8
_chemical_formula_sum              "Hg4 H56 C44 S4 Cl8 O8"
_cell_length_a       10.063351093025773
_cell_length_b       12.234544954338153
_cell_length_c       15.171394087598271
_cell_angle_alpha    110.05564653847375
_cell_angle_beta     99.3675117511342
_cell_angle_gamma    90.35924091224832

_space_group_name_H-M_alt    "P 1"
_space_group_IT_number       1

loop_
  _space_group_symop_operation_xyz
  'x, y, z'

loop_
  _atom_site_type_symbol
  _atom_site_label
  _atom_site_symmetry_multiplicity
  _atom_site_fract_x
  _atom_site_fract_y
  _atom_site_fract_z
  _atom_site_occupancy
  Hg  Hg1       1.0  0.06736180552211828  0.5429101930899733  0.4015045653949302  1.0000
  Hg  Hg2       1.0  0.932633136159701  0.4570925694331294  0.5984932241851268  1.0000
  Hg  Hg3       1.0  0.5700323409945225  0.8732693587940542  0.40375716763439584  1.0000
  Hg  Hg4       1.0  0.42997458991561627  0.1267317270829764  0.5962419195554531  1.0000
  H   H1        1.0  0.16892242279276096  0.7653241058558888  0.4551661983390574  1.0000
  H   H2        1.0  0.8310778312350064  0.23467953904054892  0.5448382623475324  1.0000
  H   H3        1.0  0.1765162236279494  0.6779588339393001  0.2989272585016707  1.0000
  H   H4        1.0  0.8234891435023426  0.32204834268718935  0.7010740463431588  1.0000
  H   H5        1.0  0.19322719192713578  0.6379741272914642  0.1319482173830266  1.0000
  H   H6        1.0  0.8067833945320186  0.36203569448999673  0.8680543088543261  1.0000
  H   H7        1.0  0.8071929150758022  0.7807770995649432  0.08735244418466692  1.0000
  H   H8        1.0  0.19280897692455307  0.2192222028477673  0.9126489757892885  1.0000
  H   H9        1.0  0.7858899758770758  0.814980538473044  0.25587933974770033  1.0000
  H   H10       1.0  0.21411406838223707  0.18502315034239566  0.7441188899308174  1.0000
  H   H11       1.0  0.07653053302080785  0.6126593780066613  0.8853430842095734  1.0000
  H   H12       1.0  0.9234757300960649  0.38734518201672324  0.11465954984699071  1.0000
  H   H13       1.0  0.11679094724669875  0.540674787167724  0.9709579003575615  1.0000
  H   H14       1.0  0.8832064201302428  0.4593314606671227  0.029045702817690276  1.0000
  H   H15       1.0  0.19833601739145476  0.6803024416312198  0.9923574785515543  1.0000
  H   H16       1.0  0.8016730871333804  0.31970127408800403  0.007641885204151323  1.0000
  H   H17       1.0  0.11773013385386827  0.9753662489574209  0.5831043881676408  1.0000
  H   H18       1.0  0.8822748038606457  0.024633068768082505  0.41689797663298833  1.0000
  H   H19       1.0  0.03189834607863422  0.9809239651313036  0.6798764545170429  1.0000
  H   H20       1.0  0.9681038854041328  0.019078817223267205  0.32012860694887735  1.0000
  H   H21       1.0  0.9339255806462672  0.967214637644851  0.5663907725706282  1.0000
  H   H22       1.0  0.06607984493612658  0.03279165655396099  0.4336135876066649  1.0000
  H   H23       1.0  0.25868581110249517  0.8311098201678175  0.6333568603921974  1.0000
  H   H24       1.0  0.7413203061602898  0.16889299781094277  0.3666446138692904  1.0000
  H   H25       1.0  0.19850284441428553  0.6842206897485993  0.6202606114048095  1.0000
  H   H26       1.0  0.8015023133470506  0.3157821182872596  0.37974209013324167  1.0000
  H   H27       1.0  0.16037736489195706  0.8070182712984605  0.7158738295869114  1.0000
  H   H28       1.0  0.8396307643908042  0.19298280378445304  0.28413063983546044  1.0000
  H   H29       1.0  0.6680588495108635  0.6978050825617642  0.459891329448844  1.0000
  H   H30       1.0  0.3319386261301175  0.3021907208745204  0.5401047486303128  1.0000
  H   H31       1.0  0.6964695215119575  0.6368220119256379  0.3182672966321861  1.0000
  H   H32       1.0  0.3035227215909088  0.36317027014910513  0.6817286325341884  1.0000
  H   H33       1.0  0.7369806807495961  0.5186630650657162  0.15904101776763466  1.0000
  H   H34       1.0  0.26301928922279666  0.4813231506640463  0.8409565662498295  1.0000
  H   H35       1.0  0.32396044357982123  0.3724084693167313  0.08396555153407799  1.0000
  H   H36       1.0  0.6760368094829515  0.6275820893223596  0.9160329957180339  1.0000
  H   H37       1.0  0.28572812453566593  0.4874301278585661  0.24487831969054244  1.0000
  H   H38       1.0  0.7142613299962334  0.5125665033466119  0.7551165898577566  1.0000
  H   H39       1.0  0.509873647701731  0.26564048251095335  0.8886120094078792  1.0000
  H   H40       1.0  0.4901227967764539  0.7343553172035371  0.11138331309511063  1.0000
  H   H41       1.0  0.4304125491805164  0.23215288191077113  0.9744779771587703  1.0000
  H   H42       1.0  0.5695798768728081  0.7678420163414685  0.025518700273849466  1.0000
  H   H43       1.0  0.37775961399964325  0.3516266632020404  0.9363189096866266  1.0000
  H   H44       1.0  0.6222394020277519  0.6483743638688182  0.06368338620664102  1.0000
  H   H45       1.0  0.756055044673104  0.7838591202124474  0.6363245089586511  1.0000
  H   H46       1.0  0.2439435576791452  0.21613667865082678  0.3636749685003053  1.0000
  H   H47       1.0  0.6975656037138193  0.9199089755334594  0.6240571417861744  1.0000
  H   H48       1.0  0.30243415176820315  0.08008857116993788  0.3759435900931082  1.0000
  H   H49       1.0  0.6579081183338643  0.8772018470679586  0.718847761244952  1.0000
  H   H50       1.0  0.342089452855589  0.12279394807352159  0.281150960637838  1.0000
  H   H51       1.0  0.4296423354345079  0.5886855055179296  0.565242386942522  1.0000
  H   H52       1.0  0.5703576771906993  0.411316405628689  0.4347582701453519  1.0000
  H   H53       1.0  0.6137497161619831  0.5973896066785187  0.5865144464352596  1.0000
  H   H54       1.0  0.3862494960251154  0.40261491277639283  0.4134875252445198  1.0000
  H   H55       1.0  0.5226269212396984  0.6716410179252534  0.6805685226159286  1.0000
  H   H56       1.0  0.477373139159745  0.3283608890739629  0.3194334563737656  1.0000
  C   C1        1.0  0.0654062296658324  0.7350621902052552  0.453886526714399  1.0000
  C   C2        1.0  0.9345948989927774  0.2649405946486211  0.5461157963226313  1.0000
  C   C3        1.0  0.9581722349425091  0.7632101333137483  0.3872088339319931  1.0000
  C   C4        1.0  0.041827984520267585  0.23679439193665533  0.6127932323730434  1.0000
  C   C5        1.0  0.9776329694976765  0.7456966398730032  0.28909301518677927  1.0000
  C   C6        1.0  0.02237077799070159  0.2543000558795113  0.7109085067223404  1.0000
  C   C7        1.0  0.09311226158719417  0.6988885077985713  0.2530318072745175  1.0000
  C   C8        1.0  0.9068905289311144  0.30110993249788004  0.7469681360007955  1.0000
  C   C9        1.0  0.1037662344575452  0.6766642925291961  0.15821413357327435  1.0000
  C   C10       1.0  0.8962320497680305  0.32332626983168206  0.8417851692549976  1.0000
  C   C11       1.0  0.9977653266193797  0.7035414344834264  0.09778476938230092  1.0000
  C   C12       1.0  0.0022362365764365963  0.29645350970717027  0.9022147425303331  1.0000
  C   C13       1.0  0.8852057664556339  0.756516255819605  0.13463747522735758  1.0000
  C   C14       1.0  0.11479815330532968  0.24348393439067448  0.8653630615173711  1.0000
  C   C15       1.0  0.8744662504493659  0.7757273810781129  0.22833723050365512  1.0000
  C   C16       1.0  0.12553560445461895  0.22427104720173216  0.7716646009991237  1.0000
  C   C17       1.0  0.10394787291673417  0.6253370134817118  0.9612168821239209  1.0000
  C   C18       1.0  0.8960585492634718  0.3746701647928674  0.03878583924797851  1.0000
  C   C19       1.0  0.027678520971086588  0.9450347803304239  0.6024550749956603  1.0000
  C   C20       1.0  0.9723254943383494  0.054965401585050686  0.39754810555270137  1.0000
  C   C21       1.0  0.17812286627823676  0.7770067926048154  0.6421850589719112  1.0000
  C   C22       1.0  0.8218824505464396  0.2229986336822378  0.3578177298814751  1.0000
  C   C23       1.0  0.5648301734268414  0.7264535208466754  0.4567936641933628  1.0000
  C   C24       1.0  0.43516893000253987  0.27355013069647777  0.5432067361625172  1.0000
  C   C25       1.0  0.45838068459563164  0.641020590566022  0.3881780083025177  1.0000
  C   C26       1.0  0.5416133981959702  0.3589856626930512  0.6118180405369812  1.0000
  C   C27       1.0  0.4866596086313704  0.5721808138887994  0.29298579135710423  1.0000
  C   C28       1.0  0.5133301772364474  0.42782193002533114  0.7070082203421394  1.0000
  C   C29       1.0  0.61432470200711  0.57925740756216  0.2676499173759481  1.0000
  C   C30       1.0  0.385671678956207  0.42073576560632386  0.7323479616153394  1.0000
  C   C31       1.0  0.6381998890519894  0.5129086652104533  0.1782805337859017  1.0000
  C   C32       1.0  0.3617963064294897  0.4870801372937094  0.8217194028495101  1.0000
  C   C33       1.0  0.5341121732398476  0.43830411951591935  0.11071653725717569  1.0000
  C   C34       1.0  0.4658815888937012  0.5616951427539263  0.8892821428620226  1.0000
  C   C35       1.0  0.40619284043861364  0.4296377979282299  0.1348084894393224  1.0000
  C   C36       1.0  0.5938027161994767  0.5703579856222517  0.8651900431929604  1.0000
  C   C37       1.0  0.3840762387471058  0.49586004836999104  0.22553057242116384  1.0000
  C   C38       1.0  0.6159162244025821  0.5041357240151071  0.7744656934826324  1.0000
  C   C39       1.0  0.4641310691331311  0.3028774278233541  0.9522090684768119  1.0000
  C   C40       1.0  0.5358665630398107  0.6971192393772866  0.04778990282805751  1.0000
  C   C41       1.0  0.6760374455042777  0.8452038994323559  0.6452516098482519  1.0000
  C   C42       1.0  0.3239612920241866  0.1547945197558107  0.3547472939751374  1.0000
  C   C43       1.0  0.5225340243301843  0.6426934999390284  0.6036358720765023  1.0000
  C   C44       1.0  0.4774641328070003  0.35731101786779357  0.3963646830762144  1.0000
  S   S1        1.0  0.02243361968699281  0.7886399292191655  0.5705424508888373  1.0000
  S   S2        1.0  0.9775696800549409  0.21136373099005817  0.4294629546244195  1.0000
  S   S3        1.0  0.5200979417859485  0.7725391449138428  0.5727875419582773  1.0000
  S   S4        1.0  0.47989790909169716  0.2274618772127325  0.4272105043537735  1.0000
  Cl  Cl1       1.0  0.19450939988960408  0.47499457451127114  0.5429827651737681  1.0000
  Cl  Cl2       1.0  0.8054849558444841  0.5249994653464968  0.45701319113636885  1.0000
  Cl  Cl3       1.0  0.06871340016933655  0.35937019315961277  0.2733826129752757  1.0000
  Cl  Cl4       1.0  0.9312886961372155  0.6406299688700586  0.726623022126212  1.0000
  Cl  Cl5       1.0  0.6948966788967539  0.0633835900595798  0.5468104913086407  1.0000
  Cl  Cl6       1.0  0.305103070970162  0.9366183438977558  0.4531828953192445  1.0000
  Cl  Cl7       1.0  0.5705016140185817  0.9473371822512391  0.27491975493382637  1.0000
  Cl  Cl8       1.0  0.4295012771109653  0.05266475872407739  0.7250772203243729  1.0000
  O   O1        1.0  0.8507059223282522  0.7989902040443438  0.41529751507522406  1.0000
  O   O2        1.0  0.14929545026429736  0.2010160690461902  0.5847058056501454  1.0000
  O   O3        1.0  0.9931275039124187  0.6811303008145869  0.0034512048711477956  1.0000
  O   O4        1.0  0.006881325138557803  0.31888387381911093  0.9965510573242895  1.0000
  O   O5        1.0  0.3469703529571788  0.6306064839338389  0.41200021963144456  1.0000
  O   O6        1.0  0.6530227118808793  0.3694006418100102  0.5879940011521612  1.0000
  O   O7        1.0  0.5669116007076764  0.37905740847897107  0.024324717004098786  1.0000
  O   O8        1.0  0.43308281094713386  0.6209339944642878  0.9756771005488717  1.0000
