data_image0
_chemical_formula_structural       Ag4P4H32C32O20
_chemical_formula_sum              "Ag4 P4 H32 C32 O20"
_cell_length_a       4.671572305317546
_cell_length_b       11.012186663092525
_cell_length_c       17.691557186680534
_cell_angle_alpha    89.99953492070384
_cell_angle_beta     90.56206504749265
_cell_angle_gamma    90.00006107097542

_space_group_name_H-M_alt    "P 1"
_space_group_IT_number       1

loop_
  _space_group_symop_operation_xyz
  'x, y, z'

loop_
  _atom_site_type_symbol
  _atom_site_label
  _atom_site_symmetry_multiplicity
  _atom_site_fract_x
  _atom_site_fract_y
  _atom_site_fract_z
  _atom_site_occupancy
  Ag  Ag1       1.0  0.7407594653429257  0.0332548648178914  0.04446773985386441  1.0000
  Ag  Ag2       1.0  0.7592383823434545  0.5332509881774784  0.45553403880264653  1.0000
  Ag  Ag3       1.0  0.25924779575871787  0.9667473548269501  0.955530525347598  1.0000
  Ag  Ag4       1.0  0.2407581689199461  0.4667448748378933  0.5444692849234799  1.0000
  P   P1        1.0  0.9353452343603126  0.2361564881868432  0.4633118734498255  1.0000
  P   P2        1.0  0.5646337837775874  0.7361634085243621  0.036691086787726604  1.0000
  P   P3        1.0  0.06465132039227942  0.7638384667620316  0.5366886240809451  1.0000
  P   P4        1.0  0.4353542018613155  0.263838811068446  0.9633144749626511  1.0000
  H   H1        1.0  0.5021343548034808  0.21511392424835654  0.5121752049994228  1.0000
  H   H2        1.0  0.9978705643317555  0.7151179154745719  0.9878264477467198  1.0000
  H   H3        1.0  0.4978643462441853  0.7848819388152322  0.48782077634224674  1.0000
  H   H4        1.0  0.0021452561189506006  0.28488430415382027  0.0121746665701679  1.0000
  H   H5        1.0  0.942016928559646  0.8545162156609222  0.14564101647915353  1.0000
  H   H6        1.0  0.5579730551440463  0.3545105295776096  0.3543568509779221  1.0000
  H   H7        1.0  0.057992473254763914  0.14548872823898054  0.8543572544448494  1.0000
  H   H8        1.0  0.4420234996095331  0.645485333456129  0.6456436465505462  1.0000
  H   H9        1.0  0.25261877561468543  0.15614918292651225  0.37348011786732377  1.0000
  H   H10       1.0  0.24739054503512384  0.6561513915994722  0.126518238090874  1.0000
  H   H11       1.0  0.7474056083654189  0.8438457720285726  0.6265204541462027  1.0000
  H   H12       1.0  0.752614573264573  0.34385264420359357  0.873481717095139  1.0000
  H   H13       1.0  0.13784278535420214  0.041671932967069815  0.436962406736953  1.0000
  H   H14       1.0  0.36215557952818506  0.5416777458406019  0.0630398918790291  1.0000
  H   H15       1.0  0.8621601936229056  0.9583239300791105  0.5630364122612548  1.0000
  H   H16       1.0  0.6378473952675989  0.45832447377757995  0.9369623185402676  1.0000
  H   H17       1.0  0.7264272993869484  0.9131967558576052  0.4023843532697812  1.0000
  H   H18       1.0  0.7735628114685441  0.4132008658086121  0.09761321692008812  1.0000
  H   H19       1.0  0.2735949543529017  0.0867972910672137  0.5976077344236475  1.0000
  H   H20       1.0  0.22640805965357202  0.5867949972451  0.90238325517835  1.0000
  H   H21       1.0  0.3584434837311221  0.8534725405256081  0.3078058234335543  1.0000
  H   H22       1.0  0.14155128016698632  0.3534608288364538  0.19219092768585  1.0000
  H   H23       1.0  0.6415766314058119  0.1465333115129539  0.6921845627819395  1.0000
  H   H24       1.0  0.8584345717306621  0.6465304937742644  0.8078089759673759  1.0000
  H   H25       1.0  0.5563421266289198  0.170553676653924  0.1754082650854443  1.0000
  H   H26       1.0  0.9436774291215857  0.6705452333648269  0.3245900492013547  1.0000
  H   H27       1.0  0.4436865422796714  0.8294585319328364  0.824589492145613  1.0000
  H   H28       1.0  0.05632127122706271  0.3294497216102314  0.6754064973821414  1.0000
  H   H29       1.0  0.9210829737934604  0.2313058331473172  0.2715449619206183  1.0000
  H   H30       1.0  0.5789452680575948  0.7313048202251907  0.22845985040347472  1.0000
  H   H31       1.0  0.07894354811612202  0.7687000188118914  0.7284578767528772  1.0000
  H   H32       1.0  0.4210662709764463  0.2687001236568279  0.7715412524476264  1.0000
  C   C1        1.0  0.06410288898206319  0.11733650220492112  0.40124339057437913  1.0000
  C   C2        1.0  0.4358849230152799  0.6173300812491291  0.09876923570257651  1.0000
  C   C3        1.0  0.9359172080000491  0.8826639012289943  0.5987616918827073  1.0000
  C   C4        1.0  0.564103068911855  0.38267758688589737  0.9012312388782251  1.0000
  C   C5        1.0  0.8483618449176404  0.0764677999795609  0.3432720376900847  1.0000
  C   C6        1.0  0.651633960592129  0.5764813752573518  0.1567255596238084  1.0000
  C   C7        1.0  0.15165184458984982  0.9235289711905921  0.6567211575577332  1.0000
  C   C8        1.0  0.34834546361542346  0.423531741359227  0.8432788487021342  1.0000
  C   C9        1.0  0.6900109799940992  0.9695192176523549  0.3526365057879772  1.0000
  C   C10       1.0  0.8099642665398009  0.46953359574534653  0.1473618694511387  1.0000
  C   C11       1.0  0.3099984294878766  0.030475737354471705  0.6473555475264876  1.0000
  C   C12       1.0  0.19001087763436433  0.5304704400290132  0.8526413969598537  1.0000
  C   C13       1.0  0.4857371719235886  0.9349904981445292  0.2990153988035686  1.0000
  C   C14       1.0  0.014253480207443698  0.4349885999689178  0.200986580303578  1.0000
  C   C15       1.0  0.514274375487858  0.06501535386641419  0.7009789211708652  1.0000
  C   C16       1.0  0.98572593840008  0.5650099872605027  0.7990223499754094  1.0000
  C   C17       1.0  0.4388720751226103  0.0067819760251311015  0.2344887166262382  1.0000
  C   C18       1.0  0.0611048091490147  0.5067768407618088  0.2655120057372145  1.0000
  C   C19       1.0  0.561122348708416  0.9932275083324598  0.7655038617848646  1.0000
  C   C20       1.0  0.9388596265809995  0.493219022220707  0.7344951887239761  1.0000
  C   C21       1.0  0.5965326784947678  0.11407775020708752  0.22503564363199052  1.0000
  C   C22       1.0  0.9034482200330274  0.6140808294034058  0.2749645492893152  1.0000
  C   C23       1.0  0.40347672402062784  0.8859299179510745  0.7749620620455815  1.0000
  C   C24       1.0  0.0965333448695702  0.3859186659407357  0.7250398648005643  1.0000
  C   C25       1.0  0.7991964480309833  0.14797080877429636  0.2788338855746986  1.0000
  C   C26       1.0  0.7007973688873504  0.6479726734107629  0.2211656048037653  1.0000
  C   C27       1.0  0.2008236580295204  0.8520332270468033  0.7211638487592894  1.0000
  C   C28       1.0  0.29920560102316773  0.3520304542665754  0.7788405622899361  1.0000
  C   C29       1.0  0.2262977396268226  0.97414785683128  0.1755940218778562  1.0000
  C   C30       1.0  0.2736908489465151  0.47413630692926745  0.3244139708101201  1.0000
  C   C31       1.0  0.7737245043562667  0.02586071939990829  0.8244059791321947  1.0000
  C   C32       1.0  0.7262671723216485  0.5258495671587369  0.6755869888532118  1.0000
  O   O1        1.0  0.804198484320203  0.3399554001669642  0.416608550541369  1.0000
  O   O2        1.0  0.6958107272609624  0.8399663171447004  0.08339509459079152  1.0000
  O   O3        1.0  0.1958151926206853  0.6600395547673656  0.5833948190225939  1.0000
  O   O4        1.0  0.30419439034070456  0.16003771865469926  0.916605425834746  1.0000
  O   O5        1.0  0.19431190332272757  0.27359269776641076  0.5123946295667993  1.0000
  O   O6        1.0  0.30566581293941647  0.7736002318263643  0.9876066498478268  1.0000
  O   O7        1.0  0.8056760843965166  0.7263968086493477  0.4876092364971853  1.0000
  O   O8        1.0  0.6943435853818585  0.22640198780059254  0.012394447280726702  1.0000
  O   O9        1.0  0.699516072416394  0.1753897834204778  0.514636708076111  1.0000
  O   O10       1.0  0.8004716398457674  0.675382814777464  0.9853611434055409  1.0000
  O   O11       1.0  0.3004804900165539  0.8246069877385127  0.4853575718152286  1.0000
  O   O12       1.0  0.1995227728019344  0.3246130482484517  0.0146404788725434  1.0000
  O   O13       1.0  0.1817705280675028  0.0406969062616511  0.11954997017764413  1.0000
  O   O14       1.0  0.3181892935438668  0.5406976657866592  0.38045901313446256  1.0000
  O   O15       1.0  0.8182410144478639  0.9592998648749712  0.8804483064965042  1.0000
  O   O16       1.0  0.6817708656350732  0.4592818516930991  0.6195442132325369  1.0000
  O   O17       1.0  0.09059618686822551  0.870048533132213  0.18712603121228  1.0000
  O   O18       1.0  0.40939004521552397  0.3700335659847269  0.3128745697097202  1.0000
  O   O19       1.0  0.9094239226952399  0.1299673078104462  0.8128688768941572  1.0000
  O   O20       1.0  0.5905829610271951  0.6299577566157807  0.6871264300459147  1.0000
