data_image0
_chemical_formula_structural       Fe2H48C36S4N28
_chemical_formula_sum              "Fe2 H48 C36 S4 N28"
_cell_length_a       8.328520021699527
_cell_length_b       8.794992389188225
_cell_length_c       16.653453807328855
_cell_angle_alpha    89.99034132011978
_cell_angle_beta     89.9996285320389
_cell_angle_gamma    110.28310289051184

_space_group_name_H-M_alt    "P 1"
_space_group_IT_number       1

loop_
  _space_group_symop_operation_xyz
  'x, y, z'

loop_
  _atom_site_type_symbol
  _atom_site_label
  _atom_site_symmetry_multiplicity
  _atom_site_fract_x
  _atom_site_fract_y
  _atom_site_fract_z
  _atom_site_occupancy
  Fe  Fe1       1.0  0.005664977926827024  0.9868783177660987  0.5043592322601711  1.0000
  Fe  Fe2       1.0  0.9941876599632024  0.5130429904855235  0.004514512503746499  1.0000
  H   H1        1.0  0.7368881042820234  0.48514341651532794  0.2975376485782135  1.0000
  H   H2        1.0  0.2630909214464551  0.015190523374179999  0.7974839519878572  1.0000
  H   H3        1.0  0.2530627465688936  0.5199101205650506  0.7010861383917373  1.0000
  H   H4        1.0  0.747189536873762  0.980344642260235  0.201071176480653  1.0000
  H   H5        1.0  0.6346844040584471  0.476048645285026  0.3918814022290248  1.0000
  H   H6        1.0  0.36512464725692695  0.02383260757260791  0.8918380139027065  1.0000
  H   H7        1.0  0.3553298058292355  0.5271659885408013  0.6067742923075057  1.0000
  H   H8        1.0  0.6447752772396315  0.9727668103572997  0.10676810789257019  1.0000
  H   H9        1.0  0.550790898359736  0.18790348530055923  0.2751264734653062  1.0000
  H   H10       1.0  0.44943030906382825  0.3124450513906326  0.775270748963919  1.0000
  H   H11       1.0  0.44476332870020496  0.8144052966992278  0.7242510255882735  1.0000
  H   H12       1.0  0.5556209283519776  0.6859719981691798  0.2245554659302371  1.0000
  H   H13       1.0  0.4447198050265797  0.19345792941760462  0.36731326676570564  1.0000
  H   H14       1.0  0.5553925617004793  0.3064606141078841  0.8674613449925204  1.0000
  H   H15       1.0  0.5496704051163733  0.8081839354630066  0.6317754349489988  1.0000
  H   H16       1.0  0.4506676326580106  0.6916576834894386  0.1320166056785368  1.0000
  H   H17       1.0  0.3698150313189856  0.4302789520306122  0.3120157328717355  1.0000
  H   H18       1.0  0.6300267362740684  0.06964605100640851  0.8120214890945973  1.0000
  H   H19       1.0  0.6184711603620772  0.5666333478721629  0.686332803027433  1.0000
  H   H20       1.0  0.3816927708079802  0.9334146629967037  0.18627329375123478  1.0000
  H   H21       1.0  0.4599390553193459  0.4038509324828184  0.21876705652953624  1.0000
  H   H22       1.0  0.5398934547115674  0.09632495736676112  0.7188091324447468  1.0000
  H   H23       1.0  0.531767391946964  0.5962190361349116  0.7799728430836054  1.0000
  H   H24       1.0  0.46822327251206997  0.904016178194567  0.27999618233864954  1.0000
  H   H25       1.0  0.24618382974663428  0.11753470753952663  0.21110552666159066  1.0000
  H   H26       1.0  0.7539406598447086  0.38248333418946606  0.7111074893965821  1.0000
  H   H27       1.0  0.750053167118253  0.8833464478475649  0.7839035721538608  1.0000
  H   H28       1.0  0.2501225170112136  0.6167640547395337  0.2839563142601307  1.0000
  H   H29       1.0  0.1483780062586746  0.15514371398874977  0.3006547808765774  1.0000
  H   H30       1.0  0.8517197582941876  0.34469257572296647  0.8006214002812654  1.0000
  H   H31       1.0  0.845943454749232  0.8367498330124761  0.6960834942141076  1.0000
  H   H32       1.0  0.15426969925101727  0.6632656107075335  0.19608010866445363  1.0000
  H   H33       1.0  0.17005288664506674  0.401105010828772  0.449236923982177  1.0000
  H   H34       1.0  0.8299670032897383  0.09889250119941552  0.9493493502761581  1.0000
  H   H35       1.0  0.8254936189080195  0.6069538977003505  0.547186575671823  1.0000
  H   H36       1.0  0.17465651991582834  0.892866252975857  0.04724299975819689  1.0000
  H   H37       1.0  0.6673041198013436  0.0899876309781149  0.40527666483127683  1.0000
  H   H38       1.0  0.33270200610360934  0.41006589583860636  0.9053704909460052  1.0000
  H   H39       1.0  0.3295695797202711  0.9162837533687238  0.5929801663228318  1.0000
  H   H40       1.0  0.6704935390131652  0.5837145476844656  0.0931997386859393  1.0000
  H   H41       1.0  0.7798222014032489  0.35659187031524203  0.1706249289663759  1.0000
  H   H42       1.0  0.2199351608504898  0.1430333324775575  0.6705178347135856  1.0000
  H   H43       1.0  0.21183678815279441  0.647735895812751  0.837024643379614  1.0000
  H   H44       1.0  0.7878296839597924  0.8515923914555189  0.3369862327528921  1.0000
  H   H45       1.0  0.2708058956625904  0.37886647729839495  0.09687722718270207  1.0000
  H   H46       1.0  0.72907579209118  0.12117593809772843  0.5968420438673903  1.0000
  H   H47       1.0  0.7195919620186614  0.6339128669392052  0.9039811846304173  1.0000
  H   H48       1.0  0.28053246654112474  0.866661336123542  0.4038385153903619  1.0000
  C   C1        1.0  0.6716068301096456  0.40321673467302344  0.3465132424279957  1.0000
  C   C2        1.0  0.3283143677634541  0.09690780012362413  0.8465348806450379  1.0000
  C   C3        1.0  0.3201392117864544  0.6010861523086605  0.6521958431018148  1.0000
  C   C4        1.0  0.6800971966007977  0.8990144007462036  0.15224901464380025  1.0000
  C   C5        1.0  0.5133181563981282  0.26758607766606  0.3163846689627689  1.0000
  C   C6        1.0  0.48677656728342095  0.23255215029637816  0.8164789404198485  1.0000
  C   C7        1.0  0.4801428267789731  0.7341318539960612  0.6825304931566548  1.0000
  C   C8        1.0  0.520149642846242  0.7659952453858594  0.18269574931847637  1.0000
  C   C9        1.0  0.3948549206605705  0.3399901513096283  0.272960577545433  1.0000
  C   C10       1.0  0.6051132461090278  0.16006925006585251  0.7729889321744422  1.0000
  C   C11       1.0  0.596714122590562  0.6585762334232967  0.7254383192811104  1.0000
  C   C12       1.0  0.40340748047292874  0.8415482710542438  0.2254638453515341  1.0000
  C   C13       1.0  0.22514421975867552  0.21221338777032636  0.2481981235105479  1.0000
  C   C14       1.0  0.7748951559439661  0.2877340331766405  0.7481874980743797  1.0000
  C   C15       1.0  0.7684856046076832  0.784558721838316  0.7490425323754974  1.0000
  C   C16       1.0  0.23164481958616537  0.7154953942481799  0.2490528490302779  1.0000
  C   C17       1.0  0.03775550752548179  0.3556847373160963  0.4293634010102493  1.0000
  C   C18       1.0  0.9622274639725886  0.14434904937036921  0.9294713576445162  1.0000
  C   C19       1.0  0.9571712478636982  0.6517576486618497  0.5676095627869486  1.0000
  C   C20       1.0  0.04297561802052028  0.8481531623361962  0.06768720710427799  1.0000
  C   C21       1.0  0.7837329957111124  0.1948997799771064  0.4077697680788006  1.0000
  C   C22       1.0  0.21622907014423023  0.3051515551832652  0.9078559347334547  1.0000
  C   C23       1.0  0.2127365273893816  0.8121535746021425  0.5903915529366726  1.0000
  C   C24       1.0  0.7873545562326073  0.6878324025244994  0.09054739768118478  1.0000
  C   C25       1.0  0.9053211037216827  0.34553625356450385  0.1699707178140599  1.0000
  C   C26       1.0  0.09449013211516187  0.1542334341092868  0.6698906234332256  1.0000
  C   C27       1.0  0.0864822694554094  0.6590986490817986  0.8354678877584688  1.0000
  C   C28       1.0  0.9133035653461193  0.8405175223497212  0.33539347844615713  1.0000
  C   C29       1.0  0.15509942639372554  0.3612261355980025  0.13122782267522842  1.0000
  C   C30       1.0  0.8447543511471807  0.1387213116995341  0.6311817086367099  1.0000
  C   C31       1.0  0.8357869493494832  0.6471913105215777  0.8707836979363961  1.0000
  C   C32       1.0  0.16423773960748625  0.8530980461591184  0.3706509865675399  1.0000
  C   C33       1.0  0.6296885084671542  0.7832181744981102  0.4756892922119106  1.0000
  C   C34       1.0  0.37014522545550926  0.7167853641516686  0.9758729894241185  1.0000
  C   C35       1.0  0.37725029338109545  0.20823529442611036  0.528063144375956  1.0000
  C   C36       1.0  0.6225553825839399  0.2918066638674049  0.028172333003034594  1.0000
  S   S1        1.0  0.44247856284032133  0.6776660396625758  0.4404001235689989  1.0000
  S   S2        1.0  0.5572994212192981  0.8223709050741804  0.9405143487904937  1.0000
  S   S3        1.0  0.5636067622059285  0.3220365556940195  0.560914011785158  1.0000
  S   S4        1.0  0.4361543017310082  0.17788431606026484  0.06094149304468028  1.0000
  N   N1        1.0  0.7989481926342208  0.3442235478941384  0.38209330132569613  1.0000
  N   N2        1.0  0.20097940251734767  0.15585407470128132  0.882152667758369  1.0000
  N   N3        1.0  0.19486090154918395  0.6626461909627892  0.6162271580540731  1.0000
  N   N4        1.0  0.80533022490404  0.8373814021641622  0.11633351499521888  1.0000
  N   N5        1.0  0.9605822219667316  0.44898489320156193  0.39556484716015916  1.0000
  N   N6        1.0  0.0393444042522972  0.051070843782170514  0.895643097703761  1.0000
  N   N7        1.0  0.033313036989625296  0.5590468894691726  0.6021388711046141  1.0000
  N   N8        1.0  0.9668903970761701  0.9409216707379927  0.10219402627691918  1.0000
  N   N9        1.0  0.9338711817500354  0.1983880002261174  0.4376688905858117  1.0000
  N   N10       1.0  0.0660799225554101  0.3016015126527308  0.9377732360167526  1.0000
  N   N11       1.0  0.06270419131526958  0.8098748032588861  0.5591839387589204  1.0000
  N   N12       1.0  0.9373487396560453  0.6900546681246029  0.0593403336091924  1.0000
  N   N13       1.0  0.11926919366379  0.28275324631088244  0.20192603894592046  1.0000
  N   N14       1.0  0.8806103098258192  0.21706665731565522  0.7018890008856642  1.0000
  N   N15       1.0  0.8719729244428933  0.7155058841865201  0.7977164580276435  1.0000
  N   N16       1.0  0.12804131820318085  0.784504838010172  0.29766625252210577  1.0000
  N   N17       1.0  0.96034146039824  0.27102597134491907  0.2274347289630683  1.0000
  N   N18       1.0  0.039494138284339904  0.22866461215540573  0.7273877541860612  1.0000
  N   N19       1.0  0.031504823012795655  0.7247005830724831  0.7743047429735056  1.0000
  N   N20       1.0  0.9683762580681119  0.7748944587269266  0.2742786850619439  1.0000
  N   N21       1.0  0.021392991650394263  0.40367251165685764  0.10939461260798569  1.0000
  N   N22       1.0  0.9783943236003694  0.09620042921905282  0.609314677653117  1.0000
  N   N23       1.0  0.9697869607349858  0.6094342682683662  0.8965035787839211  1.0000
  N   N24       1.0  0.030076337536335977  0.8905813340094824  0.3963811065314005  1.0000
  N   N25       1.0  0.7679235069574517  0.8621999394577244  0.49961751752937994  1.0000
  N   N26       1.0  0.23194491925179506  0.6377416134530662  0.9997912983989465  1.0000
  N   N27       1.0  0.2401056288329428  0.12234599207432952  0.5059246456730264  1.0000
  N   N28       1.0  0.7597078957124737  0.3777561472261014  0.0060887708251656  1.0000
