data_image0
_chemical_formula_structural       U2H10C14N2O14
_chemical_formula_sum              "U2 H10 C14 N2 O14"
_cell_length_a       6.268229355504277
_cell_length_b       8.126390977974962
_cell_length_c       11.807200932087648
_cell_angle_alpha    106.90692846006978
_cell_angle_beta     96.95695926259297
_cell_angle_gamma    114.65140858493885

_space_group_name_H-M_alt    "P 1"
_space_group_IT_number       1

loop_
  _space_group_symop_operation_xyz
  'x, y, z'

loop_
  _atom_site_type_symbol
  _atom_site_label
  _atom_site_symmetry_multiplicity
  _atom_site_fract_x
  _atom_site_fract_y
  _atom_site_fract_z
  _atom_site_occupancy
  U   U1        1.0  0.7543047703305348  0.9175646811025542  0.8465773463863967  1.0000
  U   U2        1.0  0.24570604132212281  0.08244594266621869  0.1534135910415486  1.0000
  H   H1        1.0  0.9505149989133912  0.311997032690428  0.14228314624078564  1.0000
  H   H2        1.0  0.04949069615710742  0.6880065468861571  0.8577196686618506  1.0000
  H   H3        1.0  0.7505202184400873  0.028394145356081386  0.09217647931809128  1.0000
  H   H4        1.0  0.2494804868082382  0.9716061619320225  0.907819466866094  1.0000
  H   H5        1.0  0.18965342752894537  0.060744006180300375  0.5360187855463039  1.0000
  H   H6        1.0  0.8103362875450699  0.9392473655002503  0.4639832284720029  1.0000
  H   H7        1.0  0.029455233901415877  0.7606063323095993  0.3380132487673109  1.0000
  H   H8        1.0  0.9705522278806383  0.23939151377224727  0.6619809449846841  1.0000
  H   H9        1.0  0.39947712305332317  0.5445542715391481  0.5407318018638207  1.0000
  H   H10       1.0  0.6005203834719738  0.4554489389241353  0.45927551901701946  1.0000
  C   C1        1.0  0.3629953987329271  0.9504198826121377  0.6373563912684617  1.0000
  C   C2        1.0  0.6369975369665752  0.049571579606165976  0.3626416036343159  1.0000
  C   C3        1.0  0.22365931400752687  0.9385079302087996  0.5312287852043268  1.0000
  C   C4        1.0  0.7763227582776508  0.06147836830565718  0.4687565313394231  1.0000
  C   C5        1.0  0.13901421472534975  0.7750296428438046  0.42311464962381956  1.0000
  C   C6        1.0  0.8610125308310757  0.2249739776641276  0.5768970949577508  1.0000
  C   C7        1.0  0.20581001971537916  0.6310640517732223  0.4248258696586261  1.0000
  C   C8        1.0  0.794193589731762  0.3689323764688907  0.5751771303269209  1.0000
  C   C9        1.0  0.3470837549855544  0.6543099975923921  0.5352436462177932  1.0000
  C   C10       1.0  0.6529361716432831  0.3456989899769311  0.4647737960320839  1.0000
  C   C11       1.0  0.45906540095703013  0.12243733794989  0.7583964728495759  1.0000
  C   C12       1.0  0.5409321671337322  0.8775599949097594  0.24160039980026943  1.0000
  C   C13       1.0  0.1385974207625154  0.45849684207107083  0.3117837810917123  1.0000
  C   C14       1.0  0.8614040434680774  0.5415078960541917  0.6882189964868316  1.0000
  N   N1        1.0  0.4238461681671736  0.8100015275699516  0.6394474649915479  1.0000
  N   N2        1.0  0.5761482830117259  0.18998988107720996  0.36054468371533943  1.0000
  O   O1        1.0  0.9636200929312649  0.09482016456325228  0.7962367038956869  1.0000
  O   O2        1.0  0.03637707723719057  0.9051856662173418  0.20376347860002392  1.0000
  O   O3        1.0  0.5405900766308492  0.7277513768153053  0.8851382993315439  1.0000
  O   O4        1.0  0.45939221116803713  0.2722572803201117  0.11484033462778598  1.0000
  O   O5        1.0  0.5194288499695999  0.0773877547815331  0.8520871356319689  1.0000
  O   O6        1.0  0.4805630560981554  0.9226108780557352  0.14791895623468318  1.0000
  O   O7        1.0  0.47599912721251064  0.27983377987850117  0.7622320637146699  1.0000
  O   O8        1.0  0.5239982739423964  0.7201693207625365  0.2377709942349213  1.0000
  O   O9        1.0  0.9967910705121167  0.4420693876489209  0.21464908238856137  1.0000
  O   O10       1.0  0.003216602010702645  0.5579286780774096  0.7853536372259454  1.0000
  O   O11       1.0  0.2157779776409042  0.3389531803553749  0.3146286779117204  1.0000
  O   O12       1.0  0.7842147040257785  0.6610314064240439  0.6853764446718243  1.0000
  O   O13       1.0  0.8904170390934069  0.10228690218738724  0.0638717275558705  1.0000
  O   O14       1.0  0.10957619361544592  0.8977144511471875  0.936127347833512  1.0000
