data_image0
_chemical_formula_structural       Cu2H24C28N8O8
_chemical_formula_sum              "Cu2 H24 C28 N8 O8"
_cell_length_a       8.015500945495594
_cell_length_b       8.540750055090264
_cell_length_c       10.4971138611217
_cell_angle_alpha    89.99947320534244
_cell_angle_beta     90.00032624118265
_cell_angle_gamma    107.89278325106375

_space_group_name_H-M_alt    "P 1"
_space_group_IT_number       1

loop_
  _space_group_symop_operation_xyz
  'x, y, z'

loop_
  _atom_site_type_symbol
  _atom_site_label
  _atom_site_symmetry_multiplicity
  _atom_site_fract_x
  _atom_site_fract_y
  _atom_site_fract_z
  _atom_site_occupancy
  Cu  Cu1       1.0  0.5000003731326855  2.78878288997204e-08  0.5000004689867552  1.0000
  Cu  Cu2       1.0  0.5000007230602677  0.5000010827109094  0.999997880653041  1.0000
  H   H1        1.0  0.5265583628841026  0.8413693450027748  0.16914541943904743  1.0000
  H   H2        1.0  0.47344735629074103  0.658626540933696  0.6691681955524871  1.0000
  H   H3        1.0  0.4734416744459082  0.15862433665293446  0.8308564255681435  1.0000
  H   H4        1.0  0.5265544910718346  0.34138065303124415  0.330830791479336  1.0000
  H   H5        1.0  0.04657337099137488  0.8937918563249098  0.7073559298557798  1.0000
  H   H6        1.0  0.9534475208030243  0.6062037744812584  0.2073491591136191  1.0000
  H   H7        1.0  0.953426591339955  0.10620550568642527  0.29264400985177735  1.0000
  H   H8        1.0  0.04655447654691609  0.3937960587962905  0.7926488753034349  1.0000
  H   H9        1.0  0.8271458680851963  0.09159695069475758  0.6937911975782358  1.0000
  H   H10       1.0  0.17286066368249917  0.4084045964102642  0.1937882944574838  1.0000
  H   H11       1.0  0.1728512002176572  0.9083991597648832  0.30620874212776533  1.0000
  H   H12       1.0  0.8271417256710262  0.591596467192602  0.8062087873129828  1.0000
  H   H13       1.0  0.2058961839807693  0.7714095224507458  0.5648880516660101  1.0000
  H   H14       1.0  0.7941048770668574  0.7285898258793253  0.0648882425696087  1.0000
  H   H15       1.0  0.7940992413090625  0.22858534706323036  0.4351137933267141  1.0000
  H   H16       1.0  0.20589868831542896  0.2714149286565686  0.9351145550463473  1.0000
  H   H17       1.0  0.66064826749178  0.7102359399063688  0.42144031382655106  1.0000
  H   H18       1.0  0.3393513976006517  0.7897585861424615  0.9214367526098644  1.0000
  H   H19       1.0  0.3393479418072189  0.28976139025348147  0.5785605785158057  1.0000
  H   H20       1.0  0.6606501327490193  0.21024369716061383  0.07856128179695082  1.0000
  H   H21       1.0  0.679196462225633  0.4551523912051606  0.49921126248157327  1.0000
  H   H22       1.0  0.32080173669982764  0.044847242622878994  0.999207559754105  1.0000
  H   H23       1.0  0.3207989630702102  0.5448424782945054  0.5007934404395655  1.0000
  H   H24       1.0  0.679203471703495  0.9551587528396012  0.0007971431463432  1.0000
  C   C1        1.0  0.5452635029957306  0.9212785775118203  0.2548172792796565  1.0000
  C   C2        1.0  0.4547367300374744  0.5787372599322608  0.7548024702264018  1.0000
  C   C3        1.0  0.45473606732801386  0.07871755418373276  0.7451817077888807  1.0000
  C   C4        1.0  0.5452626153022136  0.42126991280153453  0.24519651680007837  1.0000
  C   C5        1.0  0.9357526883224877  0.6279096641071148  0.5323250319862469  1.0000
  C   C6        1.0  0.06425010390532279  0.8720802102399997  0.03232288423622981  1.0000
  C   C7        1.0  0.0642427369673442  0.37208520540686146  0.4676768130064772  1.0000
  C   C8        1.0  0.935754320480818  0.12792332459569167  0.9676789607433707  1.0000
  C   C9        1.0  0.9323716688891464  0.8852534548777696  0.6488217918379819  1.0000
  C   C10       1.0  0.06763896887794373  0.6147426772035516  0.14881492800390822  1.0000
  C   C11       1.0  0.06762539941571788  0.1147426555770963  0.35117910051082657  1.0000
  C   C12       1.0  0.9323634204735781  0.38525838640408944  0.8511812011237512  1.0000
  C   C13       1.0  0.8244135372203869  0.982153380306414  0.6407913668432885  1.0000
  C   C14       1.0  0.1755904947586869  0.5178378684034327  0.14079427436990244  1.0000
  C   C15       1.0  0.1755835310844773  0.017842730148451797  0.35920952550551993  1.0000
  C   C16       1.0  0.8244118945948314  0.4821631951994404  0.859202807400564  1.0000
  C   C17       1.0  0.11611205355747957  0.6526821225988398  0.5363690364168862  1.0000
  C   C18       1.0  0.8838951427215064  0.8473175644197537  0.036368722483949505  1.0000
  C   C19       1.0  0.8838833717283517  0.347312746924679  0.46363090329022344  1.0000
  C   C20       1.0  0.1161080306471902  0.1526859598146757  0.9636302645645646  1.0000
  C   C21       1.0  0.7278860933568225  0.7850858655846196  0.5008391450182261  1.0000
  C   C22       1.0  0.2721123635706206  0.7149263743307656  0.000833365798897  1.0000
  C   C23       1.0  0.27211011594017975  0.2149114645799911  0.4991607946813163  1.0000
  C   C24       1.0  0.7278904177884866  0.28507591959265005  0.9991637159677825  1.0000
  C   C25       1.0  0.8198456722371713  0.4753974316282309  0.4971337771113939  1.0000
  C   C26       1.0  0.18015337697047326  0.024601003288111697  0.997132475140724  1.0000
  C   C27       1.0  0.18014975305266023  0.5245974378857453  0.5028680678813303  1.0000
  C   C28       1.0  0.8198514394232602  0.9754037618633615  0.0028703224779036006  1.0000
  N   N1        1.0  0.8683583173593515  0.7598849114926766  0.5605130896723695  1.0000
  N   N2        1.0  0.13165077335392536  0.7401084140116294  0.06050555929078171  1.0000
  N   N3        1.0  0.13163875094551256  0.24011119896219665  0.4394878026764389  1.0000
  N   N4        1.0  0.8683532590166293  0.25989389052736556  0.9394915224785765  1.0000
  N   N5        1.0  0.6982905172033325  0.9189032336516404  0.5483725951399664  1.0000
  N   N6        1.0  0.3017071884211545  0.5810937981983952  0.04837366773884362  1.0000
  N   N7        1.0  0.30170608410125505  0.08109532682875908  0.45162829719860303  1.0000
  N   N8        1.0  0.6982955929359489  0.4189084957297949  0.9516224613850356  1.0000
  O   O1        1.0  0.650118670822593  0.06384790039597728  0.2527839843745384  1.0000
  O   O2        1.0  0.349862379568826  0.4361467026026702  0.7527841296857787  1.0000
  O   O3        1.0  0.3498813664994103  0.9361457812788173  0.7472140500614303  1.0000
  O   O4        1.0  0.6501311027212465  0.5638616473690374  0.24721580996637021  1.0000
  O   O5        1.0  0.4506865058316122  0.8503270742218377  0.3501130592233963  1.0000
  O   O6        1.0  0.5493137185919821  0.6496669464110312  0.8501152734948294  1.0000
  O   O7        1.0  0.5493117384920082  0.1496727271899161  0.6498887857568719  1.0000
  O   O8        1.0  0.4506899217769841  0.35033412779787193  0.14988371356391642  1.0000
