data_image0
_chemical_formula_structural       Zn6H144C168N24O30
_chemical_formula_sum              "Zn6 H144 C168 N24 O30"
_cell_length_a       11.959637702164992
_cell_length_b       16.245116586358467
_cell_length_c       25.972089353275415
_cell_angle_alpha    75.7108893864163
_cell_angle_beta     86.40179517598193
_cell_angle_gamma    76.05509631418339

_space_group_name_H-M_alt    "P 1"
_space_group_IT_number       1

loop_
  _space_group_symop_operation_xyz
  'x, y, z'

loop_
  _atom_site_type_symbol
  _atom_site_label
  _atom_site_symmetry_multiplicity
  _atom_site_fract_x
  _atom_site_fract_y
  _atom_site_fract_z
  _atom_site_occupancy
  Zn  Zn1       1.0  0.21535414945962122  0.13315204766989552  0.6487242289568157  1.0000
  Zn  Zn2       1.0  0.7846476294873173  0.8668512690619464  0.3512785659596815  1.0000
  Zn  Zn3       1.0  0.39034050135924053  0.6046487439745223  0.6829257694910353  1.0000
  Zn  Zn4       1.0  0.6096596441431713  0.3953482936108657  0.31706952338171135  1.0000
  Zn  Zn5       1.0  0.753524339665198  0.2607021296465606  0.9964107554215503  1.0000
  Zn  Zn6       1.0  0.2464794625376498  0.7392999205676818  0.0035887019343973877  1.0000
  H   H1        1.0  0.3208765521497838  0.08750092580766024  0.7560389548407755  1.0000
  H   H2        1.0  0.6791124644234967  0.9125000235413696  0.243966094381463  1.0000
  H   H3        1.0  0.4424939342117682  0.9600992640962575  0.8156259120365448  1.0000
  H   H4        1.0  0.5574996449653753  0.03990032561422652  0.18437766571501163  1.0000
  H   H5        1.0  0.5039649509430362  0.8379209055604592  0.6813566708840783  1.0000
  H   H6        1.0  0.496042556166522  0.16209211427156592  0.31864068368861354  1.0000
  H   H7        1.0  0.3836938999831006  0.9728457628344247  0.62805751372737  1.0000
  H   H8        1.0  0.616313263022704  0.027168513530497825  0.37194197649895233  1.0000
  H   H9        1.0  0.5278979258658298  0.7055603327690821  0.7513638709390378  1.0000
  H   H10       1.0  0.47209571454059324  0.2944451645762955  0.2486357567777588  1.0000
  H   H11       1.0  0.6465118423463564  0.7536811784439836  0.7303276932535212  1.0000
  H   H12       1.0  0.3534887670925714  0.24632028815022275  0.2696719414735753  1.0000
  H   H13       1.0  0.4591681578430525  0.8373610874161347  0.8566370894902137  1.0000
  H   H14       1.0  0.5408383666121283  0.16264020028233972  0.14336509715521123  1.0000
  H   H15       1.0  0.610312745687061  0.7987634346726724  0.8621800708210685  1.0000
  H   H16       1.0  0.38969429492374985  0.20123596822644885  0.13781891234391  1.0000
  H   H17       1.0  0.5102526430085919  0.6890462788602819  0.9125197198393096  1.0000
  H   H18       1.0  0.4897536942012195  0.31095569468435974  0.08748083119592563  1.0000
  H   H19       1.0  0.4283672490021146  0.6957224901569035  0.8567958201193946  1.0000
  H   H20       1.0  0.5716309757131698  0.30428156529319494  0.14320619817958402  1.0000
  H   H21       1.0  0.7448963762546512  0.6851438560556318  0.8155114654949147  1.0000
  H   H22       1.0  0.25510467942863363  0.31484985100701834  0.18448737096534984  1.0000
  H   H23       1.0  0.705094113093928  0.6066759028221043  0.7875940503736559  1.0000
  H   H24       1.0  0.29489557866386207  0.39332258281515936  0.2124044103096026  1.0000
  H   H25       1.0  0.7982008209856418  0.5086816930498659  0.8461551466603581  1.0000
  H   H26       1.0  0.20179495784027085  0.49131598542521715  0.15384479811441307  1.0000
  H   H27       1.0  0.8402986353802079  0.3618632385345607  0.9041217292730438  1.0000
  H   H28       1.0  0.1596947543810644  0.6381370452477528  0.09587982666302958  1.0000
  H   H29       1.0  0.5262594563915074  0.4046446554122696  0.9817319784031683  1.0000
  H   H30       1.0  0.4737369062672555  0.5953600794173399  0.018270378603105496  1.0000
  H   H31       1.0  0.46915848861125653  0.5581261602443703  0.9287732734222658  1.0000
  H   H32       1.0  0.5308390609830768  0.4418773007214798  0.07122692628485079  1.0000
  H   H33       1.0  0.3613810538881311  0.23669632527912657  0.6768032455363766  1.0000
  H   H34       1.0  0.6386126343328443  0.763305932905425  0.3231964715658862  1.0000
  H   H35       1.0  0.45427958974258337  0.3540165113334908  0.6344059704232237  1.0000
  H   H36       1.0  0.5457190203795008  0.6459830730999061  0.36559284299173095  1.0000
  H   H37       1.0  0.3204799714119276  0.3442004612480859  0.483958372002114  1.0000
  H   H38       1.0  0.6795102169034309  0.6557992718168891  0.5160418164839626  1.0000
  H   H39       1.0  0.23431780478602354  0.2271967460897599  0.5342517260894937  1.0000
  H   H40       1.0  0.7656720350845846  0.7728042599594646  0.46574982563963363  1.0000
  H   H41       1.0  0.5376564225800992  0.40643218070745507  0.45842084940116484  1.0000
  H   H42       1.0  0.46234570014242155  0.5935576251457277  0.541577759382797  1.0000
  H   H43       1.0  0.3858630366953051  0.4401378585250628  0.4512346613116022  1.0000
  H   H44       1.0  0.6141361482494575  0.5598565608197961  0.5487629690348114  1.0000
  H   H45       1.0  0.5164892226076818  0.4477902951194396  0.5959448533325543  1.0000
  H   H46       1.0  0.4835174214156553  0.5522013655789949  0.4040533532111112  1.0000
  H   H47       1.0  0.6198378210693533  0.411247879896223  0.5489340531202059  1.0000
  H   H48       1.0  0.3801660985311485  0.5887445515436485  0.451061037928703  1.0000
  H   H49       1.0  0.2517820452933819  0.7945110299116324  0.6460475511656227  1.0000
  H   H50       1.0  0.7482340940238643  0.2054796144647356  0.3539586183773196  1.0000
  H   H51       1.0  0.15124223935160325  0.9111771760116271  0.6883130554288996  1.0000
  H   H52       1.0  0.8487741306845678  0.08880955980910701  0.3116940666991255  1.0000
  H   H53       1.0  0.23961410854699491  0.7250931006553218  0.8407747420913977  1.0000
  H   H54       1.0  0.7604003950916577  0.27489433099627564  0.1592319463333496  1.0000
  H   H55       1.0  0.33366373800250676  0.617705185402933  0.7909864325152113  1.0000
  H   H56       1.0  0.6663551561881321  0.38228151487656703  0.2090198522656621  1.0000
  H   H57       1.0  0.2051536523378062  0.8212703206434359  0.8706774117578888  1.0000
  H   H58       1.0  0.7948455955514364  0.17872386015690725  0.12933141854183108  1.0000
  H   H59       1.0  0.23402120660182393  0.9261853967590669  0.847191661916739  1.0000
  H   H60       1.0  0.7659846293176782  0.07380614965945402  0.1528127455570427  1.0000
  H   H61       1.0  0.13800342791830641  0.0247100586939268  0.7610791273974584  1.0000
  H   H62       1.0  0.862008370895566  0.975275011472036  0.23891951424926816  1.0000
  H   H63       1.0  0.044955172040360536  0.9828656039543661  0.7293782633378355  1.0000
  H   H64       1.0  0.9550489430957826  0.0171169125868929  0.2706263647943388  1.0000
  H   H65       1.0  0.9037316599308627  0.9874538715781469  0.8008818917252186  1.0000
  H   H66       1.0  0.09627263882955359  0.012549426063806402  0.1991192934335473  1.0000
  H   H67       1.0  0.9441141758457195  0.08986160756028742  0.7797301385200441  1.0000
  H   H68       1.0  0.05590519358923268  0.9101356185534119  0.22026765535885315  1.0000
  H   H69       1.0  0.09891520048244466  0.9240180696161604  0.920053216327304  1.0000
  H   H70       1.0  0.9010862213377493  0.07598655300261471  0.0799493970111058  1.0000
  H   H71       1.0  0.003541999286731817  0.8834056806774414  0.8880568161691543  1.0000
  H   H72       1.0  0.9964587691175171  0.11659826520036633  0.11194784063025048  1.0000
  H   H73       1.0  0.8276750564649477  0.15485077071985395  0.8232822215137219  1.0000
  H   H74       1.0  0.17233439964822855  0.8451551243137062  0.17671342830145417  1.0000
  H   H75       1.0  0.742985973614772  0.2571243344044163  0.8775138536987583  1.0000
  H   H76       1.0  0.25701323776771545  0.7428791823821188  0.12248205445915518  1.0000
  H   H77       1.0  0.976657071395508  0.13115976443976507  0.9991586768815354  1.0000
  H   H78       1.0  0.023334628361119793  0.8688405704556107  0.0008421499350176669  1.0000
  H   H79       1.0  0.07244366454359151  0.02064015666368851  0.9515515711871814  1.0000
  H   H80       1.0  0.9275543642443156  0.9793646175352608  0.048447266680462064  1.0000
  H   H81       1.0  0.26451158130795704  0.4698541275199731  0.6883380684828637  1.0000
  H   H82       1.0  0.7354867129904293  0.5301435483165661  0.3116594941236031  1.0000
  H   H83       1.0  0.13292552046746656  0.4325395116051354  0.6348231166151095  1.0000
  H   H84       1.0  0.8670742045084128  0.5674529324579753  0.3651755585090086  1.0000
  H   H85       1.0  0.15423377056652046  0.6701105460925021  0.5154063648724262  1.0000
  H   H86       1.0  0.8457710831539061  0.32987540614621486  0.484588110891309  1.0000
  H   H87       1.0  0.2883578521531547  0.694378159069011  0.5747819495767672  1.0000
  H   H88       1.0  0.7116430380533175  0.3056130933870663  0.42521070619532964  1.0000
  H   H89       1.0  0.9252981112549893  0.6266156199158176  0.4933218061853495  1.0000
  H   H90       1.0  0.07469139286569512  0.37337435541785885  0.5066813755396495  1.0000
  H   H91       1.0  0.06659591658114294  0.6343618995128182  0.4711342554019994  1.0000
  H   H92       1.0  0.933390817472649  0.3656320774974376  0.5288661076480636  1.0000
  H   H93       1.0  0.032399328914991074  0.41371523549292294  0.5911387117840619  1.0000
  H   H94       1.0  0.9675826661420646  0.5862807458736726  0.4088634181529329  1.0000
  H   H95       1.0  0.9048290365846086  0.4924672001829436  0.5660532181027165  1.0000
  H   H96       1.0  0.0951583030705906  0.507530692729098  0.43394501210087816  1.0000
  H   H97       1.0  0.01773201964279278  0.4229899242858723  0.7145363974030018  1.0000
  H   H98       1.0  0.9822812695636927  0.5770203386587412  0.2854631214791468  1.0000
  H   H99       1.0  0.99691130554902  0.47938117114858875  0.7972071134243992  1.0000
  H   H100      1.0  0.0031010578913708156  0.5206232837487265  0.20279251508515728  1.0000
  H   H101      1.0  0.11397680609410801  0.21670080180797413  0.8908633327113763  1.0000
  H   H102      1.0  0.8860017111540589  0.7833017683320592  0.1091367740103593  1.0000
  H   H103      1.0  0.1400981637387417  0.16160706484071596  0.8074265562307303  1.0000
  H   H104      1.0  0.859888237455529  0.8383973237238184  0.19257151684745819  1.0000
  H   H105      1.0  0.2320402260480067  0.4209478021734371  0.8589776877877782  1.0000
  H   H106      1.0  0.7679471487269113  0.579059155277591  0.1410203650484689  1.0000
  H   H107      1.0  0.29971123474470573  0.5422103180602705  0.8809625236909184  1.0000
  H   H108      1.0  0.7002860033669337  0.4577912178573769  0.1190371976182902  1.0000
  H   H109      1.0  0.9821970931531612  0.6154573293891018  0.9628078182241637  1.0000
  H   H110      1.0  0.017800408626619916  0.3845493707375667  0.037192292097486805  1.0000
  H   H111      1.0  0.9148038116700263  0.4914403074892775  0.9429816657773104  1.0000
  H   H112      1.0  0.08518718941833472  0.5085717777500208  0.05701514466813507  1.0000
  H   H113      1.0  0.2136644839479231  0.947659063120014  0.5112253159322081  1.0000
  H   H114      1.0  0.7863308272568192  0.0523587114891129  0.4887736155354432  1.0000
  H   H115      1.0  0.11780421917099203  0.8390922720739057  0.4895589166741061  1.0000
  H   H116      1.0  0.8822030046723628  0.1609187157761625  0.510442980169401  1.0000
  H   H117      1.0  0.8743365950995072  0.8727647818029711  0.616441017826169  1.0000
  H   H118      1.0  0.1256721463684443  0.12723452885472142  0.383560625484769  1.0000
  H   H119      1.0  0.9661696011633014  0.984573562187855  0.6352492822360888  1.0000
  H   H120      1.0  0.0338321122133678  0.015423863360432203  0.36475669030458147  1.0000
  H   H121      1.0  0.932515498589204  0.6395452954733474  0.6067392852857125  1.0000
  H   H122      1.0  0.06748695330818323  0.3604586239684124  0.3932649420173604  1.0000
  H   H123      1.0  0.745851936216049  0.6012316404448512  0.6435752642609884  1.0000
  H   H124      1.0  0.2541518463887372  0.39877354199645504  0.3564291243782236  1.0000
  H   H125      1.0  0.5570830270514763  0.8533640777994765  0.5593399302709869  1.0000
  H   H126      1.0  0.4429227592747084  0.14663991215528685  0.4406576449601118  1.0000
  H   H127      1.0  0.7423269106214435  0.8924376065356018  0.5223907212582262  1.0000
  H   H128      1.0  0.257682131476713  0.10756367029866003  0.47760946942418775  1.0000
  H   H129      1.0  0.4595401544304067  0.42460058714252125  0.8410329943361887  1.0000
  H   H130      1.0  0.5404631403623696  0.5754002567723688  0.1589628041905158  1.0000
  H   H131      1.0  0.5088101000769994  0.2888872085485375  0.91619976742102  1.0000
  H   H132      1.0  0.49118374934335646  0.711114462497932  0.08379695082800245  1.0000
  H   H133      1.0  0.5849411918641252  0.13059252047978023  0.8022359148165351  1.0000
  H   H134      1.0  0.4150412780455072  0.8694047905712595  0.1977640808704066  1.0000
  H   H135      1.0  0.5396427375460179  0.26620195550945885  0.7277440030538713  1.0000
  H   H136      1.0  0.460339773666668  0.7337921410577836  0.2722549234026772  1.0000
  H   H137      1.0  0.6913386946535526  0.9793994095807721  0.9533166630594039  1.0000
  H   H138      1.0  0.30866840034687476  0.020593671284508702  0.0466751609760649  1.0000
  H   H139      1.0  0.6037816231464675  0.8484283426484115  0.9812393605139107  1.0000
  H   H140      1.0  0.39622396041268365  0.15156413638646882  0.018751825191081692  1.0000
  H   H141      1.0  0.2847637390270776  0.0035560188380543045  0.9083779414737522  1.0000
  H   H142      1.0  0.7152367331515208  0.9964428862158244  0.09162053323390747  1.0000
  H   H143      1.0  0.3717239615899857  0.13292934501771475  0.8786816636997656  1.0000
  H   H144      1.0  0.6282785642315148  0.8670681783591409  0.12131888032136826  1.0000
  C   C1        1.0  0.36417255021902417  0.03041079601455011  0.7414024108225591  1.0000
  C   C2        1.0  0.6358236838614105  0.9695913443720415  0.2586003309854235  1.0000
  C   C3        1.0  0.4308546844804937  0.9579630637053929  0.7747975101053654  1.0000
  C   C4        1.0  0.5691416694962684  0.04204170402691432  0.22520330207976264  1.0000
  C   C5        1.0  0.4816664947929041  0.883067649553361  0.7552400074585391  1.0000
  C   C6        1.0  0.5183377648349606  0.11693885434671365  0.24476263313591323  1.0000
  C   C7        1.0  0.46746174309407706  0.8912261995743835  0.7002421627610288  1.0000
  C   C8        1.0  0.5325479176284703  0.10877894380763561  0.2997582123066351  1.0000
  C   C9        1.0  0.3994865558466357  0.9666622426820343  0.6699395420047765  1.0000
  C   C10       1.0  0.6005199907052657  0.03334815890946172  0.3300601500415823  1.0000
  C   C11       1.0  0.5935991361011402  0.7327447495248337  0.7650774106135216  1.0000
  C   C12       1.0  0.406398409152196  0.26725872789236865  0.2349220166830222  1.0000
  C   C13       1.0  0.5326662641775928  0.7903716248607539  0.8451986354246444  1.0000
  C   C14       1.0  0.46733706100217637  0.20962910389471293  0.15480256997607  1.0000
  C   C15       1.0  0.5128676729734919  0.6996070065533646  0.8690477955630911  1.0000
  C   C16       1.0  0.4871348072039511  0.30039374775863337  0.13095304527786314  1.0000
  C   C17       1.0  0.67099997032377  0.6618279351809945  0.8058757386416673  1.0000
  C   C18       1.0  0.3289952663005238  0.3381717268015124  0.19412277515009888  1.0000
  C   C19       1.0  0.6295414446731871  0.5492996588455199  0.8823190269352992  1.0000
  C   C20       1.0  0.37045767068846663  0.45070114011289775  0.11768305910361927  1.0000
  C   C21       1.0  0.7335376279731918  0.48958402125740025  0.8749246714257737  1.0000
  C   C22       1.0  0.26645761733310275  0.5104156078224165  0.1250753871871453  1.0000
  C   C23       1.0  0.7576137163838085  0.40647075516747583  0.9072684980282447  1.0000
  C   C24       1.0  0.24238402479689122  0.5935320035008687  0.09273410969963441  1.0000
  C   C25       1.0  0.5837338532019276  0.4317123983396556  0.9515478903883619  1.0000
  C   C26       1.0  0.4162653972495464  0.5682909703847588  0.04845496946471429  1.0000
  C   C27       1.0  0.5528604045184553  0.5171112155294181  0.9220306950463312  1.0000
  C   C28       1.0  0.44713684444568014  0.4828902792598697  0.0779709572893097  1.0000
  C   C29       1.0  0.35468805182830465  0.2626371079621562  0.6338336425918952  1.0000
  C   C30       1.0  0.6453122526394212  0.7373624089068259  0.3661666723531524  1.0000
  C   C31       1.0  0.40777992658698287  0.32880125410819266  0.6093703405907576  1.0000
  C   C32       1.0  0.592221436237992  0.6711943944540124  0.39062820185684194  1.0000
  C   C33       1.0  0.3976497485676164  0.3633445567212236  0.5535426293215198  1.0000
  C   C34       1.0  0.602352099962431  0.6366523803970665  0.44645570990246597  1.0000
  C   C35       1.0  0.33221442836249804  0.3247087977101444  0.5267369669324538  1.0000
  C   C36       1.0  0.6677825439104909  0.6752875822241579  0.4732619791590126  1.0000
  C   C37       1.0  0.2826763280963718  0.25827436832797457  0.5547359640237488  1.0000
  C   C38       1.0  0.7173186078977168  0.7417233274779634  0.44526400239654157  1.0000
  C   C39       1.0  0.4594379417797045  0.45056684160404364  0.46969370054398507  1.0000
  C   C40       1.0  0.5405664765488678  0.5494268290378701  0.5303035045130287  1.0000
  C   C41       1.0  0.5348355408582394  0.45478819431053114  0.5534373321517094  1.0000
  C   C42       1.0  0.46516887964082804  0.5452054681057066  0.4465602591105906  1.0000
  C   C43       1.0  0.2444220793814865  0.7817339362966395  0.6891833974432444  1.0000
  C   C44       1.0  0.7555880380461772  0.2182542102757026  0.3108244670359426  1.0000
  C   C45       1.0  0.18809308335284664  0.8471482566082076  0.7134209755933228  1.0000
  C   C46       1.0  0.8119161869019964  0.15283992374634187  0.2865861381208177  1.0000
  C   C47       1.0  0.18496581215555355  0.8309802365320211  0.7695425948667919  1.0000
  C   C48       1.0  0.8150439937894163  0.16900598499211847  0.23046479121448732  1.0000
  C   C49       1.0  0.23900081467460418  0.7453091385872953  0.7976352252787678  1.0000
  C   C50       1.0  0.7610080220307155  0.2546744975990124  0.20237295345502557  1.0000
  C   C51       1.0  0.2922677158031703  0.6840698334245588  0.7700813375387127  1.0000
  C   C52       1.0  0.7077460562179853  0.3159202758063061  0.22992189808756078  1.0000
  C   C53       1.0  0.1675090694531249  0.888397558351855  0.8495422238930813  1.0000
  C   C54       1.0  0.8324926939085842  0.1115966198099443  0.1504642242383412  1.0000
  C   C55       1.0  0.07658929625841181  0.9820869000670528  0.7682045778531403  1.0000
  C   C56       1.0  0.9234171166542708  0.017899473037260805  0.23179903275737965  1.0000
  C   C57       1.0  0.9744499940446475  0.02097834826023611  0.8001740286109396  1.0000
  C   C58       1.0  0.02555976664799433  0.9790203003488003  0.1998272976382225  1.0000
  C   C59       1.0  0.06606125857796026  0.9254078049040974  0.8815244852427141  1.0000
  C   C60       1.0  0.9339427438932547  0.07459351010994203  0.1184789249551486  1.0000
  C   C61       1.0  0.9586609450397177  0.07487376876176202  0.8820663201534487  1.0000
  C   C62       1.0  0.041345505554922134  0.925130856805609  0.11793114264307289  1.0000
  C   C63       1.0  0.8655245268249913  0.14583517593176512  0.8618416800677409  1.0000
  C   C64       1.0  0.13448275574896934  0.8541694734331176  0.13815383005682239  1.0000
  C   C65       1.0  0.8171304569162673  0.20408693814354012  0.8923853554512888  1.0000
  C   C66       1.0  0.18287297296633664  0.7959164755373536  0.1076112168895662  1.0000
  C   C67       1.0  0.9455461930698236  0.1330131061451993  0.9601987608453231  1.0000
  C   C68       1.0  0.054449960638571285  0.8669923967873034  0.03979809849789008  1.0000
  C   C69       1.0  0.9987709384639628  0.07082745986573973  0.9331786266109887  1.0000
  C   C70       1.0  0.001231485216933926  0.9291765665097672  0.06682058002335363  1.0000
  C   C71       1.0  0.23814080089575645  0.5122144909190142  0.6494184915633456  1.0000
  C   C72       1.0  0.7618597039039019  0.48778123255375766  0.3505773690927754  1.0000
  C   C73       1.0  0.16323773832600355  0.49196356189223434  0.6189544393684726  1.0000
  C   C74       1.0  0.8367576898846638  0.5080353977927674  0.3810464824440629  1.0000
  C   C75       1.0  0.1301599613532432  0.5471070473959331  0.5680819851092593  1.0000
  C   C76       1.0  0.8698315203792929  0.45288489235528573  0.4319181558750174  1.0000
  C   C77       1.0  0.17717520149423638  0.6220055498512596  0.5526529088843759  1.0000
  C   C78       1.0  0.8228225046303097  0.37798508608209164  0.44734146908001554  1.0000
  C   C79       1.0  0.251573943302752  0.6370504850522994  0.5859185030644127  1.0000
  C   C80       1.0  0.748420616030103  0.36294859067164253  0.4140778059302122  1.0000
  C   C81       1.0  0.012284733511435799  0.5883364104312252  0.48654144371228364  1.0000
  C   C82       1.0  0.9877042327486268  0.4116555319585302  0.5134610794402974  1.0000
  C   C83       1.0  0.9933345610007577  0.46118524063206234  0.5555809278566316  1.0000
  C   C84       1.0  0.0066547037190076985  0.5388086761599383  0.44441975646213905  1.0000
  C   C85       1.0  0.09719411094659593  0.25740145786353713  0.7057038108369866  1.0000
  C   C86       1.0  0.9028058081143232  0.7426025300221469  0.294299708992085  1.0000
  C   C87       1.0  0.08092813513330552  0.28916308571396604  0.7559404985104337  1.0000
  C   C88       1.0  0.9190698458400494  0.7108449276457945  0.2440582499717436  1.0000
  C   C89       1.0  0.04000333073915392  0.3785626977411809  0.7533023579254206  1.0000
  C   C90       1.0  0.9599994678242184  0.621449153091753  0.24669376327737777  1.0000
  C   C91       1.0  0.027542183997354638  0.4097978430947578  0.7991182697944765  1.0000
  C   C92       1.0  0.9724577962928509  0.5902120524258196  0.2008812999998496  1.0000
  C   C93       1.0  0.054647278704017255  0.35045011602628073  0.8482884040729317  1.0000
  C   C94       1.0  0.9453396233888184  0.649555503514627  0.1517121692186549  1.0000
  C   C95       1.0  0.09487303168569378  0.26113897101960504  0.8518773940521385  1.0000
  C   C96       1.0  0.9051124766917057  0.7388686822622788  0.1481202250808309  1.0000
  C   C97       1.0  0.10839736721023739  0.23103614575324374  0.8056000979590436  1.0000
  C   C98       1.0  0.8915878014044056  0.7689727476101995  0.19440042923812936  1.0000
  C   C99       1.0  0.06967584754732313  0.4498253135300346  0.9002650133983822  1.0000
  C   C100      1.0  0.9303155628233316  0.5501822102101598  0.0997328404211899  1.0000
  C   C101      1.0  0.17728923126536958  0.4641081779109585  0.8813130617179823  1.0000
  C   C102      1.0  0.8227027191364088  0.5358973705474811  0.11868583687929397  1.0000
  C   C103      1.0  0.21427764231816587  0.5320607234097922  0.893247913642739  1.0000
  C   C104      1.0  0.7857152009004909  0.46794156033129763  0.1067514388997637  1.0000
  C   C105      1.0  0.14473478328691414  0.586705270613635  0.9228680416311833  1.0000
  C   C106      1.0  0.855260956406447  0.4132956141195692  0.0771333585792675  1.0000
  C   C107      1.0  0.03552957667130139  0.573096190061868  0.9396477257602173  1.0000
  C   C108      1.0  0.9644612280979532  0.4269074177765334  0.06035226090582308  1.0000
  C   C109      1.0  0.9977606976134088  0.504640945948083  0.9286769019409461  1.0000
  C   C110      1.0  0.002232396250391811  0.4953665513560638  0.07132052238228678  1.0000
  C   C111      1.0  0.19130949436022612  0.6529644594439006  0.9401392096165253  1.0000
  C   C112      1.0  0.8086974415477501  0.3470322585298007  0.05986440660831249  1.0000
  C   C113      1.0  0.1553528830979829  0.03610937235524861  0.588215651048408  1.0000
  C   C114      1.0  0.8446456748049872  0.9638965258863197  0.4117907077013498  1.0000
  C   C115      1.0  0.0962065561182186  0.9728915597620048  0.5747949370688586  1.0000
  C   C116      1.0  0.9037954169773316  0.02712024259640341  0.42520429542175714  1.0000
  C   C117      1.0  0.13881139719622834  0.9313193420217377  0.5337689849989785  1.0000
  C   C118      1.0  0.8611852139371834  0.06869061459660493  0.46623105758273203  1.0000
  C   C119      1.0  0.08684409016868236  0.8703615001040179  0.5220382693417065  1.0000
  C   C120      1.0  0.9131577652010349  0.12964766668299893  0.4779632789770432  1.0000
  C   C121      1.0  0.9921044031998179  0.848903301245656  0.552189409090019  1.0000
  C   C122      1.0  0.007894967147983304  0.15110269482447342  0.4478115211402027  1.0000
  C   C123      1.0  0.9480792282568871  0.8896289785145373  0.593191416851937  1.0000
  C   C124      1.0  0.05192521427535012  0.11037685599072232  0.40681208694213217  1.0000
  C   C125      1.0  0.9999404792071547  0.9517323443867484  0.6037495895649839  1.0000
  C   C126      1.0  6.49912317740994e-05  0.048272795167164914  0.3962551419884619  1.0000
  C   C127      1.0  0.846168883431382  0.7680631465799977  0.5635407916044812  1.0000
  C   C128      1.0  0.15383810936487666  0.23193949547994921  0.4364581021750382  1.0000
  C   C129      1.0  0.849681038407745  0.6858214698907974  0.5971369630064202  1.0000
  C   C130      1.0  0.15032459323056466  0.3141830825250267  0.4028647696937782  1.0000
  C   C131      1.0  0.7466131192660228  0.6649444433309956  0.6174554006835392  1.0000
  C   C132      1.0  0.25339281083198967  0.33506208348707395  0.3825444931828557  1.0000
  C   C133      1.0  0.6411715561823997  0.7254346094580203  0.6038398696412912  1.0000
  C   C134      1.0  0.3588376492856328  0.2745660720124831  0.39615770839316167  1.0000
  C   C135      1.0  0.6399793831452457  0.8078809016443674  0.5704031164377951  1.0000
  C   C136      1.0  0.3600259783134164  0.1921185112394569  0.4295970686341023  1.0000
  C   C137      1.0  0.7423038448556911  0.8300694795267206  0.5503873652063049  1.0000
  C   C138      1.0  0.2577012837135442  0.1699338501384134  0.4496114810752232  1.0000
  C   C139      1.0  0.5299701664661782  0.7008011646661175  0.6228403639312033  1.0000
  C   C140      1.0  0.4700271915417888  0.29920299859724514  0.3771574277551508  1.0000
  C   C141      1.0  0.4705253695350535  0.4325602420402462  0.7346298161939728  1.0000
  C   C142      1.0  0.5294736890018826  0.5674315746359184  0.265368585159429  1.0000
  C   C143      1.0  0.4960745130373355  0.35306944692496967  0.7800307222805429  1.0000
  C   C144      1.0  0.5039204251272552  0.646928240655292  0.21996963034503378  1.0000
  C   C145      1.0  0.4864598841322377  0.3599553248687712  0.8329562736704902  1.0000
  C   C146      1.0  0.5135401023412952  0.6400422916290298  0.16704240426079048  1.0000
  C   C147      1.0  0.5129918394531076  0.2855518970962835  0.8746594460393098  1.0000
  C   C148      1.0  0.4870075262255328  0.7144418610794362  0.12533866130143423  1.0000
  C   C149      1.0  0.5487172031691046  0.2040106376391506  0.8627037274308904  1.0000
  C   C150      1.0  0.4512825960590519  0.7959876647048104  0.1372933148902007  1.0000
  C   C151      1.0  0.5568523285143742  0.19529911213163595  0.8102628670627255  1.0000
  C   C152      1.0  0.44313501765231683  0.8046987561033916  0.18973652175672842  1.0000
  C   C153      1.0  0.5311175971209537  0.2702376023013926  0.7691505508895632  1.0000
  C   C154      1.0  0.46887190305046295  0.7297615856333834  0.2308455017729329  1.0000
  C   C155      1.0  0.5367444479405635  0.062490760967875814  0.9144651185032943  1.0000
  C   C156      1.0  0.46326009896633036  0.9375055041170556  0.08553170175201072  1.0000
  C   C157      1.0  0.6031914175347171  0.982718823558173  0.9429255368007857  1.0000
  C   C158      1.0  0.39680937704265073  0.017278907219541402  0.05706694020037871  1.0000
  C   C159      1.0  0.5545808259976541  0.9109536830484617  0.9584156759483804  1.0000
  C   C160      1.0  0.4454292375592601  0.08904386531546041  0.0415761767467089  1.0000
  C   C161      1.0  0.43950281903997285  0.9176315326565146  0.946234881296931  1.0000
  C   C162      1.0  0.5605053933129157  0.0823666539585659  0.0537592411318855  1.0000
  C   C163      1.0  0.37464491196843147  0.9978514354036747  0.9171947372617524  1.0000
  C   C164      1.0  0.6253565772643697  0.0021468158272171024  0.0828030341788519  1.0000
  C   C165      1.0  0.4225585256235079  0.07032676914302272  0.9007123890667899  1.0000
  C   C166      1.0  0.5774414499975223  0.9296708884831447  0.09928435783805868  1.0000
  C   C167      1.0  0.3881099077806383  0.840576338144537  0.9666705226981236  1.0000
  C   C168      1.0  0.6118884607700252  0.15942719597285304  0.03332540710531621  1.0000
  N   N1        1.0  0.34535323056609013  0.03548742405687481  0.6897975872992603  1.0000
  N   N2        1.0  0.6546496918428775  0.9645178415206744  0.3102037333431866  1.0000
  N   N3        1.0  0.5399647142697431  0.8073069887568922  0.7872873942441886  1.0000
  N   N4        1.0  0.4600345209882377  0.19269643754724092  0.21271276217187562  1.0000
  N   N5        1.0  0.6053182101835476  0.6332701714839787  0.853317106559615  1.0000
  N   N6        1.0  0.39467872078638794  0.3667294229341211  0.1466829087622514  1.0000
  N   N7        1.0  0.6852221383656458  0.376342272099727  0.9453145589220213  1.0000
  N   N8        1.0  0.3147739128104164  0.6236605376816797  0.05468731968633729  1.0000
  N   N9        1.0  0.29256622411497807  0.2263951421401131  0.6077171629791494  1.0000
  N   N10       1.0  0.7074332288389301  0.7736044249624213  0.39228162879027906  1.0000
  N   N11       1.0  0.44685297133112567  0.4303798601433614  0.5275169594017228  1.0000
  N   N12       1.0  0.5531470542749588  0.5696145500963186  0.47248026309387114  1.0000
  N   N13       1.0  0.2974129403103376  0.7008494083984689  0.716476188684716  1.0000
  N   N14       1.0  0.7025939800124165  0.2991381710051898  0.2835310807550472  1.0000
  N   N15       1.0  0.1322239090879762  0.8933528971817496  0.7959307179027421  1.0000
  N   N16       1.0  0.8677802998349265  0.10663540360930313  0.20407575327398322  1.0000
  N   N17       1.0  0.009306725509183903  0.014283062943953009  0.8541140164889214  1.0000
  N   N18       1.0  0.9907024951523414  0.9857175609468388  0.14588626498254337  1.0000
  N   N19       1.0  0.8542214922394534  0.19877428562144675  0.941295557263473  1.0000
  N   N20       1.0  0.14577808712228096  0.801227884149789  0.05870246349896039  1.0000
  N   N21       1.0  0.28353564631713385  0.5830940743618102  0.6339297122848677  1.0000
  N   N22       1.0  0.7164594617288387  0.4169029931776792  0.36606918630860724  1.0000
  N   N23       1.0  0.057788250764524145  0.528547394560427  0.5362868260816  1.0000
  N   N24       1.0  0.9422019067721056  0.4714432575142241  0.4637143121823968  1.0000
  O   O1        1.0  0.14566764712612473  0.17473702183313122  0.7121628681352661  1.0000
  O   O2        1.0  0.8543316710661274  0.8252722298491619  0.28783720029891674  1.0000
  O   O3        1.0  0.06706997177401067  0.30937031441141727  0.6619965068425557  1.0000
  O   O4        1.0  0.9329326873585446  0.690638983106865  0.337998068135505  1.0000
  O   O5        1.0  0.034137023857297805  0.3770392575165503  0.8954344548770409  1.0000
  O   O6        1.0  0.9658484388760513  0.6229716267004765  0.10456346107574886  1.0000
  O   O7        1.0  0.12558017372413127  0.7004171523422402  0.9685985139937685  1.0000
  O   O8        1.0  0.874420930101863  0.29958556990535373  0.03140246233085968  1.0000
  O   O9        1.0  0.2941487589264611  0.6585834115831092  0.9287163358754498  1.0000
  O   O10       1.0  0.7058575822326104  0.34140934936043277  0.07129134422229548  1.0000
  O   O11       1.0  0.1108003895934715  0.07041112241193301  0.627540707410745  1.0000
  O   O12       1.0  0.8891980462426757  0.9295921567095963  0.3724671947565739  1.0000
  O   O13       1.0  0.24448742229115086  0.052087324791337215  0.563753410839368  1.0000
  O   O14       1.0  0.7555060942061117  0.9479278160054323  0.436249424568615  1.0000
  O   O15       1.0  0.9490504000679107  0.7844913852443373  0.5401184104465813  1.0000
  O   O16       1.0  0.050959497885060004  0.21550982490502696  0.4598840758220248  1.0000
  O   O17       1.0  0.5408312530302342  0.6290131615041403  0.6598436419152307  1.0000
  O   O18       1.0  0.45916999680164855  0.3709890311850829  0.3401516321191522  1.0000
  O   O19       1.0  0.43609635266113855  0.7473855928204075  0.6029620736403133  1.0000
  O   O20       1.0  0.5639041589781827  0.25262236032111224  0.3970369961105789  1.0000
  O   O21       1.0  0.4198520259945725  0.505244717410939  0.7472616903028352  1.0000
  O   O22       1.0  0.5801506979883513  0.494749020795382  0.2527340132240781  1.0000
  O   O23       1.0  0.4963170077758861  0.425699287853263  0.6881207584246383  1.0000
  O   O24       1.0  0.5036826520214462  0.5742964611760473  0.31187473767172236  1.0000
  O   O25       1.0  0.5880249130724807  0.13189344526741562  0.9042592376632541  1.0000
  O   O26       1.0  0.41197453988142746  0.868106121835119  0.0957395541061743  1.0000
  O   O27       1.0  0.2778778195097402  0.8528448222619432  0.960310679827515  1.0000
  O   O28       1.0  0.7221236784050618  0.14715339606626546  0.0396886364342421  1.0000
  O   O29       1.0  0.44963409045766406  0.7677727024964087  0.9897400477721376  1.0000
  O   O30       1.0  0.550362326590708  0.2322257102993604  0.01025515010461928  1.0000
