data_image0
_chemical_formula_structural       Cu6H48C72N24
_chemical_formula_sum              "Cu6 H48 C72 N24"
_cell_length_a       8.968108574517919
_cell_length_b       15.255815343828973
_cell_length_c       15.250656225086178
_cell_angle_alpha    120.01110264686609
_cell_angle_beta     90.09844449651085
_cell_angle_gamma    90.00023100750218

_space_group_name_H-M_alt    "P 1"
_space_group_IT_number       1

loop_
  _space_group_symop_operation_xyz
  'x, y, z'

loop_
  _atom_site_type_symbol
  _atom_site_label
  _atom_site_symmetry_multiplicity
  _atom_site_fract_x
  _atom_site_fract_y
  _atom_site_fract_z
  _atom_site_occupancy
  Cu  Cu1       1.0  0.2500012914395313  0.2480752143706226  4.6078564964258543e-07  1.0000
  Cu  Cu2       1.0  0.25072532505605954  0.9999463727409645  0.24762476752122362  1.0000
  Cu  Cu3       1.0  0.2492731400852293  0.7523196134358444  0.75237289607896  1.0000
  Cu  Cu4       1.0  0.7499983247178507  0.751925500553014  9.679661160589709e-07  1.0000
  Cu  Cu5       1.0  0.7492725704098718  5.284574644550001e-05  0.752373265639072  1.0000
  Cu  Cu6       1.0  0.7507281032815314  0.2476780928256375  0.24762700525114675  1.0000
  H   H1        1.0  0.847766320613296  0.4000116579310884  0.8451278048559347  1.0000
  H   H2        1.0  0.8477066420295715  0.15458704272106163  0.5547641702864539  1.0000
  H   H3        1.0  0.8480168149122633  0.4447380067759783  0.5994392624109394  1.0000
  H   H4        1.0  0.6519740390069942  0.8452979129174525  0.4005600556770903  1.0000
  H   H5        1.0  0.6522323177261384  0.5548922934928696  0.1548779235817719  1.0000
  H   H6        1.0  0.6522968728424772  0.5998223480153158  0.4452322524702908  1.0000
  H   H7        1.0  0.15222823553668977  0.5999890741120525  0.15487426219170433  1.0000
  H   H8        1.0  0.1522957114790557  0.8454091493743903  0.44523235142960976  1.0000
  H   H9        1.0  0.1519788481173876  0.5552619674871339  0.4005571805026237  1.0000
  H   H10       1.0  0.34801494006806893  0.15470433074131765  0.5994407974740525  1.0000
  H   H11       1.0  0.3477722770140304  0.4451099562111054  0.8451262190657759  1.0000
  H   H12       1.0  0.3477066000038391  0.4001783864690509  0.5547671974841393  1.0000
  H   H13       1.0  0.1166215714267906  0.418438178279274  0.08827925457767799  1.0000
  H   H14       1.0  0.11608081815776933  0.9120417831618111  0.330167529870856  1.0000
  H   H15       1.0  0.11566929968132911  0.670220675676191  0.5821390922314009  1.0000
  H   H16       1.0  0.38432576997148266  0.08808299878778313  0.4178597093549925  1.0000
  H   H17       1.0  0.38338239452387063  0.3301621488017189  0.9117257060731776  1.0000
  H   H18       1.0  0.3839156482527458  0.5818781374991743  0.6698296538065875  1.0000
  H   H19       1.0  0.8833752130384982  0.5815587697845715  0.9117215766825667  1.0000
  H   H20       1.0  0.8839193041162831  0.08795289422153017  0.6698282331014483  1.0000
  H   H21       1.0  0.8843274812739355  0.32977929940921763  0.417859318789958  1.0000
  H   H22       1.0  0.6156632094090569  0.9119222724835653  0.5821413466937743  1.0000
  H   H23       1.0  0.6166221975074109  0.6698416142652801  0.08827657067079987  1.0000
  H   H24       1.0  0.6160844825687306  0.4181256239039399  0.3301719641316154  1.0000
  H   H25       1.0  0.7290829210896348  0.2473996422066236  0.8496963126840313  1.0000
  H   H26       1.0  0.728958848975822  0.14863371577659729  0.3958948576583907  1.0000
  H   H27       1.0  0.7292170815911448  0.6017015585798758  0.7525148660001691  1.0000
  H   H28       1.0  0.7707799059048315  0.8491950469793822  0.24749027930028  1.0000
  H   H29       1.0  0.7709157715490137  0.39770852985722627  0.15030807508074417  1.0000
  H   H30       1.0  0.7710440560499878  0.7527428533487  0.6041035693301142  1.0000
  H   H31       1.0  0.2709138582057093  0.7525980619477223  0.15030096248791844  1.0000
  H   H32       1.0  0.2710490911090204  0.8513700488707558  0.6041093887042026  1.0000
  H   H33       1.0  0.2707852805023663  0.3982946348453638  0.2474875577730486  1.0000
  H   H34       1.0  0.22921242605082176  0.1508124972466476  0.7525158495689013  1.0000
  H   H35       1.0  0.22908881660912078  0.6022899343706173  0.8496915513479453  1.0000
  H   H36       1.0  0.22895941845625603  0.24726015206673677  0.3958970164737252  1.0000
  H   H37       1.0  0.06439231076362259  0.06035753916702902  0.8620491019169096  1.0000
  H   H38       1.0  0.06605426630230231  0.1371999181006274  0.19834485899335164  1.0000
  H   H39       1.0  0.06457910035368289  0.801655117953004  0.9396617515698011  1.0000
  H   H40       1.0  0.435417948405771  0.8619909583887732  0.06033698749918412  1.0000
  H   H41       1.0  0.43560885648654596  0.19830753511962482  0.13794957016597212  1.0000
  H   H42       1.0  0.43394634944220206  0.9388529554451921  0.8016538350419044  1.0000
  H   H43       1.0  0.9356055870106275  0.939640922786623  0.13795051997929877  1.0000
  H   H44       1.0  0.933945854770052  0.862797029770519  0.8016500724759796  1.0000
  H   H45       1.0  0.935421025946248  0.19834637207578254  0.060336763166603205  1.0000
  H   H46       1.0  0.5645799457057167  0.1380090167801526  0.9396601127093335  1.0000
  H   H47       1.0  0.5643890423943249  0.8016924407880807  0.8620508089631826  1.0000
  H   H48       1.0  0.5660526641971658  0.06114399322895991  0.19834634194503314  1.0000
  C   C1        1.0  0.9799590433609282  0.39409933780645906  0.9607526737602683  1.0000
  C   C2        1.0  0.9797415938145236  0.0391445704216054  0.4333908844384665  1.0000
  C   C3        1.0  0.9795917152025526  0.5665725718213324  0.6058534027222962  1.0000
  C   C4        1.0  0.5204044114175945  0.9607208976607924  0.39414698472160153  1.0000
  C   C5        1.0  0.5200391610328836  0.433352374676666  0.03925419453964463  1.0000
  C   C6        1.0  0.5202615513566117  0.6057546999589434  0.566608687389568  1.0000
  C   C7        1.0  0.0200366267464247  0.605899880661667  0.03924863680984466  1.0000
  C   C8        1.0  0.020262991481985203  0.9608538933629732  0.5666067746378404  1.0000
  C   C9        1.0  0.020410642980358804  0.43342740545473646  0.3941463236443781  1.0000
  C   C10       1.0  0.4795890268644244  0.0392851318081853  0.6058531413970272  1.0000
  C   C11       1.0  0.4799643171361225  0.5666491175234967  0.9607489129518926  1.0000
  C   C12       1.0  0.4797452720043296  0.3942467933783149  0.4333944223682096  1.0000
  C   C13       1.0  0.9136439487354835  0.4436661264378116  0.9138220312221108  1.0000
  C   C14       1.0  0.9136104922917313  0.08606047128156288  0.5298259786096864  1.0000
  C   C15       1.0  0.9138472615008554  0.46988774170996084  0.5560135112153263  1.0000
  C   C16       1.0  0.5861506019319195  0.9138748381782519  0.4439849813286685  1.0000
  C   C17       1.0  0.5863547517254445  0.5298490351651495  0.08618267455865687  1.0000
  C   C18       1.0  0.5863971051126597  0.5562350932471389  0.47017419864391036  1.0000
  C   C19       1.0  0.08635060590732022  0.5563338484805556  0.086179001424938  1.0000
  C   C20       1.0  0.08639520902263341  0.9139379930298047  0.4701723370061544  1.0000
  C   C21       1.0  0.08615286504691262  0.5301114776832705  0.443985179239924  1.0000
  C   C22       1.0  0.4138472943927951  0.08612816489876712  0.556013633345728  1.0000
  C   C23       1.0  0.4136476109790125  0.4701532134852542  0.9138201550098088  1.0000
  C   C24       1.0  0.41361194892955677  0.4437671578252066  0.5298292912411569  1.0000
  C   C25       1.0  0.066788774707085  0.45309900173906204  0.04789694784712856  1.0000
  C   C26       1.0  0.0665107310274848  0.9521820528591504  0.4052228370151028  1.0000
  C   C27       1.0  0.06620645014258031  0.5950192606911244  0.5472067150829574  1.0000
  C   C28       1.0  0.43379157092358883  0.0478160423890088  0.4527926847106585  1.0000
  C   C29       1.0  0.43321110648405897  0.40520596614743454  0.9521083880134003  1.0000
  C   C30       1.0  0.4334924477084243  0.5469611804428992  0.5947771626280842  1.0000
  C   C31       1.0  0.9332057811374243  0.546898702691493  0.9521049163028864  1.0000
  C   C32       1.0  0.9334949702868798  0.04781641145221731  0.5947754786007381  1.0000
  C   C33       1.0  0.9337925603873315  0.4049799581753249  0.4527913188327518  1.0000
  C   C34       1.0  0.5662052121497965  0.9521907450463373  0.5472071665065527  1.0000
  C   C35       1.0  0.5667923722382542  0.5947962830297512  0.04789509809460677  1.0000
  C   C36       1.0  0.5665143762058307  0.45304106987137516  0.4052263257461561  1.0000
  C   C37       1.0  0.9575261367009702  0.2853911192166052  0.918795856360518  1.0000
  C   C38       1.0  0.9577946510291612  0.08084419716432478  0.3664095202176796  1.0000
  C   C39       1.0  0.9570964600267119  0.6332518508055502  0.7145699871463836  1.0000
  C   C40       1.0  0.5428975195033702  0.9186837413392299  0.28542958517765993  1.0000
  C   C41       1.0  0.5424736958756283  0.36660022670224635  0.0812094594542572  1.0000
  C   C42       1.0  0.5422045460062535  0.714437345152689  0.6335887745165607  1.0000
  C   C43       1.0  0.04247398778631609  0.7146065860748294  0.08120142107766526  1.0000
  C   C44       1.0  0.0422065904298492  0.9191535088016495  0.6335890695441722  1.0000
  C   C45       1.0  0.042904782233435405  0.36674434150188523  0.28542915695078364  1.0000
  C   C46       1.0  0.45709257232736195  0.08131925923233038  0.7145696799929767  1.0000
  C   C47       1.0  0.4575297802328891  0.6333997513961194  0.9187922350202131  1.0000
  C   C48       1.0  0.4577966972654153  0.2855641455506372  0.3664110525435119  1.0000
  C   C49       1.0  0.8355036369999881  0.22565175400038837  0.8667705296129498  1.0000
  C   C50       1.0  0.8355129315861947  0.13184087371907788  0.35745915441886206  1.0000
  C   C51       1.0  0.8355478305512137  0.6406460585805435  0.7742888575291078  1.0000
  C   C52       1.0  0.6644493435977098  0.8663611997818705  0.22571276719357775  1.0000
  C   C53       1.0  0.6644970772882033  0.35888464522415825  0.13323285766215057  1.0000
  C   C54       1.0  0.6644888716079722  0.7743843428438594  0.6425369760822122  1.0000
  C   C55       1.0  0.1644987172146912  0.7743467088783687  0.13322647216840264  1.0000
  C   C56       1.0  0.1644916556180647  0.8681575903610153  0.6425398162256998  1.0000
  C   C57       1.0  0.1644545281273652  0.35934937742441525  0.22571122027525806  1.0000
  C   C58       1.0  0.3355429810698639  0.133640288184715  0.7742883653914563  1.0000
  C   C59       1.0  0.3355041636175002  0.6411123037647924  0.8667653534832312  1.0000
  C   C60       1.0  0.33551236975594634  0.22561714756395904  0.3574615394096058  1.0000
  C   C61       1.0  0.0053338139803145  0.1274401121357229  0.8739464269771489  1.0000
  C   C62       1.0  0.0062830148881048015  0.1252262409645866  0.2531997955215886  1.0000
  C   C63       1.0  0.005317234329844199  0.7463910299155856  0.8725926500473946  1.0000
  C   C64       1.0  0.4946796669271052  0.8737988655909917  0.12740679104506122  1.0000
  C   C65       1.0  0.49466665950382094  0.2534940070251892  0.12605458826108423  1.0000
  C   C66       1.0  0.49371956262687183  0.8720251231332838  0.7467995659849365  1.0000
  C   C67       1.0  0.9946640818861853  0.8725583495224285  0.12605188335080444  1.0000
  C   C68       1.0  0.9937204575576501  0.8747752503490529  0.7467993772651838  1.0000
  C   C69       1.0  0.9946828941256742  0.2536081897731606  0.12740735197611033  1.0000
  C   C70       1.0  0.505315998010296  0.1262011089676349  0.8725909634367569  1.0000
  C   C71       1.0  0.5053334729199365  0.7465067270608614  0.8739481383477498  1.0000
  C   C72       1.0  0.506282799218802  0.1279733409275181  0.2532026820694355  1.0000
  N   N1        1.0  0.06362703591362623  0.22099924568014734  0.9227647124143702  1.0000
  N   N2        1.0  0.06471060401484863  0.0773178736233078  0.2989022430504917  1.0000
  N   N3        1.0  0.06311515222563462  0.7018639575007981  0.7789992215228025  1.0000
  N   N4        1.0  0.43687953365697046  0.9228635029693636  0.2209996991481661  1.0000
  N   N5        1.0  0.43637279763821385  0.2982371554297103  0.07723798300362725  1.0000
  N   N6        1.0  0.435291487627623  0.778414418392025  0.7010956117714643  1.0000
  N   N7        1.0  0.9363708609067487  0.7789992161257546  0.07723425369771071  1.0000
  N   N8        1.0  0.9352917501998238  0.9226805892554565  0.7010947587308608  1.0000
  N   N9        1.0  0.936883860212028  0.29813526166115883  0.22100012396116142  1.0000
  N   N10       1.0  0.563113899798026  0.07713722751271486  0.7789971208710471  1.0000
  N   N11       1.0  0.563628449448956  0.7017643358646385  0.9227644671929627  1.0000
  N   N12       1.0  0.564711987374281  0.2215840457522944  0.2989053254700664  1.0000
  N   N13       1.0  0.8662595078905114  0.1266342112250101  0.8395475823468388  1.0000
  N   N14       1.0  0.866612207003243  0.15867917383914684  0.28545373172810423  1.0000
  N   N15       1.0  0.8665883845909406  0.7124609807927553  0.8733887022902139  1.0000
  N   N16       1.0  0.6334100560419105  0.8390764881673789  0.1266123907351755  1.0000
  N   N17       1.0  0.6337428502390737  0.2870876227552088  0.16045410138924154  1.0000
  N   N18       1.0  0.6333889151457086  0.8732263987273755  0.7145454718438061  1.0000
  N   N19       1.0  0.13373950113221875  0.8733642505166586  0.16044941716828023  1.0000
  N   N20       1.0  0.1333912673502624  0.8413223177700004  0.7145467526269231  1.0000
  N   N21       1.0  0.13341397408763103  0.2875344552121959  0.12661137551415186  1.0000
  N   N22       1.0  0.3665856117571238  0.16092348683451266  0.8733873310990248  1.0000
  N   N23       1.0  0.3662606253161442  0.7129115983661336  0.8395472144687589  1.0000
  N   N24       1.0  0.3666123313881542  0.1267743355899569  0.2854565997363068  1.0000
