data_image0
_chemical_formula_structural       Cu4H28C44N8O18
_chemical_formula_sum              "Cu4 H28 C44 N8 O18"
_cell_length_a       14.555309169936166
_cell_length_b       15.60815377122888
_cell_length_c       15.608352897422186
_cell_angle_alpha    112.73430464880904
_cell_angle_beta     95.96329216461832
_cell_angle_gamma    95.96315140320446

_space_group_name_H-M_alt    "P 1"
_space_group_IT_number       1

loop_
  _space_group_symop_operation_xyz
  'x, y, z'

loop_
  _atom_site_type_symbol
  _atom_site_label
  _atom_site_symmetry_multiplicity
  _atom_site_fract_x
  _atom_site_fract_y
  _atom_site_fract_z
  _atom_site_occupancy
  Cu  Cu1       1.0  0.48765917501156514  0.9254554652141638  0.925457697153668  1.0000
  Cu  Cu2       1.0  0.5123306584933472  0.0744461474469631  0.07444413688607202  1.0000
  Cu  Cu3       1.0  1.8613823087299909e-06  0.9999957243455668  0.5000047688635334  1.0000
  Cu  Cu4       1.0  4.70095290693461e-06  0.5000055484272609  0.9999974643696634  1.0000
  H   H1        1.0  0.5208471875796122  0.7607874286249869  0.7607810168837903  1.0000
  H   H2        1.0  0.47915070473135296  0.23916615493762092  0.2391981232547523  1.0000
  H   H3        1.0  0.4121770093079959  0.754758770431515  0.7547570744081257  1.0000
  H   H4        1.0  0.5878189129308495  0.24520886778367415  0.24523180918380666  1.0000
  H   H5        1.0  0.2133098734632739  0.10617308779389131  0.5332458932850486  1.0000
  H   H6        1.0  0.7866691652409799  0.4667596004860711  0.8938240751349653  1.0000
  H   H7        1.0  0.7866756717794415  0.8938212483065089  0.4667574647946467  1.0000
  H   H8        1.0  0.21331437469401496  0.5332396711123054  0.10616947056025344  1.0000
  H   H9        1.0  0.3212305799909386  0.0416970636616441  0.3901757560117646  1.0000
  H   H10       1.0  0.6787640029899293  0.6098354135008253  0.9583144153517227  1.0000
  H   H11       1.0  0.6787659431067398  0.9583057296392856  0.6098312994382343  1.0000
  H   H12       1.0  0.3212305545384169  0.3901680888712208  0.04168631849205441  1.0000
  H   H13       1.0  0.045024956431468956  0.8904432471855731  0.29810606826768554  1.0000
  H   H14       1.0  0.9549790822409532  0.7018855364087316  0.1095499929129744  1.0000
  H   H15       1.0  0.9549797140584532  0.1095497370113065  0.7018819534565425  1.0000
  H   H16       1.0  0.045023810739735416  0.29810040829511314  0.8904383315987163  1.0000
  H   H17       1.0  0.31734329714024767  0.006308216325180601  0.2271073513769224  1.0000
  H   H18       1.0  0.6826659891215882  0.7729296941175222  0.993713411721295  1.0000
  H   H19       1.0  0.682668314276384  0.9937072392816902  0.7729201640576734  1.0000
  H   H20       1.0  0.31734310361506607  0.22709632996923557  0.006300659463477101  1.0000
  H   H21       1.0  0.26567361898753467  0.7490729396800617  0.9774219160182298  1.0000
  H   H22       1.0  0.7343401479663783  0.0226026173884506  0.250961859873911  1.0000
  H   H23       1.0  0.7343383477233729  0.2509537832254054  0.022599110248258118  1.0000
  H   H24       1.0  0.26567455254810574  0.9774149582792051  0.7490629314643018  1.0000
  H   H25       1.0  0.1192007769945036  0.7701438076249403  0.20785648679687801  1.0000
  H   H26       1.0  0.8807952692637784  0.7921440394438123  0.22986854946685759  1.0000
  H   H27       1.0  0.8807999601888525  0.22986392582375006  0.7921452023201427  1.0000
  H   H28       1.0  0.1192055850917342  0.2078510273871856  0.7701346471325297  1.0000
  C   C1        1.0  0.19489200995851516  0.05212082704127141  0.4625646606534844  1.0000
  C   C2        1.0  0.8050976470252778  0.5374366781751478  0.9478760364700421  1.0000
  C   C3        1.0  0.8051012438403902  0.9478742283782041  0.5374371574114393  1.0000
  C   C4        1.0  0.19489301924873104  0.4625640150077644  0.052116185286159626  1.0000
  C   C5        1.0  0.24849100414295583  0.021311391602353104  0.3926223446828417  1.0000
  C   C6        1.0  0.7515036888023233  0.6073846430798896  0.9786962770644154  1.0000
  C   C7        1.0  0.7515048275705069  0.9786914032924232  0.6073827226193629  1.0000
  C   C8        1.0  0.24848948639538557  0.3926188597663583  0.021302401523584497  1.0000
  C   C9        1.0  0.10543728160961766  0.9396355676279385  0.3429992842705475  1.0000
  C   C10       1.0  0.8945590427705383  0.6569996384134387  0.06036144765774761  1.0000
  C   C11       1.0  0.8945628800482978  0.06035950893733852  0.6569961610616417  1.0000
  C   C12       1.0  0.10543824549685608  0.3429947357151519  0.9396296039791281  1.0000
  C   C13       1.0  0.2142722869819238  0.895241579941164  0.227421235031784  1.0000
  C   C14       1.0  0.7857305146619281  0.7725853418707017  0.10476915132003482  1.0000
  C   C15       1.0  0.785730159303533  0.10476825957062631  0.7725859202786796  1.0000
  C   C16       1.0  0.21427026255168613  0.2274181633421365  0.8952373092684454  1.0000
  C   C17       1.0  0.28100680546662465  0.9344490548253008  0.1896479146926425  1.0000
  C   C18       1.0  0.7190066286509025  0.8103754060225513  0.06556804732386474  1.0000
  C   C19       1.0  0.7190074588175079  0.06556571544242472  0.810369980791137  1.0000
  C   C20       1.0  0.28100694322750286  0.18963937217046836  0.9344433775859147  1.0000
  C   C21       1.0  0.3009604933699421  0.8808403313705571  0.100277134898775  1.0000
  C   C22       1.0  0.6990523626266808  0.8997526007519954  0.11918411387561191  1.0000
  C   C23       1.0  0.6990503873618721  0.1191793495435363  0.8997468226495685  1.0000
  C   C24       1.0  0.3009590594164778  0.10027061155945198  0.8808310140458957  1.0000
  C   C25       1.0  0.2522918824579961  0.7899320250607147  0.04800577903838388  1.0000
  C   C26       1.0  0.7477080716791846  0.9520141618685403  0.2100896006030909  1.0000
  C   C27       1.0  0.7477071421419837  0.21008694157489324  0.9520109913709973  1.0000
  C   C28       1.0  0.2522930643310204  0.04800058893506082  0.7899257391357113  1.0000
  C   C29       1.0  0.18564907795835953  0.7509761076368447  0.08662418218391814  1.0000
  C   C30       1.0  0.814345869583448  0.9133764729674354  0.24903771559784363  1.0000
  C   C31       1.0  0.8143464188325993  0.24903794891442743  0.9133775305752041  1.0000
  C   C32       1.0  0.18564989401474458  0.0866213866884209  0.7509744013784783  1.0000
  C   C33       1.0  0.1682127196710752  0.8030663243705052  0.177241271118895  1.0000
  C   C34       1.0  0.8317858105579318  0.8227600054198094  0.19694801675071727  1.0000
  C   C35       1.0  0.8317867054858752  0.19694633122391286  0.8227609182672426  1.0000
  C   C36       1.0  0.16821180739952976  0.17723645715622646  0.8030592527558512  1.0000
  C   C37       1.0  0.37424909622937724  0.9235913450750105  0.06152445365668776  1.0000
  C   C38       1.0  0.6257565512869477  0.9384733608710507  0.07640181149547949  1.0000
  C   C39       1.0  0.6257558704661647  0.07639459756079253  0.9384679142585741  1.0000
  C   C40       1.0  0.3742484838157266  0.06151751519468012  0.9235847874388698  1.0000
  C   C41       1.0  0.13131312719050922  0.6534741870841645  0.029958085977305985  1.0000
  C   C42       1.0  0.8686876204646339  0.9700558711671122  0.3465401172262404  1.0000
  C   C43       1.0  0.8686851370344045  0.3465398513333256  0.9700599038787915  1.0000
  C   C44       1.0  0.13131224179824127  0.029959584400273805  0.6534728100939305  1.0000
  N   N1        1.0  0.10598435435636591  0.0007482088893198002  0.430427351513984  1.0000
  N   N2        1.0  0.8940118905470484  0.569568393556587  0.9992409507223673  1.0000
  N   N3        1.0  0.8940120658282285  0.9992405273046147  0.5695691188120621  1.0000
  N   N4        1.0  0.10598434084779738  0.43042809572395413  0.0007456934769933935  1.0000
  N   N5        1.0  0.1910094047343805  0.949347217000771  0.3170324464553291  1.0000
  N   N6        1.0  0.8089916505241278  0.6829698059433584  0.050659657012403235  1.0000
  N   N7        1.0  0.8089907890946081  0.050656997713467405  0.682969107436108  1.0000
  N   N8        1.0  0.19100534460217486  0.3170315907519595  0.9493404957120647  1.0000
  O   O1        1.0  0.4138183364452246  0.007347140999172601  0.114271034942341  1.0000
  O   O2        1.0  0.5861899180697776  0.8857067505966683  0.9926633116704552  1.0000
  O   O3        1.0  0.5861855230075221  0.9926585267856256  0.8857026052595033  1.0000
  O   O4        1.0  0.41382080326599896  0.11426723052768752  0.007336506547652334  1.0000
  O   O5        1.0  0.3910629068249989  0.8730403017857427  0.9802349060615188  1.0000
  O   O6        1.0  0.608932637879427  0.01977401315632221  0.12693464500695487  1.0000
  O   O7        1.0  0.6089376383745132  0.12692591397990333  0.01977052993044742  1.0000
  O   O8        1.0  0.3910597703763515  0.980224602174005  0.8730364374307131  1.0000
  O   O9        1.0  0.13511942813078545  0.6123681472384418  0.944967411289845  1.0000
  O   O10       1.0  0.8648648312063327  0.05504296622417831  0.38762791877479696  1.0000
  O   O11       1.0  0.8648624782598233  0.3876339074066024  0.055046276214461926  1.0000
  O   O12       1.0  0.13511502882479223  0.9449682584861567  0.6123667024473535  1.0000
  O   O13       1.0  0.08161997809222754  0.620649666981514  0.07900748587287157  1.0000
  O   O14       1.0  0.9183862950476467  0.9210120250353954  0.3793555014693483  1.0000
  O   O15       1.0  0.9183875650796197  0.3793573417166984  0.9210176436179084  1.0000
  O   O16       1.0  0.0816219966999654  0.07901330268706633  0.6206524563042708  1.0000
  O   O17       1.0  0.4714785802210457  0.7914971874698794  0.7915006090022063  1.0000
  O   O18       1.0  0.5285220837184356  0.20849232485496574  0.20844980185364653  1.0000
