data_image0
_chemical_formula_structural       Hg2H24C16S4N12
_chemical_formula_sum              "Hg2 H24 C16 S4 N12"
_cell_length_a       6.444419353347646
_cell_length_b       8.966475537282392
_cell_length_c       10.529129286713061
_cell_angle_alpha    83.09078930758184
_cell_angle_beta     81.84091412812931
_cell_angle_gamma    86.7003411325756

_space_group_name_H-M_alt    "P 1"
_space_group_IT_number       1

loop_
  _space_group_symop_operation_xyz
  'x, y, z'

loop_
  _atom_site_type_symbol
  _atom_site_label
  _atom_site_symmetry_multiplicity
  _atom_site_fract_x
  _atom_site_fract_y
  _atom_site_fract_z
  _atom_site_occupancy
  Hg  Hg1       1.0  0.21696023133894468  0.13370334513587784  0.3162928946142785  1.0000
  Hg  Hg2       1.0  0.7830289997726253  0.8662983888025337  0.6837148009974713  1.0000
  H   H1        1.0  0.7486850814554487  0.13577223585906495  0.23291369743349577  1.0000
  H   H2        1.0  0.2512919945784872  0.864221706594755  0.7670938726681769  1.0000
  H   H3        1.0  0.6956501880678161  0.1758523469829925  0.3975414462966285  1.0000
  H   H4        1.0  0.30433459037495675  0.8241472437010487  0.6024525827129281  1.0000
  H   H5        1.0  0.4503651246582905  0.38160822408082146  0.45492717803133337  1.0000
  H   H6        1.0  0.5496282880352582  0.6184058838825736  0.5450732564963658  1.0000
  H   H7        1.0  0.3304665988095365  0.49356838690767557  0.3296252187892462  1.0000
  H   H8        1.0  0.6695156599815633  0.5064491430899521  0.6703777048351826  1.0000
  H   H9        1.0  0.4002879261265734  0.4362703657546376  0.10980201147572186  1.0000
  H   H10       1.0  0.5997046479866127  0.5637280047444263  0.8902009881819524  1.0000
  H   H11       1.0  0.5822392428996679  0.2855122574252462  0.0691469474127473  1.0000
  H   H12       1.0  0.4177463025397045  0.7144693013454386  0.9308563872780411  1.0000
  H   H13       1.0  0.9692970669756491  0.527195792698791  0.3399401464657856  1.0000
  H   H14       1.0  0.03070501528409149  0.47279912171250515  0.6600681022308947  1.0000
  H   H15       1.0  0.8232373239690033  0.398815801396715  0.45938587226792293  1.0000
  H   H16       1.0  0.17676452346335478  0.6011847506486917  0.5406189928506323  1.0000
  H   H17       1.0  0.5249639788713409  0.659824829054692  0.1760593317802304  1.0000
  H   H18       1.0  0.4750428378823132  0.34017238296012664  0.823935001459482  1.0000
  H   H19       1.0  0.801624119183323  0.6749939647060614  0.17795331546919613  1.0000
  H   H20       1.0  0.19839393211693593  0.32499640969526666  0.822046455674709  1.0000
  H   H21       1.0  0.9473975070442435  0.30812323872604713  0.072962866915411  1.0000
  H   H22       1.0  0.05258760499979329  0.6918650021763852  0.9270512447272451  1.0000
  H   H23       1.0  0.04024005465593919  0.474926858817611  0.1210138782768766  1.0000
  H   H24       1.0  0.959764263837549  0.5250557273022877  0.8789868477542485  1.0000
  C   C1        1.0  0.638026581275362  0.8730854934683948  0.40437060769636457  1.0000
  C   C2        1.0  0.36197533418374656  0.12691509583370217  0.5956275996837661  1.0000
  C   C3        1.0  0.1878071627805653  0.8705599986694496  0.13424348018654797  1.0000
  C   C4        1.0  0.8122427941846198  0.129451548385056  0.8657534630457776  1.0000
  C   C5        1.0  0.7146977239622033  0.2253833904524073  0.2963402965685091  1.0000
  C   C6        1.0  0.2852884281294479  0.7746160852583941  0.7036726252589958  1.0000
  C   C7        1.0  0.4738978582532241  0.43056635151949524  0.35340912479946246  1.0000
  C   C8        1.0  0.5260892947273065  0.5694524102945024  0.6465695272599561  1.0000
  C   C9        1.0  0.5461905872826377  0.37576605643145905  0.13173741449271864  1.0000
  C   C10       1.0  0.453825637537193  0.6242311044300736  0.8682561429960743  1.0000
  C   C11       1.0  0.8403453665141569  0.4492517488402611  0.35812573077202353  1.0000
  C   C12       1.0  0.15964725618957232  0.5507466482707316  0.6418725133582015  1.0000
  C   C13       1.0  0.6714413078894593  0.598187762859368  0.1952716609896825  1.0000
  C   C14       1.0  0.32854817038059286  0.4018129531933424  0.8047171185646392  1.0000
  C   C15       1.0  0.9116228117469661  0.3970260781642097  0.13696353516430546  1.0000
  C   C16       1.0  0.08841591908321789  0.6029900046131546  0.863037693323392  1.0000
  S   S1        1.0  0.8763588031984427  0.8420908051616394  0.4447097218242888  1.0000
  S   S2        1.0  0.12364453029428549  0.15791084672446232  0.5552977612665728  1.0000
  S   S3        1.0  0.21074241368751964  0.0539582040294206  0.0965908463067819  1.0000
  S   S4        1.0  0.7892750902131169  0.9460434030610542  0.903409766524767  1.0000
  N   N1        1.0  0.4686935207630683  0.8948486898164988  0.3737055716019313  1.0000
  N   N2        1.0  0.531306958819016  0.10514506088548359  0.626311472388295  1.0000
  N   N3        1.0  0.1719215811445521  0.7391038477176154  0.1548077242702988  1.0000
  N   N4        1.0  0.828069608295145  0.2608923252192882  0.845188007939953  1.0000
  N   N5        1.0  0.5156330066844816  0.3065993524792107  0.2690712457486413  1.0000
  N   N6        1.0  0.48435443261327277  0.6934103401542656  0.7309215702062772  1.0000
  N   N7        1.0  0.8913565270212445  0.3269753996496902  0.2734588841573071  1.0000
  N   N8        1.0  0.10863310281903442  0.6730184799221348  0.726546700504315  1.0000
  N   N9        1.0  0.646429453716543  0.5330377635033656  0.3318979403753559  1.0000
  N   N10       1.0  0.35357115350743823  0.4669583636026361  0.668096064978485  1.0000
  N   N11       1.0  0.7178533614112723  0.47959682856031094  0.10815033957897671  1.0000
  N   N12       1.0  0.28214266260271614  0.5203982370456329  0.8918375019642396  1.0000
