data_image0
_chemical_formula_structural       Co4H104C112N16O20
_chemical_formula_sum              "Co4 H104 C112 N16 O20"
_cell_length_a       15.848579432824222
_cell_length_b       15.8544254780199
_cell_length_c       16.313222418742804
_cell_angle_alpha    109.25840843648139
_cell_angle_beta     115.99352352893426
_cell_angle_gamma    102.11694152046663

_space_group_name_H-M_alt    "P 1"
_space_group_IT_number       1

loop_
  _space_group_symop_operation_xyz
  'x, y, z'

loop_
  _atom_site_type_symbol
  _atom_site_label
  _atom_site_symmetry_multiplicity
  _atom_site_fract_x
  _atom_site_fract_y
  _atom_site_fract_z
  _atom_site_occupancy
  Co  Co1       1.0  0.2152048893776168  0.0878292970966044  0.881444388355483  1.0000
  Co  Co2       1.0  0.7064686415336682  0.33386687542190424  0.6185793673118668  1.0000
  Co  Co3       1.0  0.7847963682418423  0.9121753591437454  0.11855990033031123  1.0000
  Co  Co4       1.0  0.2935352822726999  0.6661355518634055  0.381427624139363  1.0000
  H   H1        1.0  0.010522351552985868  0.9741700961134042  0.3089261147255869  1.0000
  H   H2        1.0  0.16577348557883917  0.7019233165744722  0.19139939666323622  1.0000
  H   H3        1.0  0.989479008716998  0.02582914212472075  0.6910747225435757  1.0000
  H   H4        1.0  0.8342301631661543  0.2980856082821505  0.808609380643489  1.0000
  H   H5        1.0  0.21873325992365286  0.8433385335856443  0.5883888217813296  1.0000
  H   H6        1.0  0.7552696905302984  0.6305224279978249  0.9119760565636245  1.0000
  H   H7        1.0  0.7812704896194165  0.15666856109990596  0.41161789192883474  1.0000
  H   H8        1.0  0.24473713470952424  0.369486294113976  0.08803368117357734  1.0000
  H   H9        1.0  0.09837199267101225  0.8770886197371155  0.31328110779111995  1.0000
  H   H10       1.0  0.06437338363910075  0.785471848860233  0.18703830095059717  1.0000
  H   H11       1.0  0.901629546812572  0.1229116295904475  0.686717680388334  1.0000
  H   H12       1.0  0.9356294491840487  0.2145386295546317  0.8129688948222197  1.0000
  H   H13       1.0  0.1068643895700703  0.06749477608257588  0.5778682566183662  1.0000
  H   H14       1.0  0.9901330970527554  0.529443840005328  0.9224019363112392  1.0000
  H   H15       1.0  0.8931326863966621  0.9325066239681022  0.4221297391850672  1.0000
  H   H16       1.0  0.009870147132687676  0.4705669069596823  0.07760419290310959  1.0000
  H   H17       1.0  0.2100467260660679  0.18354292810036546  0.15310924123325984  1.0000
  H   H18       1.0  0.5301230705083527  0.05705527911817402  0.3467757863554796  1.0000
  H   H19       1.0  0.7899467452183303  0.8164523140831507  0.8468867753413253  1.0000
  H   H20       1.0  0.46987762386806514  0.9429491045406807  0.6532272130443177  1.0000
  H   H21       1.0  0.2731903784892467  0.19312606799025636  0.0875872059922287  1.0000
  H   H22       1.0  0.6051119904221879  0.18575154250496695  0.4123450786598257  1.0000
  H   H23       1.0  0.7268031420253536  0.8068745962268196  0.91241461784346  1.0000
  H   H24       1.0  0.39488881477475973  0.8142550123861128  0.5876616571510953  1.0000
  H   H25       1.0  0.3093820679211064  0.1419123501568365  0.1735517914986175  1.0000
  H   H26       1.0  0.46780152545380105  0.1358032968207041  0.32634344140087995  1.0000
  H   H27       1.0  0.690615060980733  0.8580872962651186  0.8264492359257577  1.0000
  H   H28       1.0  0.5321993208033576  0.8642010908694999  0.6736619138433826  1.0000
  H   H29       1.0  0.03277002249889468  0.8680869023437126  0.7143970817818898  1.0000
  H   H30       1.0  0.6536210026987349  0.3185799329003701  0.7854816461136453  1.0000
  H   H31       1.0  0.9672396026161323  0.1319080042066361  0.2856047267297868  1.0000
  H   H32       1.0  0.3463666496537173  0.6814185681273415  0.21451953164021392  1.0000
  H   H33       1.0  0.9106874131708198  0.6996841483703875  0.6527244525699915  1.0000
  H   H34       1.0  0.5470305018493705  0.2581959400565453  0.8472728826028942  1.0000
  H   H35       1.0  0.08932128520183377  0.3003101405059781  0.3472720379966675  1.0000
  H   H36       1.0  0.4529606020592922  0.741795860655017  0.15272746972596007  1.0000
  H   H37       1.0  0.885516462807452  0.6550310262663075  0.7751746522497813  1.0000
  H   H38       1.0  0.38012919297680287  0.11018325377462199  0.7250168261799106  1.0000
  H   H39       1.0  0.11448960178330486  0.3449648215368128  0.2248228574557133  1.0000
  H   H40       1.0  0.6198659598667078  0.8898052169189157  0.27497587042491045  1.0000
  H   H41       1.0  0.9707032770065284  0.7788115945898539  0.9593850353829725  1.0000
  H   H42       1.0  0.31974556230373713  0.010919204551420706  0.5409440598477675  1.0000
  H   H43       1.0  0.0292996092369364  0.22118804378923326  0.04061290171210891  1.0000
  H   H44       1.0  0.6802525685363036  0.9890819900602563  0.4590527853699625  1.0000
  H   H45       1.0  0.05196211304695461  0.9434153131610401  0.11843709880685803  1.0000
  H   H46       1.0  0.3244705871649672  0.9335365285658953  0.3816703485396504  1.0000
  H   H47       1.0  0.9480349050343623  0.05658216202868257  0.8815601922064007  1.0000
  H   H48       1.0  0.6755307593776722  0.06646588393121543  0.6183274643619898  1.0000
  H   H49       1.0  0.14351521875276063  0.06512868440167811  0.18105890976197264  1.0000
  H   H50       1.0  0.3834171584890385  0.9621631669755287  0.3188479501472443  1.0000
  H   H51       1.0  0.8564756990177005  0.9348673701379652  0.8189367526382229  1.0000
  H   H52       1.0  0.6165874753689594  0.03784121400898503  0.6811545595959958  1.0000
  H   H53       1.0  0.18063400425189255  0.8812594729206253  0.1657982243885172  1.0000
  H   H54       1.0  0.21473524750776118  0.014475339837446225  0.3339708955290846  1.0000
  H   H55       1.0  0.8193666271669715  0.11874266296365488  0.8341959433826601  1.0000
  H   H56       1.0  0.7852631446663026  0.9855225314618963  0.6660211394656346  1.0000
  H   H57       1.0  0.268185693922007  0.9735264584690243  0.1690088089560718  1.0000
  H   H58       1.0  0.3042299756209204  0.09939697843589097  0.3317231932771918  1.0000
  H   H59       1.0  0.7318102555586493  0.026474396418677746  0.8309866082753743  1.0000
  H   H60       1.0  0.6957685273736659  0.9006030640956766  0.6682725781286437  1.0000
  H   H61       1.0  0.7472601525562867  0.40248871359008115  0.2967230062041041  1.0000
  H   H62       1.0  0.6059566177763074  0.4499887270077921  0.20302770660679675  1.0000
  H   H63       1.0  0.2527388196860161  0.5975155223525948  0.7032724034334381  1.0000
  H   H64       1.0  0.39404163253946956  0.5500131416635059  0.7969677725511278  1.0000
  H   H65       1.0  0.657778882888728  0.3123376862760096  0.29456718595284315  1.0000
  H   H66       1.0  0.517964054048548  0.36267039442174104  0.20520021309657477  1.0000
  H   H67       1.0  0.34222111689402374  0.6876653371695767  0.7054314780331695  1.0000
  H   H68       1.0  0.48203336166772476  0.6373305235771056  0.7947929869906931  1.0000
  H   H69       1.0  0.6408850243905136  0.315715313524258  0.10075249761593603  1.0000
  H   H70       1.0  0.7150820618307564  0.5399251896951965  0.39898089583903135  1.0000
  H   H71       1.0  0.3591088582561855  0.6842801972094038  0.8992424524001809  1.0000
  H   H72       1.0  0.28491667331253023  0.4600741102970858  0.6010158580980446  1.0000
  H   H73       1.0  0.6915377064340831  0.24441158238082736  0.15516541946396242  1.0000
  H   H74       1.0  0.5891728016188084  0.5358188862700715  0.3443269542095069  1.0000
  H   H75       1.0  0.30846067523231846  0.7555913739222577  0.8448331058217493  1.0000
  H   H76       1.0  0.4108246415521606  0.46417568321081143  0.6556722946128063  1.0000
  H   H77       1.0  0.6556156559526515  0.12261205554477078  0.21033793471731613  1.0000
  H   H78       1.0  0.4123401515463101  0.4450839166051636  0.2895194097631375  1.0000
  H   H79       1.0  0.3443836729862327  0.8773904348318597  0.7896652182300984  1.0000
  H   H80       1.0  0.5876565578232303  0.5549078720321958  0.7104754963919576  1.0000
  H   H81       1.0  0.5662443241146564  0.9681807027714343  0.1986943480482781  1.0000
  H   H82       1.0  0.26962883943705424  0.3677469234135202  0.30149280743942347  1.0000
  H   H83       1.0  0.43375943915576454  0.03182321765513062  0.8013153900294087  1.0000
  H   H84       1.0  0.7303699878491088  0.6322520435802943  0.6985069853720206  1.0000
  H   H85       1.0  0.37668246041219083  0.8731532756087859  0.07990582431342122  1.0000
  H   H86       1.0  0.2934978065348801  0.29736636772495467  0.4204996174616582  1.0000
  H   H87       1.0  0.6233196492390294  0.12684198138274655  0.9201009921703972  1.0000
  H   H88       1.0  0.7065036340030845  0.7026321239425426  0.5794998464942721  1.0000
  H   H89       1.0  0.2686917304971605  0.9305008978598012  0.9641480293337142  1.0000
  H   H90       1.0  0.4667137581461986  0.3051814753734233  0.536249309564802  1.0000
  H   H91       1.0  0.7313122859372925  0.06949211001997921  0.035849710693206464  1.0000
  H   H92       1.0  0.5332876126314475  0.6948126778609592  0.46374503741335377  1.0000
  H   H93       1.0  0.36724940180195653  0.22920033842423498  0.8917515924058821  1.0000
  H   H94       1.0  0.8377677606763926  0.4754035916278596  0.608028923521289  1.0000
  H   H95       1.0  0.6327537781805362  0.7707953066142323  0.10824525637045943  1.0000
  H   H96       1.0  0.1622295474390469  0.5245970658835262  0.3919700548133846  1.0000
  H   H97       1.0  0.503950566399688  0.3004415676179449  0.9737179601502108  1.0000
  H   H98       1.0  0.8269948355444968  0.5301091775149304  0.5261037163086616  1.0000
  H   H99       1.0  0.49605527976970626  0.6995518484654824  0.026281591391566054  1.0000
  H   H100      1.0  0.1730025528389164  0.46989073342582094  0.4738938887127804  1.0000
  H   H101      1.0  0.422697332333982  0.32527879465140325  0.0181801461115257  1.0000
  H   H102      1.0  0.8072979143271938  0.4043831454235161  0.4815664247644237  1.0000
  H   H103      1.0  0.5773083806323315  0.6747171216313815  0.981817747122534  1.0000
  H   H104      1.0  0.19270481138033108  0.5956179860968335  0.5184342589571146  1.0000
  C   C1        1.0  0.1653240999139883  0.9582555941050971  0.5932458187208668  1.0000
  C   C2        1.0  0.8654025074077368  0.5723991179542197  0.9069820103089654  1.0000
  C   C3        1.0  0.8346711974004464  0.041747231944349025  0.4067547850087295  1.0000
  C   C4        1.0  0.13459958481122675  0.4276064889585811  0.09302455744748535  1.0000
  C   C5        1.0  0.18482746053803123  0.8803229091706227  0.5460931963361733  1.0000
  C   C6        1.0  0.8346330625663684  0.6390390650956024  0.9541907582179265  1.0000
  C   C7        1.0  0.815175666024139  0.119683575903622  0.4539129111178968  1.0000
  C   C8        1.0  0.16537425245127935  0.3609727668268476  0.04581792746765965  1.0000
  C   C9        1.0  0.162906798932319  0.8527246415662902  0.44578258381189784  1.0000
  C   C10       1.0  0.907409998603775  0.7174676482347307  0.054508950562976236  1.0000
  C   C11       1.0  0.8370947897814747  0.14728102979483276  0.5542220116286531  1.0000
  C   C12       1.0  0.09259547987616683  0.2825416848255387  0.9455016382585982  1.0000
  C   C13       1.0  0.11715015470068116  0.8996409929527617  0.39185293964368373  1.0000
  C   C14       1.0  0.008287051967670378  0.7256386182495901  0.1084690662141271  1.0000
  C   C15       1.0  0.8828500567006757  0.10036237155397022  0.6081473971568911  1.0000
  C   C16       1.0  0.9917155829642256  0.27436834484513634  0.8915394811116429  1.0000
  C   C17       1.0  0.09465329193002267  0.9756772295950712  0.4376075568627089  1.0000
  C   C18       1.0  0.038596771350825045  0.6574447920344825  0.06270729399692243  1.0000
  C   C19       1.0  0.9053457724551495  0.024326673349129677  0.5623908916492015  1.0000
  C   C20       1.0  0.9614054982292829  0.3425654137989013  0.9372986124898972  1.0000
  C   C21       1.0  0.12218026308249123  0.007349244863917329  0.5403951119066052  1.0000
  C   C22       1.0  0.967427102471696  0.5821819676014782  0.9598904004103376  1.0000
  C   C23       1.0  0.8778157785410344  0.9926512770253169  0.4596033441992093  1.0000
  C   C24       1.0  0.03257430517604829  0.4178262805013516  0.04011763193999942  1.0000
  C   C25       1.0  0.18885168980220624  0.9869399766784782  0.7003197414539672  1.0000
  C   C26       1.0  0.7869026399808237  0.48879103059803  0.7998586885012744  1.0000
  C   C27       1.0  0.8111431774722818  0.01306007659012217  0.2996812312973491  1.0000
  C   C28       1.0  0.21310142197892656  0.5112145749776005  0.20014763442689812  1.0000
  C   C29       1.0  0.19536862823331094  0.7792979195368231  0.3984840001526494  1.0000
  C   C30       1.0  0.8813221325807776  0.7972127868166297  0.10189021884063028  1.0000
  C   C31       1.0  0.8046345188589683  0.22070748193698356  0.6015214170180982  1.0000
  C   C32       1.0  0.11867979910223897  0.20279431323744038  0.8981190955422778  1.0000
  C   C33       1.0  0.24413305676598904  0.1469595611278223  0.11477811443291594  1.0000
  C   C34       1.0  0.5317417282544525  0.12941291104466757  0.385081740868337  1.0000
  C   C35       1.0  0.7558631572683795  0.8530398811923022  0.8852220072340277  1.0000
  C   C36       1.0  0.4682598996670963  0.8705941809467106  0.6149228618256333  1.0000
  C   C37       1.0  0.1667423924916065  0.04809879850795079  0.025714908628380304  1.0000
  C   C38       1.0  0.5220807043770463  0.14099337353136587  0.47416606980601744  1.0000
  C   C39       1.0  0.8332497593657636  0.9518980616821368  0.9742775540964035  1.0000
  C   C40       1.0  0.47792094407460467  0.8590126348595746  0.525837842604631  1.0000
  C   C41       1.0  0.06941008130512238  0.9178980984722855  0.8716578240872794  1.0000
  C   C42       1.0  0.5462507051596504  0.19769414754141224  0.6283292203917554  1.0000
  C   C43       1.0  0.9305962359644442  0.08209592319110466  0.1283399778661263  1.0000
  C   C44       1.0  0.4537464237421958  0.8023054988805356  0.37167180703261954  1.0000
  C   C45       1.0  0.0182352358577518  0.8492321495670084  0.7667568074803698  1.0000
  C   C46       1.0  0.5825183681208231  0.25150833493620445  0.7332169704257512  1.0000
  C   C47       1.0  0.9817669695193986  0.15076295433982506  0.23323981856844264  1.0000
  C   C48       1.0  0.4174764991536578  0.7484917183323958  0.26678400232556515  1.0000
  C   C49       1.0  0.9508361908887795  0.7554773200674917  0.7337197487416705  1.0000
  C   C50       1.0  0.5218804052658399  0.21715111959098723  0.7663298234232487  1.0000
  C   C51       1.0  0.049166779327556795  0.24451439607868508  0.2662740394000309  1.0000
  C   C52       1.0  0.47811010114232744  0.7828446663985105  0.23366690553541503  1.0000
  C   C53       1.0  0.9349014763082337  0.7303649852039271  0.8025986267912516  1.0000
  C   C54       1.0  0.42797459647571406  0.13221524379715535  0.6975637769613527  1.0000
  C   C55       1.0  0.06511501210439263  0.2696315420669748  0.19740336024646152  1.0000
  C   C56       1.0  0.5720216380887566  0.8677831149225312  0.3024356544222757  1.0000
  C   C57       1.0  0.9831911270422399  0.7989704672541081  0.906662239496278  1.0000
  C   C58       1.0  0.39256826356077573  0.07624449505657076  0.5935445409486989  1.0000
  C   C59       1.0  0.016815217560186134  0.20102456146737782  0.09333115752295386  1.0000
  C   C60       1.0  0.6074271979945111  0.9237496621893301  0.40645054051428536  1.0000
  C   C61       1.0  0.04988388369009304  0.8931329776254415  0.9394489462745527  1.0000
  C   C62       1.0  0.45378355423414984  0.11023027665251559  0.5606403674584685  1.0000
  C   C63       1.0  0.9501178181818871  0.1068621907297143  0.060545707458366696  1.0000
  C   C64       1.0  0.546217070381957  0.889769768573231  0.4393575149635612  1.0000
  C   C65       1.0  0.12539868778185345  0.9881145930649211  0.1335474101821533  1.0000
  C   C66       1.0  0.3541400424388571  0.9917811286060214  0.36652237434572765  1.0000
  C   C67       1.0  0.874598151085877  0.01188187103536357  0.8664519299208139  1.0000
  C   C68       1.0  0.6458618076089524  0.008221219442759893  0.6334774108718124  1.0000
  C   C69       1.0  0.21216545577273396  0.9604307402110591  0.19118153669192145  1.0000
  C   C70       1.0  0.26887148702782343  0.02107891739307636  0.30902212160479803  1.0000
  C   C71       1.0  0.7878357712941694  0.039570998226430835  0.8088176422695242  1.0000
  C   C72       1.0  0.731129408944746  0.9789218059236332  0.6909767506018841  1.0000
  C   C73       1.0  0.6649947097633274  0.35243082518436336  0.2525515546227409  1.0000
  C   C74       1.0  0.6000937092861278  0.4119906520889672  0.24724740139924264  1.0000
  C   C75       1.0  0.3350035200223403  0.6475721270873791  0.7474446148185124  1.0000
  C   C76       1.0  0.39990420993531495  0.5880102014615645  0.7527477710039181  1.0000
  C   C77       1.0  0.6367099784572475  0.27856089081414837  0.1458853750114386  1.0000
  C   C78       1.0  0.6327988060262584  0.4904718292970003  0.35384116129991144  1.0000
  C   C79       1.0  0.36328608369638743  0.7214385474746338  0.8541123908110395  1.0000
  C   C80       1.0  0.36719997017723954  0.5095253034943924  0.6461542120705064  1.0000
  C   C81       1.0  0.5095928402390939  0.11726478225236288  0.0977629466716082  1.0000
  C   C82       1.0  0.5196576276027046  0.4117711718256416  0.40215676353615504  1.0000
  C   C83       1.0  0.4904060878451447  0.8827323545703792  0.9022347825432748  1.0000
  C   C84       1.0  0.4803399866118669  0.5882168195102367  0.5978332483686943  1.0000
  C   C85       1.0  0.5715738646518034  0.08460582479444408  0.1598654379084365  1.0000
  C   C86       1.0  0.42487549609690234  0.41164216907012735  0.3400696869502867  1.0000
  C   C87       1.0  0.4284282107419559  0.9153936900565114  0.8401390444911814  1.0000
  C   C88       1.0  0.5751231214231114  0.5883528690313825  0.6599270452265104  1.0000
  C   C89       1.0  0.520629508520706  0.9961480959729841  0.15157640662261676  1.0000
  C   C90       1.0  0.34474808681865454  0.3692667324273771  0.3485674350604242  1.0000
  C   C91       1.0  0.4793688390100855  0.003851762613472117  0.8484302382481134  1.0000
  C   C92       1.0  0.6552514847765993  0.6307299304062185  0.6514302101272309  1.0000
  C   C93       1.0  0.41276652530975594  0.9420213756179547  0.08339479076708745  1.0000
  C   C94       1.0  0.3588652395475478  0.32979909125445056  0.4168891392662745  1.0000
  C   C95       1.0  0.5872320238171868  0.05797482262634896  0.9166077269105416  1.0000
  C   C96       1.0  0.6411340606912364  0.670196893488175  0.5831075161367213  1.0000
  C   C97       1.0  0.3515195938511936  0.9738613966147652  0.019714978648948934  1.0000
  C   C98       1.0  0.4544054310907271  0.3322039877424173  0.4805189256567672  1.0000
  C   C99       1.0  0.6484815685275509  0.026134326303228896  0.9802872101731667  1.0000
  C   C100      1.0  0.5455912048135972  0.6677906381241099  0.519473639160708  1.0000
  C   C101      1.0  0.4012728844198818  0.06334556761714076  0.028153344547703792  1.0000
  C   C102      1.0  0.5354118219441376  0.37329856768323577  0.4719138876723223  1.0000
  C   C103      1.0  0.5987295836585248  0.9366517115532672  0.9718493737566976  1.0000
  C   C104      1.0  0.4645857904179849  0.6266930114837804  0.5280775120526044  1.0000
  C   C105      1.0  0.4434287524800027  0.19412787852557048  0.010482947308197817  1.0000
  C   C106      1.0  0.6838830006744773  0.4329150534493635  0.4894248950710534  1.0000
  C   C107      1.0  0.5565721471974715  0.8058656691288563  0.9895131492583363  1.0000
  C   C108      1.0  0.3161133638733844  0.567078894326201  0.5105666799617695  1.0000
  C   C109      1.0  0.4348193927755945  0.26667487666548345  0.9719434515429627  1.0000
  C   C110      1.0  0.7949724067456146  0.46275686883092965  0.527835691267285  1.0000
  C   C111      1.0  0.5651843112421773  0.7333196203242167  0.028054679265956495  1.0000
  C   C112      1.0  0.20502743435365292  0.5372440599247738  0.47216433152510723  1.0000
  N   N1        1.0  0.1433661686830592  0.014468345313560045  0.9282246664237521  1.0000
  N   N2        1.0  0.586055408402352  0.21516222069716662  0.5716444715758301  1.0000
  N   N3        1.0  0.8566310286118508  0.9855301409655935  0.07177057549979801  1.0000
  N   N4        1.0  0.41394730864996643  0.7848404079957945  0.4283613146166375  1.0000
  N   N5        1.0  0.1109720177253736  0.9776248619349203  0.03547371476248186  1.0000
  N   N6        1.0  0.4419983212316652  0.07534630195713994  0.4645313653668027  1.0000
  N   N7        1.0  0.8890260346991499  0.022373491416253267  0.9645231159483957  1.0000
  N   N8        1.0  0.5579996490724355  0.9246563857958066  0.5354682264773842  1.0000
  N   N9        1.0  0.533707680973521  0.1995809346809665  0.08477008690586993  1.0000
  N   N10       1.0  0.6149712397120127  0.4487447811513689  0.4150448570618154  1.0000
  N   N11       1.0  0.4662926654833656  0.8004163417952767  0.9152305203823375  1.0000
  N   N12       1.0  0.3850254969903944  0.5512480145440791  0.5849456441591061  1.0000
  N   N13       1.0  0.3628112930856134  0.11368508670841485  0.9757203264811168  1.0000
  N   N14       1.0  0.6382282047476481  0.3872751595799714  0.524347826590976  1.0000
  N   N15       1.0  0.6371898387405748  0.8863077184067121  0.024276752616650275  1.0000
  N   N16       1.0  0.3617706722539325  0.6127201430403488  0.47564548318288774  1.0000
  O   O1        1.0  0.18967301101263706  0.0711068004356434  0.7487744944916486  1.0000
  O   O2        1.0  0.8225143438343991  0.4409390857101131  0.7514258471994922  1.0000
  O   O3        1.0  0.8103171027108758  0.9288912212344087  0.25122399856223865  1.0000
  O   O4        1.0  0.17748942623877892  0.5590669253749923  0.2485801762273497  1.0000
  O   O5        1.0  0.20534133587255352  0.9320368922070372  0.7406158608814551  1.0000
  O   O6        1.0  0.6916799850057912  0.46514897470569144  0.7595446972304459  1.0000
  O   O7        1.0  0.794662302849993  0.06796803124628781  0.2593871164175923  1.0000
  O   O8        1.0  0.30832228642676557  0.5348576432965403  0.24045982143629646  1.0000
  O   O9        1.0  0.2246718824592549  0.7280358435976524  0.44373034172789977  1.0000
  O   O10       1.0  0.7847734136007816  0.7812493829702587  0.056550048007913765  1.0000
  O   O11       1.0  0.7753304811161783  0.2719704414061114  0.5562772158132107  1.0000
  O   O12       1.0  0.215227253442784  0.2187539936305003  0.9434573563260503  1.0000
  O   O13       1.0  0.19944196545453968  0.773192524430911  0.321051563395642  1.0000
  O   O14       1.0  0.9526824199574051  0.8786670908355704  0.179433270064557  1.0000
  O   O15       1.0  0.8005700060209052  0.22681599359888344  0.6789588899437718  1.0000
  O   O16       1.0  0.04731756931769143  0.12134101761375857  0.8205718842124555  1.0000
  O   O17       1.0  0.04782566792874841  0.020028151820497515  0.3844950593078452  1.0000
  O   O18       1.0  0.1361383838224484  0.6638186292390527  0.11584659445644972  1.0000
  O   O19       1.0  0.9521707439968665  0.979974805819765  0.6155037108061452  1.0000
  O   O20       1.0  0.8638636673363039  0.33618914487463053  0.8841613538666523  1.0000
