data_image0
_chemical_formula_structural       Cu4H46C36S4I4N2
_chemical_formula_sum              "Cu4 H46 C36 S4 I4 N2"
_cell_length_a       8.900465051564007
_cell_length_b       10.478737515198942
_cell_length_c       12.046094656377525
_cell_angle_alpha    94.6084810548656
_cell_angle_beta     99.53415843494527
_cell_angle_gamma    105.39396273313564

_space_group_name_H-M_alt    "P 1"
_space_group_IT_number       1

loop_
  _space_group_symop_operation_xyz
  'x, y, z'

loop_
  _atom_site_type_symbol
  _atom_site_label
  _atom_site_symmetry_multiplicity
  _atom_site_fract_x
  _atom_site_fract_y
  _atom_site_fract_z
  _atom_site_occupancy
  Cu  Cu1       1.0  0.6409260139822307  0.0545249629469211  0.5401774236840211  1.0000
  Cu  Cu2       1.0  0.3590716909293477  0.9454746487346741  0.459824393307052  1.0000
  Cu  Cu3       1.0  0.4962631833270307  0.37454216748137975  0.47759236536424504  1.0000
  Cu  Cu4       1.0  0.5037353125556692  0.6254564537143352  0.5224103259127515  1.0000
  H   H1        1.0  0.7466040610311352  0.2982813291286703  0.5276494327248855  1.0000
  H   H2        1.0  0.253395490940683  0.7017202560175662  0.4723502553054075  1.0000
  H   H3        1.0  0.026105980104908583  0.352915199932859  0.5835141001460612  1.0000
  H   H4        1.0  0.9738932463081298  0.6470853790620339  0.416484654136859  1.0000
  H   H5        1.0  0.01581868897908829  0.18342495775723217  0.5501471330991023  1.0000
  H   H6        1.0  0.9841790613112168  0.8165746227795053  0.4498513670412194  1.0000
  H   H7        1.0  0.8722025731783559  0.30202450852306134  0.7360796772997984  1.0000
  H   H8        1.0  0.127796630545319  0.6979760860442638  0.26392073540850447  1.0000
  H   H9        1.0  0.04197404985514196  0.2410058825731695  0.7594698627268882  1.0000
  H   H10       1.0  0.9580274549964186  0.7589946966077861  0.2405291907718662  1.0000
  H   H11       1.0  0.8262036619742898  0.8579543457295951  0.6565680595082952  1.0000
  H   H12       1.0  0.1738015860938447  0.14204723988179066  0.34343237656158004  1.0000
  H   H13       1.0  0.9815110079696366  0.9888385534483108  0.6272250886896413  1.0000
  H   H14       1.0  0.018493774686177702  0.011165028800299098  0.37277540684168287  1.0000
  H   H15       1.0  0.2235048572834302  0.0921002599330478  0.7722486178698773  1.0000
  H   H16       1.0  0.7765018782521194  0.907902316350281  0.22775124312990155  1.0000
  H   H17       1.0  0.4000202037589061  0.06868740661914069  0.9476823732632765  1.0000
  H   H18       1.0  0.5999870085336525  0.9313131652407519  0.05231659906236532  1.0000
  H   H19       1.0  0.29687393688935515  0.9009165251229944  0.07193561015729696  1.0000
  H   H20       1.0  0.7031363675022033  0.09908304086464878  0.9280628772447198  1.0000
  H   H21       1.0  0.015902636694185856  0.7610302507412567  0.022734948147650876  1.0000
  H   H22       1.0  0.9841100859894283  0.23896631264388182  0.9772628452613713  1.0000
  H   H23       1.0  0.8391337737668891  0.7857082495994233  0.8476792182159439  1.0000
  H   H24       1.0  0.1608791346219789  0.21429232272561896  0.15232050214927984  1.0000
  H   H25       1.0  0.5958296611696382  0.09186251060344118  0.3117555667419437  1.0000
  H   H26       1.0  0.40416703303154117  0.908134105982775  0.6882459366450745  1.0000
  H   H27       1.0  0.6865442145155284  0.18798574027079698  0.21312196671750164  1.0000
  H   H28       1.0  0.3134494216206889  0.812011858829024  0.786877533955078  1.0000
  H   H29       1.0  0.5486453099810262  0.5062637828322992  0.2582258034693509  1.0000
  H   H30       1.0  0.45135137287546456  0.49373284154012953  0.7417765291303623  1.0000
  H   H31       1.0  0.7398093031648331  0.4855989077799166  0.3014615970391715  1.0000
  H   H32       1.0  0.26018525245135027  0.5143947058316768  0.6985386139231904  1.0000
  H   H33       1.0  0.893302860517444  0.1774247088463454  0.3635802654807847  1.0000
  H   H34       1.0  0.1066934136501273  0.8225738732322369  0.6364179805169384  1.0000
  H   H35       1.0  0.8828616576632411  0.34339202565432453  0.37846216230769153  1.0000
  H   H36       1.0  0.11713575572359498  0.6566065565172893  0.6215362332979453  1.0000
  H   H37       1.0  0.39002537576590157  0.2985577137401022  0.06807280391849697  1.0000
  H   H38       1.0  0.6099630641933658  0.7014449077720286  0.9319296386307696  1.0000
  H   H39       1.0  0.406846791333038  0.27418858387584066  0.8643228810097554  1.0000
  H   H40       1.0  0.5931415201173635  0.7258170326386377  0.1356797255356383  1.0000
  H   H41       1.0  0.6591568106532718  0.37840652717328277  0.8027232777614512  1.0000
  H   H42       1.0  0.34083176915952135  0.6215930915502879  0.1972781715789863  1.0000
  H   H43       1.0  0.896198268942193  0.5073821329483507  0.9465869027433127  1.0000
  H   H44       1.0  0.10380064325673291  0.49261743210898595  0.05341008857954679  1.0000
  H   H45       1.0  0.8823818768992809  0.5263204266028084  0.15198672334857827  1.0000
  H   H46       1.0  0.11761313278455529  0.4736711981577812  0.8480142573650223  1.0000
  C   C1        1.0  0.9509746723273621  0.2500046125667055  0.5820322858148899  1.0000
  C   C2        1.0  0.04902503084267808  0.7499939620047513  0.4179655797938864  1.0000
  C   C3        1.0  0.9276492246203388  0.22884251746127396  0.7024983363976742  1.0000
  C   C4        1.0  0.0723518034742128  0.7711600661431177  0.29750160577521706  1.0000
  C   C5        1.0  0.9136196578730845  0.9539997608360905  0.6927082182786461  1.0000
  C   C6        1.0  0.0863851247827228  0.0460038214125191  0.30729227725267794  1.0000
  C   C7        1.0  0.01897590342128547  0.9424651911417642  0.7997939117378933  1.0000
  C   C8        1.0  0.9810298440932214  0.05753437447375381  0.2002039772324622  1.0000
  C   C9        1.0  0.17676063727495966  0.022274366224195298  0.8292326010387184  1.0000
  C   C10       1.0  0.8232438198220603  0.9777282098730707  0.17076696074523298  1.0000
  C   C11       1.0  0.27672914010295097  0.0074647912041854  0.9266794762611424  1.0000
  C   C12       1.0  0.7232769556596991  0.9925357649902435  0.07331768803120296  1.0000
  C   C13       1.0  0.2193607770828336  0.9131701741808058  0.9961110272691585  1.0000
  C   C14       1.0  0.7806498642121937  0.0868303901719685  0.0038875646675435513  1.0000
  C   C15       1.0  0.06129431375287463  0.8345211471223454  0.9683623961746262  1.0000
  C   C16       1.0  0.9387164900850492  0.1654763988694299  0.031633544127878076  1.0000
  C   C17       1.0  0.961797609831059  0.8486465584874875  0.8707897341953909  1.0000
  C   C18       1.0  0.0382156127719142  0.1513550277751179  0.12921174912989386  1.0000
  C   C19       1.0  0.6627491168718506  0.19264223659250487  0.299707702983838  1.0000
  C   C20       1.0  0.33724450791969207  0.8073553702935354  0.7002926269014366  1.0000
  C   C21       1.0  0.6229317867385405  0.43908487966204746  0.24659132878372245  1.0000
  C   C22       1.0  0.3770641278362064  0.560912719623836  0.7534084711046916  1.0000
  C   C23       1.0  0.8180212907334904  0.2396310842123555  0.3852438635389531  1.0000
  C   C24       1.0  0.18197612265334576  0.7603674979592511  0.6147545320666835  1.0000
  C   C25       1.0  0.6348658375500236  0.41504062377904216  0.12395411670426167  1.0000
  C   C26       1.0  0.3651258343617697  0.5849579890722792  0.8760468477125514  1.0000
  C   C27       1.0  0.5018754728102479  0.34309100735035253  0.04184243300015567  1.0000
  C   C28       1.0  0.49811529096626117  0.6569115832029766  0.9581569919141869  1.0000
  C   C29       1.0  0.5113880495396259  0.3292654311272826  0.9274660837223434  1.0000
  C   C30       1.0  0.48860531823419256  0.6707381657634456  0.07253457415519897  1.0000
  C   C31       1.0  0.6531967418435229  0.3876637790933514  0.8926695229222045  1.0000
  C   C32       1.0  0.34679641753569257  0.6123358244299055  0.10733086642451885  1.0000
  C   C33       1.0  0.7861038883387083  0.459543226600033  0.973565524978035  1.0000
  C   C34       1.0  0.21389645460422455  0.5404573680603164  0.026435037338181568  1.0000
  C   C35       1.0  0.7775485307430046  0.4714553853442922  0.08862451075300724  1.0000
  C   C36       1.0  0.22244507135916788  0.5285422371141735  0.9113774775576358  1.0000
  S   S1        1.0  0.7923165302053475  0.067478232881065  0.712989486524286  1.0000
  S   S2        1.0  0.20768628822604995  0.9325263631190379  0.2870124727512645  1.0000
  S   S3        1.0  0.5229246463135198  0.29074166612056723  0.3035785494362314  1.0000
  S   S4        1.0  0.47707155978596916  0.7092569626752977  0.6964246718376257  1.0000
  I   I1        1.0  0.5926090007902544  0.8340202317116406  0.41147830582586653  1.0000
  I   I2        1.0  0.4073898433405887  0.16597938006298563  0.5885236607731272  1.0000
  I   I3        1.0  0.7541306301911774  0.5430874126376609  0.6005909289612105  1.0000
  I   I4        1.0  0.24586857353249056  0.4569131819296642  0.3994094837470853  1.0000
  N   N1        1.0  0.797666260222627  0.22551317877047697  0.5030849143012546  1.0000
  N   N2        1.0  0.2023332917491912  0.7744884063757523  0.49691477372903836  1.0000
