data_image0
_chemical_formula_structural       Cu2H18C24N2Cl2O2
_chemical_formula_sum              "Cu2 H18 C24 N2 Cl2 O2"
_cell_length_a       3.758969754881655
_cell_length_b       8.507121721892036
_cell_length_c       15.978579165711855
_cell_angle_alpha    94.58432191395103
_cell_angle_beta     90.3502725554432
_cell_angle_gamma    100.40958219753702

_space_group_name_H-M_alt    "P 1"
_space_group_IT_number       1

loop_
  _space_group_symop_operation_xyz
  'x, y, z'

loop_
  _atom_site_type_symbol
  _atom_site_label
  _atom_site_symmetry_multiplicity
  _atom_site_fract_x
  _atom_site_fract_y
  _atom_site_fract_z
  _atom_site_occupancy
  Cu  Cu1       1.0  0.5432417565066172  0.34368736310531023  0.49553817288281  1.0000
  Cu  Cu2       1.0  0.45679934133166716  0.6563127188366238  0.5044601910328623  1.0000
  H   H1        1.0  0.418884961394255  0.4340923971010752  0.6716911637314381  1.0000
  H   H2        1.0  0.5811224742941193  0.5658969909424696  0.32830468121783696  1.0000
  H   H3        1.0  0.4804617877327501  0.3192641771360556  0.8091073321550366  1.0000
  H   H4        1.0  0.5195305901285323  0.6807276287561307  0.19089042304521084  1.0000
  H   H5        1.0  0.8160069785040491  0.9143251650244293  0.6709727019290028  1.0000
  H   H6        1.0  0.18397729920982894  0.08566663946239568  0.32902689077577196  1.0000
  H   H7        1.0  0.7662393496868349  0.0497429812847017  0.541687687973379  1.0000
  H   H8        1.0  0.23379009971981893  0.9502487049196445  0.4583121236313444  1.0000
  H   H9        1.0  0.27576730618673656  0.812854771891601  0.7304319626302274  1.0000
  H   H10       1.0  0.7242294621913317  0.18714779700844275  0.2695687952732442  1.0000
  H   H11       1.0  0.99796368064478  0.5436648729262004  0.7639416977784917  1.0000
  H   H12       1.0  0.0020147371778378173  0.4563388993112198  0.23606277794549155  1.0000
  H   H13       1.0  0.09098216695564079  0.4517197623850109  0.9054943732511231  1.0000
  H   H14       1.0  0.9089890847361489  0.5482924171632959  0.09451169153840769  1.0000
  H   H15       1.0  0.46973815191466156  0.6388165991574933  0.01389040475777389  1.0000
  H   H16       1.0  0.5302411999245251  0.3611955817961813  0.9861138225272368  1.0000
  H   H17       1.0  0.7606273090738894  0.9089019704514101  0.9797752513977683  1.0000
  H   H18       1.0  0.23935322212118854  0.09110661339976642  0.020228196321959  1.0000
  C   C1        1.0  0.5091125305399302  0.3200047707272802  0.6748778912694177  1.0000
  C   C2        1.0  0.49089031639708486  0.6799990280049855  0.3251191958070621  1.0000
  C   C3        1.0  0.5439626301696376  0.25570844711936047  0.7508611449465048  1.0000
  C   C4        1.0  0.45605323499840006  0.7442760866267547  0.24913703026884793  1.0000
  C   C5        1.0  0.6527538826243673  0.1068569261042214  0.7521929427917581  1.0000
  C   C6        1.0  0.3472461355913198  0.8931468498808427  0.24780663292015953  1.0000
  C   C7        1.0  0.7270924315200845  0.029659525676400702  0.675305938403717  1.0000
  C   C8        1.0  0.27291753265448887  0.9703298331306057  0.32469179555595656  1.0000
  C   C9        1.0  0.69728378390991  0.10443487458530847  0.6020299805330254  1.0000
  C   C10       1.0  0.3027264847138226  0.8955676966570179  0.397967714862915  1.0000
  C   C11       1.0  0.710124169260112  0.0454381729886464  0.8358852661311004  1.0000
  C   C12       1.0  0.2898701075199525  0.9545584073860665  0.16411458795477774  1.0000
  C   C13       1.0  0.542093022756056  0.8805509783384762  0.8527661416737542  1.0000
  C   C14       1.0  0.4578799169778946  0.11945166803419476  0.14723324958556105  1.0000
  C   C15       1.0  0.32511013734271177  0.7758131701119096  0.7924363116519899  1.0000
  C   C16       1.0  0.6748887015170837  0.22419420297564588  0.20756404362520434  1.0000
  C   C17       1.0  0.1672547622600859  0.6223319066253195  0.8112833265283255  1.0000
  C   C18       1.0  0.832734077533516  0.3776706905743552  0.18871676736776513  1.0000
  C   C19       1.0  0.21880901190654353  0.5719027403598743  0.8908135317692467  1.0000
  C   C20       1.0  0.7811847561872511  0.4280997760879827  0.10919221628156346  1.0000
  C   C21       1.0  0.4309188507361624  0.6761641609098277  0.9514416883122293  1.0000
  C   C22       1.0  0.5690649302965339  0.3238456300263761  0.048560577215944485  1.0000
  C   C23       1.0  0.5927086745816439  0.828955186139467  0.9327200414937661  1.0000
  C   C24       1.0  0.4072744708810987  0.17105338332767414  0.06728404448040949  1.0000
  N   N1        1.0  0.587248290786917  0.24698027952750576  0.6005663688518723  1.0000
  N   N2        1.0  0.4127697735350537  0.7530090806848689  0.39942952760327427  1.0000
  Cl  Cl1       1.0  0.9346741101949619  0.6500648695627831  0.5854973206850855  1.0000
  Cl  Cl2       1.0  0.06536394625683781  0.3499280172372465  0.4145007091030378  1.0000
  O   O1        1.0  0.89697053749353  0.1391664380204034  0.8892374440272374  1.0000
  O   O2        1.0  0.10303981090912359  0.8608301228862981  0.11076061118351525  1.0000
