data_image0
_chemical_formula_structural       Zn4H56C80N16O16
_chemical_formula_sum              "Zn4 H56 C80 N16 O16"
_cell_length_a       10.7660884251503
_cell_length_b       15.52586804809582
_cell_length_c       16.2230002321344
_cell_angle_alpha    89.99986219596829
_cell_angle_beta     90.00045153271209
_cell_angle_gamma    89.99961250008766

_space_group_name_H-M_alt    "P 1"
_space_group_IT_number       1

loop_
  _space_group_symop_operation_xyz
  'x, y, z'

loop_
  _atom_site_type_symbol
  _atom_site_label
  _atom_site_symmetry_multiplicity
  _atom_site_fract_x
  _atom_site_fract_y
  _atom_site_fract_z
  _atom_site_occupancy
  Zn  Zn1       1.0  0.17500985721978418  0.5000073852117168  0.7499992681679044  1.0000
  Zn  Zn2       1.0  0.3249848780510191  0.9999951729491131  0.7500021791430664  1.0000
  Zn  Zn3       1.0  0.8249885881582059  0.499996801288674  0.25000099909806284  1.0000
  Zn  Zn4       1.0  0.6750144961975977  3.860857304999999e-06  0.24999870454001885  1.0000
  H   H1        1.0  0.4982529938429252  0.8465780544764456  0.6227519982687395  1.0000
  H   H2        1.0  0.49823642493106474  0.15342035222489872  0.8772482525473888  1.0000
  H   H3        1.0  0.0017543505051804999  0.3465759599693996  0.877247948933721  1.0000
  H   H4        1.0  0.0017486113764775002  0.6534177421933265  0.6227527504947118  1.0000
  H   H5        1.0  0.5017519534732455  0.15341904705670834  0.37724950184011846  1.0000
  H   H6        1.0  0.501762949308876  0.8465812579262106  0.12275324754155996  1.0000
  H   H7        1.0  0.9982366641453024  0.653421141603424  0.12274861986784195  1.0000
  H   H8        1.0  0.9982461186587911  0.34658000345304885  0.3772469003599354  1.0000
  H   H9        1.0  0.5640650168418232  0.9294687471889134  0.5007838869429972  1.0000
  H   H10       1.0  0.5640497373384789  0.0705286998924208  0.9992148637231322  1.0000
  H   H11       1.0  0.9359407544981122  0.4294674813831492  0.9992074283330507  1.0000
  H   H12       1.0  0.9359325203008237  0.5705281827469475  0.500787130722429  1.0000
  H   H13       1.0  0.4359427169831277  0.0705277102558952  0.499213914721224  1.0000
  H   H14       1.0  0.4359496368854181  0.9294709780050637  0.0007823215064632998  1.0000
  H   H15       1.0  0.06405490433485278  0.5705328406135309  0.0007866748419899998  1.0000
  H   H16       1.0  0.06405756548677739  0.42947471560387385  0.49921067088765597  1.0000
  H   H17       1.0  0.4087718303724514  0.7368456320652824  0.3410727922484965  1.0000
  H   H18       1.0  0.40878231104222346  0.2631615595733336  0.15892823113290422  1.0000
  H   H19       1.0  0.09121027245428338  0.23683722272910754  0.15892865168535755  1.0000
  H   H20       1.0  0.0912125446340255  0.7631573215587437  0.3410750021800907  1.0000
  H   H21       1.0  0.5912201131042066  0.2631579103658837  0.6589262421833764  1.0000
  H   H22       1.0  0.5912235650974366  0.736838762390235  0.8410726525659624  1.0000
  H   H23       1.0  0.9087798133461431  0.7631637433618224  0.841069766335721  1.0000
  H   H24       1.0  0.9087868296044588  0.2368468649354938  0.6589283471323099  1.0000
  H   H25       1.0  0.34676157247943706  0.6502437056048862  0.46222849108888625  1.0000
  H   H26       1.0  0.34677073785286433  0.3497650715143478  0.037772819788990795  1.0000
  H   H27       1.0  0.15322135617002886  0.15023144242830003  0.037774999122255785  1.0000
  H   H28       1.0  0.15322143431573915  0.8497615163833884  0.46222836724178495  1.0000
  H   H29       1.0  0.6532266556443743  0.34975854866009826  0.537772392560974  1.0000
  H   H30       1.0  0.6532360671344718  0.6502371827029664  0.9622305295453157  1.0000
  H   H31       1.0  0.8467640854442988  0.849766303239555  0.9622252681165545  1.0000
  H   H32       1.0  0.846773295711003  0.15024331420757872  0.5377755984663606  1.0000
  H   H33       1.0  0.3460465625814989  0.6575954990704317  0.8195483302465331  1.0000
  H   H34       1.0  0.34603889154406176  0.34240750187576197  0.6804504968649351  1.0000
  H   H35       1.0  0.15396258378709854  0.1575970396041981  0.6804508141287469  1.0000
  H   H36       1.0  0.1539582753234612  0.8424023736637735  0.8195500762119816  1.0000
  H   H37       1.0  0.6539593135350543  0.3424073992409689  0.18045070422301274  1.0000
  H   H38       1.0  0.6539632692216343  0.6575921760119101  0.31954915400721956  1.0000
  H   H39       1.0  0.8460442211821969  0.842405214617038  0.319549453161592  1.0000
  H   H40       1.0  0.846042027791796  0.1575953719637511  0.18045388951900063  1.0000
  H   H41       1.0  0.2678945803847341  0.5773750369321108  0.5772582590112092  1.0000
  H   H42       1.0  0.2678871231292135  0.42263220322809764  0.9227401535720856  1.0000
  H   H43       1.0  0.23211254442826854  0.0773697900773982  0.9227404514823048  1.0000
  H   H44       1.0  0.23210742108415863  0.9226240958157348  0.5772602369669569  1.0000
  H   H45       1.0  0.7321159399769499  0.42262399684679514  0.4227432411102327  1.0000
  H   H46       1.0  0.7321113222538357  0.5773694069283766  0.07725888087922778  1.0000
  H   H47       1.0  0.7678859009820439  0.9226298878160436  0.07726166501517176  1.0000
  H   H48       1.0  0.7678900954934418  0.07737429390640929  0.42274249593831553  1.0000
  H   H49       1.0  0.44436717379624474  0.7688567941656075  0.7260096628242676  1.0000
  H   H50       1.0  0.44435887221135306  0.23114702355778152  0.7739921514196194  1.0000
  H   H51       1.0  0.05564091165501849  0.2688572801376311  0.7739910776242804  1.0000
  H   H52       1.0  0.0556365690538954  0.731141960443857  0.7260086748023011  1.0000
  H   H53       1.0  0.5556331292563712  0.2311480364182685  0.2739893716283105  1.0000
  H   H54       1.0  0.5556414308844068  0.7688532984168007  0.22601058149084705  1.0000
  H   H55       1.0  0.9443584625730281  0.7311430418446607  0.2260073404221642  1.0000
  H   H56       1.0  0.9443628052003276  0.2688551411042255  0.27399159247418936  1.0000
  C   C1        1.0  0.41968322786225787  0.7408373854805461  0.5517286725978747  1.0000
  C   C2        1.0  0.41967948586214016  0.2591678387554594  0.9482693122782488  1.0000
  C   C3        1.0  0.08031304982817739  0.2408308692396091  0.9482684331267845  1.0000
  C   C4        1.0  0.08031754592241208  0.7591585917340566  0.5517326830148048  1.0000
  C   C5        1.0  0.5803226482716468  0.2591603601414505  0.4482691290599517  1.0000
  C   C6        1.0  0.5803245325839298  0.7408350595572557  0.051732187821549785  1.0000
  C   C7        1.0  0.9196798225082855  0.7591675204999362  0.05172936849582039  1.0000
  C   C8        1.0  0.9196818283565306  0.24083786572295196  0.4482712827151828  1.0000
  C   C9        1.0  0.48055645276991044  0.8205332542473016  0.5614538249054914  1.0000
  C   C10       1.0  0.48054221075582854  0.1794703899878698  0.9385438664119046  1.0000
  C   C11       1.0  0.019447424546463296  0.32052769865285313  0.938541250280785  1.0000
  C   C12       1.0  0.019450007933222897  0.6794626982286048  0.5614601594276534  1.0000
  C   C13       1.0  0.5194568540994807  0.1794638472720891  0.4385427439551889  1.0000
  C   C14       1.0  0.5194618076768832  0.8205337964991557  0.06145640086884188  1.0000
  C   C15       1.0  0.9805435900978735  0.6794706910927174  0.061455318519307384  1.0000
  C   C16       1.0  0.9805475086541334  0.3205344033200177  0.4385431898878805  1.0000
  C   C17       1.0  0.516887497681381  0.8680082165899989  0.492885785875522  1.0000
  C   C18       1.0  0.516873301918359  0.13199330406560955  0.007112112447664696  1.0000
  C   C19       1.0  0.9831167217284145  0.3680053992113201  0.007108149174449399  1.0000
  C   C20       1.0  0.9831155200636771  0.6319900215797888  0.4928916056958313  1.0000
  C   C21       1.0  0.48312302265343715  0.13198888493763414  0.5071095501601802  1.0000
  C   C22       1.0  0.48312607231382987  0.8680076620014816  0.9928875384156295  1.0000
  C   C23       1.0  0.0168770794412936  0.6319949227851109  0.9928896524484254  1.0000
  C   C24       1.0  0.016884783014575095  0.36801094448428967  0.5071086615787264  1.0000
  C   C25       1.0  0.4927177625958379  0.8380957169764471  0.41289993435256617  1.0000
  C   C26       1.0  0.4927070045156939  0.16190334320618396  0.08709783578446206  1.0000
  C   C27       1.0  0.007282880374994197  0.33809497761973967  0.08709449875188106  1.0000
  C   C28       1.0  0.007281385952168799  0.6619012572416241  0.412904395082961  1.0000
  C   C29       1.0  0.5072881135637102  0.16189816412576616  0.5870991001272471  1.0000
  C   C30       1.0  0.5072905120500124  0.8380937583471348  0.9129018150783065  1.0000
  C   C31       1.0  0.9927127784734749  0.6619066325449766  0.9129033028744469  1.0000
  C   C32       1.0  0.9927226325000402  0.33810035289835133  0.5870971050183014  1.0000
  C   C33       1.0  0.4304967824465392  0.7593022165623964  0.4030829325338486  1.0000
  C   C34       1.0  0.43049096100389767  0.240701006439302  0.09691697322200807  1.0000
  C   C35       1.0  0.06949532347449149  0.2592979335183828  0.09691537828267366  1.0000
  C   C36       1.0  0.06949853579992289  0.740694782621837  0.40308631118326577  1.0000
  C   C37       1.0  0.569506307170279  0.2406948849783532  0.5969161019349085  1.0000
  C   C38       1.0  0.5695093420835702  0.7592980273656665  0.9030832940547523  1.0000
  C   C39       1.0  0.9304956911606295  0.740702388486298  0.9030811905152232  1.0000
  C   C40       1.0  0.930504553830417  0.2593055393444884  0.5969176545521788  1.0000
  C   C41       1.0  0.39537044735388344  0.7111097396070106  0.4712638708527093  1.0000
  C   C42       1.0  0.39537451429258397  0.2888955840417892  0.028735848614282085  1.0000
  C   C43       1.0  0.10461561625132988  0.21109902062123356  0.028736398833252994  1.0000
  C   C44       1.0  0.10462566904854499  0.7888896626016405  0.47126547693605375  1.0000
  C   C45       1.0  0.6046298557335843  0.28888929419795767  0.5287363964240439  1.0000
  C   C46       1.0  0.6046313618378603  0.7111066701808897  0.9712650350823819  1.0000
  C   C47       1.0  0.8953726118985087  0.7888955046096552  0.9712626355990177  1.0000
  C   C48       1.0  0.895380207115295  0.21110937118526604  0.5287384888082443  1.0000
  C   C49       1.0  0.37823614347135487  0.6905406905575475  0.6222285264288839  1.0000
  C   C50       1.0  0.37822366582066275  0.3094628001542005  0.877771087814011  1.0000
  C   C51       1.0  0.12176990225249539  0.19053479887814725  0.8777699265780325  1.0000
  C   C52       1.0  0.12177102865836527  0.8094596160330456  0.6222301766216274  1.0000
  C   C53       1.0  0.6217734480375794  0.3094589873115297  0.3777717408717719  1.0000
  C   C54       1.0  0.6217757084182053  0.6905375218257318  0.12222917945882014  1.0000
  C   C55       1.0  0.8782229700926437  0.8094610145167066  0.12222725863871627  1.0000
  C   C56       1.0  0.8782292744538153  0.19053877368085634  0.3777737891086231  1.0000
  C   C57       1.0  0.3447244420527936  0.6547661157630671  0.752714206523535  1.0000
  C   C58       1.0  0.3447184552573431  0.3452420442104724  0.7472833807563288  1.0000
  C   C59       1.0  0.1552782294184212  0.15476039512886788  0.7472824786453243  1.0000
  C   C60       1.0  0.15527404037806747  0.8452357913999434  0.7527178022688757  1.0000
  C   C61       1.0  0.6552767898366695  0.3452406470769064  0.24728544433809663  1.0000
  C   C62       1.0  0.6552827766689688  0.6547569895930536  0.25271627011409936  1.0000
  C   C63       1.0  0.8447202159738436  0.8452392827684888  0.2527165558081848  1.0000
  C   C64       1.0  0.8447244050614914  0.15476002197292624  0.2472861634593783  1.0000
  C   C65       1.0  0.3079268658762898  0.615682559578339  0.6263201466992496  1.0000
  C   C66       1.0  0.30791734184301583  0.384325776829634  0.8736760125763607  1.0000
  C   C67       1.0  0.19207617830097226  0.11567247669616171  0.8736772438107105  1.0000
  C   C68       1.0  0.19207663877939746  0.8843203129634746  0.6263232322987518  1.0000
  C   C69       1.0  0.692084583310887  0.3843177623734348  0.37367950419680784  1.0000
  C   C70       1.0  0.6920829612249475  0.6156758333223847  0.12632302187987676  1.0000
  C   C71       1.0  0.8079157652289694  0.884321404437884  0.12632302344973564  1.0000
  C   C72       1.0  0.8079208777967465  0.11568065310180489  0.3736813498299724  1.0000
  C   C73       1.0  0.5345437983150915  0.8875815106497953  0.33893894707355077  1.0000
  C   C74       1.0  0.5345390221547816  0.11241863715890332  0.16105842851771968  1.0000
  C   C75       1.0  0.9654602344277234  0.38758482744160005  0.16105555984285755  1.0000
  C   C76       1.0  0.965457417196333  0.6124145425295782  0.33894040291455935  1.0000
  C   C77       1.0  0.46545650478051215  0.11241430272489338  0.6610600873892805  1.0000
  C   C78       1.0  0.46546592514188495  0.8875810407213011  0.8389418387706227  1.0000
  C   C79       1.0  0.03453913979057429  0.6124167827142132  0.8389422417933329  1.0000
  C   C80       1.0  0.03454288584959641  0.3875909321414496  0.661058015128482  1.0000
  N   N1        1.0  0.28780592761499685  0.594573217919894  0.7075023882745695  1.0000
  N   N2        1.0  0.2878017538057803  0.40543585903059676  0.7924936642914344  1.0000
  N   N3        1.0  0.21219546013844592  0.09456582129317331  0.7924925846226  1.0000
  N   N4        1.0  0.21219202553657368  0.9054294482610388  0.7075073817790878  1.0000
  N   N5        1.0  0.7121999484923407  0.4054316126506166  0.29249664619278076  1.0000
  N   N6        1.0  0.7121985492647197  0.5945644629494639  0.20750475375747604  1.0000
  N   N7        1.0  0.7878001987253781  0.9054325684396929  0.20750521700740165  1.0000
  N   N8        1.0  0.7878054910585348  0.09456829737160183  0.29249781676209347  1.0000
  N   N9        1.0  0.40027144154468164  0.7131924078240387  0.70363766845562  1.0000
  N   N10       1.0  0.40026565758017796  0.2868129094842685  0.7963614462710208  1.0000
  N   N11       1.0  0.09972881512528176  0.2131887610118213  0.7963619658117974  1.0000
  N   N12       1.0  0.09973111057063727  0.786806403657188  0.7036386368913339  1.0000
  N   N13       1.0  0.599731648048646  0.28681113457884067  0.2963625988233999  1.0000
  N   N14       1.0  0.599739289697524  0.7131899888285745  0.2036382046048643  1.0000
  N   N15       1.0  0.9002621995396323  0.7868083405578687  0.20363706862493555  1.0000
  N   N16       1.0  0.9002673348561029  0.2131913419755733  0.29636471242592677  1.0000
  O   O1        1.0  0.5100908014257682  0.8604617596948855  0.2672320781277547  1.0000
  O   O2        1.0  0.5100968234284763  0.1395333526318865  0.2327682498413352  1.0000
  O   O3        1.0  0.9899134899023067  0.36047057373770025  0.23276433971471272  1.0000
  O   O4        1.0  0.9899058592823805  0.6395306112609161  0.2672342183649403  1.0000
  O   O5        1.0  0.4899039286289975  0.13953340960443944  0.7327688055474082  1.0000
  O   O6        1.0  0.48991926996897195  0.8604689015663  0.7672326338824289  1.0000
  O   O7        1.0  0.010084955482206198  0.6395284600756452  0.7672328455131489  1.0000
  O   O8        1.0  0.010097230314563898  0.3604729311411817  0.73276666532287  1.0000
  O   O9        1.0  0.5978608802511758  0.9568876113222798  0.3525924909232144  1.0000
  O   O10       1.0  0.5978593916221229  0.04311223291377791  0.14740028924528295  1.0000
  O   O11       1.0  0.9021387762470422  0.45689062231897276  0.14740062547299704  1.0000
  O   O12       1.0  0.9021442104854386  0.5431077630501163  0.35259623426328784  1.0000
  O   O13       1.0  0.4021338497804833  0.04311013432486991  0.6474065435226419  1.0000
  O   O14       1.0  0.4021436979813372  0.9568861568012752  0.852597512404422  1.0000
  O   O15       1.0  0.09786245567580919  0.5431129200852284  0.8526021074362685  1.0000
  O   O16       1.0  0.0978514483395472  0.45690028797674387  0.6474028001733031  1.0000
