data_image0
_chemical_formula_structural       Ni4H48C60N4O16
_chemical_formula_sum              "Ni4 H48 C60 N4 O16"
_cell_length_a       9.521221570131805
_cell_length_b       18.386664493995124
_cell_length_c       18.519342586011213
_cell_angle_alpha    90.00011050608359
_cell_angle_beta     89.9999296636597
_cell_angle_gamma    94.88631046360027

_space_group_name_H-M_alt    "P 1"
_space_group_IT_number       1

loop_
  _space_group_symop_operation_xyz
  'x, y, z'

loop_
  _atom_site_type_symbol
  _atom_site_label
  _atom_site_symmetry_multiplicity
  _atom_site_fract_x
  _atom_site_fract_y
  _atom_site_fract_z
  _atom_site_occupancy
  Ni  Ni1       1.0  0.60834982790859  0.2474675505280076  0.2500002790614317  1.0000
  Ni  Ni2       1.0  0.39163863056970877  0.752532947325264  0.7500002216624254  1.0000
  Ni  Ni3       1.0  0.3542244254559889  0.25072683472203044  0.2500003628002005  1.0000
  Ni  Ni4       1.0  0.645761845399086  0.749273113860447  0.7500006778997986  1.0000
  H   H1        1.0  0.6647092991226202  0.05840737641159421  0.11418424389577808  1.0000
  H   H2        1.0  0.33530281243753274  0.94159454520549  0.6141829644067516  1.0000
  H   H3        1.0  0.33530358176485453  0.9415947983075912  0.8858178767498543  1.0000
  H   H4        1.0  0.6647088448914359  0.05840653609518401  0.3858164563583628  1.0000
  H   H5        1.0  0.7545591724106301  0.42161521301624566  0.11416242418277278  1.0000
  H   H6        1.0  0.2454409505190043  0.5783839604960548  0.6141621260191954  1.0000
  H   H7        1.0  0.24544469848903105  0.5783831270545436  0.8858369965821851  1.0000
  H   H8        1.0  0.7545607327551945  0.4216138303059438  0.3858399946257904  1.0000
  H   H9        1.0  0.7595618571778999  0.9567842597087691  0.0454877110931022  1.0000
  H   H10       1.0  0.24045311580857734  0.0432148106176271  0.5454923308857789  1.0000
  H   H11       1.0  0.24045470696234617  0.043214646717871105  0.9545073898606019  1.0000
  H   H12       1.0  0.7595602101375859  0.956783544837862  0.4545124896359098  1.0000
  H   H13       1.0  0.13300678702807286  0.3540202933067534  0.2977695061891552  1.0000
  H   H14       1.0  0.8669805219753497  0.6459802912558176  0.7977684031544783  1.0000
  H   H15       1.0  0.8669806208894427  0.6459802028371514  0.7022304545590643  1.0000
  H   H16       1.0  0.13300802300405218  0.35402075245003334  0.2022310176179332  1.0000
  H   H17       1.0  0.8829831926300642  0.3526850977548577  0.20220917938102903  1.0000
  H   H18       1.0  0.117004141247989  0.6473142182217515  0.7022080147651621  1.0000
  H   H19       1.0  0.11700395578751709  0.6473137608283112  0.7977907813656985  1.0000
  H   H20       1.0  0.8829840577314909  0.3526846420697751  0.297791406005267  1.0000
  H   H21       1.0  0.3097613130815374  0.40069209742028994  0.0711890975559015  1.0000
  H   H22       1.0  0.6902423965128078  0.5993091850935741  0.571191797109023  1.0000
  H   H23       1.0  0.6902441273810211  0.599309519479327  0.9288087032837778  1.0000
  H   H24       1.0  0.30976111582311466  0.40069352009899023  0.42880978356411253  1.0000
  H   H25       1.0  0.26340789595148806  0.13209429779031007  0.0564091727439973  1.0000
  H   H26       1.0  0.7366044217352721  0.8679080627468992  0.5564145172043241  1.0000
  H   H27       1.0  0.7366050714432432  0.867908422775962  0.9435859282145033  1.0000
  H   H28       1.0  0.2634084591494101  0.13209411197478718  0.44359030332116595  1.0000
  H   H29       1.0  0.7902380325352993  0.5207364223580057  0.0225809631281066  1.0000
  H   H30       1.0  0.20977085752360133  0.47926368701563876  0.522577797884388  1.0000
  H   H31       1.0  0.20977214173130676  0.4792619279669169  0.9774195375868047  1.0000
  H   H32       1.0  0.7902373886230761  0.5207357515962343  0.47742000295232156  1.0000
  H   H33       1.0  0.11598537003960979  0.24078050112999708  0.13751533440029107  1.0000
  H   H34       1.0  0.8840002561748787  0.7592203292443997  0.6375149774180997  1.0000
  H   H35       1.0  0.8840000232557513  0.7592205374492806  0.8624840863731151  1.0000
  H   H36       1.0  0.1159860146818659  0.24077961933657835  0.362484443353985  1.0000
  H   H37       1.0  0.10287676991467978  0.15719148117886314  0.1850758020872618  1.0000
  H   H38       1.0  0.8971119960002125  0.8428099882095382  0.6850766768281745  1.0000
  H   H39       1.0  0.8971118615658182  0.8428101083795597  0.814922538733704  1.0000
  H   H40       1.0  0.1028754984178448  0.15719105378745013  0.3149227439445639  1.0000
  H   H41       1.0  0.8543013927996199  0.15625382619763434  0.18524781514534544  1.0000
  H   H42       1.0  0.1456869402614842  0.8437449142392098  0.6852464685574233  1.0000
  H   H43       1.0  0.1456868061787375  0.8437450340948943  0.8147526855770266  1.0000
  H   H44       1.0  0.8543002081572123  0.15625394434296416  0.3147524122373683  1.0000
  H   H45       1.0  0.8658695743159938  0.23981196334793956  0.13761445116136173  1.0000
  H   H46       1.0  0.1341179798160539  0.7601877789204182  0.6376140318368257  1.0000
  H   H47       1.0  0.13411774710210272  0.7601879869418938  0.8623849696103889  1.0000
  H   H48       1.0  0.8658692551015008  0.23981162551633167  0.362385928910399  1.0000
  C   C1        1.0  0.4722395273348283  0.1533785343295904  0.15158583154727984  1.0000
  C   C2        1.0  0.5277562293573296  0.8466201557634038  0.6515858679841173  1.0000
  C   C3        1.0  0.527757076134847  0.8466203396332901  0.8484141291964706  1.0000
  C   C4        1.0  0.47223923705045934  0.15337817063753795  0.3484146327354409  1.0000
  C   C5        1.0  0.4656142782779255  0.099759051315111  0.0910722951320153  1.0000
  C   C6        1.0  0.5343943834525076  0.9002406389845136  0.5910740499814224  1.0000
  C   C7        1.0  0.5343950184295352  0.9002403890061145  0.9089260456803315  1.0000
  C   C8        1.0  0.4656138626902545  0.09975879963085532  0.4089275306870804  1.0000
  C   C9        1.0  0.5720827452695331  0.054421406472201304  0.07928184260887863  1.0000
  C   C10       1.0  0.4279303161236427  0.9455793605434406  0.5792805119833844  1.0000
  C   C11       1.0  0.4279310131804479  0.9455796782476827  0.9207191980834892  1.0000
  C   C12       1.0  0.572082218767271  0.05442063075842902  0.4207183688044367  1.0000
  C   C13       1.0  0.6660876161988154  0.43943505218597795  0.08351991289613643  1.0000
  C   C14       1.0  0.33391606786671696  0.5605662531479254  0.5835184445205002  1.0000
  C   C15       1.0  0.3339196658842596  0.5605649305726106  0.9164800478452835  1.0000
  C   C16       1.0  0.6660902501544398  0.4394342737558857  0.41648205619771533  1.0000
  C   C17       1.0  0.6674559501454382  0.9539827875158412  0.010181408748792403  1.0000
  C   C18       1.0  0.33255690832971396  0.046015668185518215  0.5101827356124744  1.0000
  C   C19       1.0  0.33255851286820354  0.04601611549658462  0.9898174720373732  1.0000
  C   C20       1.0  0.6674542299971408  0.9539821379956805  0.4898188450535557  1.0000
  C   C21       1.0  0.5611377625067674  0.0022077514522749007  0.0229606823510764  1.0000
  C   C22       1.0  0.4388762065700574  0.9977912754636192  0.5229599847542235  1.0000
  C   C23       1.0  0.4388778375665225  0.9977916991240864  0.9770398183631671  1.0000
  C   C24       1.0  0.5611371193816977  0.0022070799868672  0.4770394360077503  1.0000
  C   C25       1.0  0.5070023078995404  0.347190438560773  0.15335982717786584  1.0000
  C   C26       1.0  0.49299081243490406  0.6528115248109004  0.6533600544646561  1.0000
  C   C27       1.0  0.492994728068915  0.6528111646709932  0.8466412135203003  1.0000
  C   C28       1.0  0.5070039494114624  0.3471889832955029  0.3466404462572115  1.0000
  C   C29       1.0  0.529130331805021  0.40555762990042155  0.0974804626641017  1.0000
  C   C30       1.0  0.47087130872891675  0.5944442437108108  0.5974800522276666  1.0000
  C   C31       1.0  0.47087502215476446  0.5944434411481155  0.902520038054945  1.0000
  C   C32       1.0  0.5291308935473964  0.4055568222106559  0.4025199085164033  1.0000
  C   C33       1.0  0.414204776177634  0.4271664278797545  0.05970164096171259  1.0000
  C   C34       1.0  0.5858012313278279  0.5728359284946266  0.5597027361503636  1.0000
  C   C35       1.0  0.5858039024678235  0.5728357400010112  0.9402972398294127  1.0000
  C   C36       1.0  0.41420551919378557  0.4271673276765854  0.44029722459436027  1.0000
  C   C37       1.0  0.3447702270777738  0.09529333105066942  0.04574728614002051  1.0000
  C   C38       1.0  0.6552427307509775  0.9047062821898424  0.545749512844516  1.0000
  C   C39       1.0  0.6552432718756194  0.9047061161054732  0.9542505146950262  1.0000
  C   C40       1.0  0.34476971763660197  0.09529316326145221  0.4542526077986365  1.0000
  C   C41       1.0  0.6852135029210799  0.4941345402352583  0.03287561286397531  1.0000
  C   C42       1.0  0.31479238713519914  0.50586667477549  0.5328740518626491  1.0000
  C   C43       1.0  0.31479474322392054  0.5058648983781071  0.9671238079006487  1.0000
  C   C44       1.0  0.6852150679489526  0.4941343996892655  0.46712482892782253  1.0000
  C   C45       1.0  0.4307221067086146  0.4827364485417507  0.006878539546654799  1.0000
  C   C46       1.0  0.5692869888616912  0.5172647234772826  0.506878458834052  1.0000
  C   C47       1.0  0.5692883270590485  0.5172635393429136  0.9931208812178055  1.0000
  C   C48       1.0  0.43072194928426205  0.4827390819637147  0.4931198819825867  1.0000
  C   C49       1.0  0.068214878658722  0.21255224224353245  0.1849095534972065  1.0000
  C   C50       1.0  0.93177257754094  0.7874475875659429  0.6849086802908602  1.0000
  C   C51       1.0  0.9317723562582785  0.7874471621937218  0.8150909472259897  1.0000
  C   C52       1.0  0.0682146573782916  0.21255181686930777  0.3150896605284501  1.0000
  C   C53       1.0  0.9051626615380568  0.21210568515240882  0.18515983641038503  1.0000
  C   C54       1.0  0.09482777282687495  0.7878930585402346  0.6851594950770306  1.0000
  C   C55       1.0  0.09482755206413172  0.7878926327032546  0.8148395843588858  1.0000
  C   C56       1.0  0.9051625272747326  0.2121058051695073  0.3148404656687022  1.0000
  C   C57       1.0  0.08560350136184519  0.32646486175409006  0.2500005205426277  1.0000
  C   C58       1.0  0.9143923975464006  0.6735361939142451  0.7499994402034319  1.0000
  C   C59       1.0  0.9220210179958241  0.325376229262517  0.2500002541585147  1.0000
  C   C60       1.0  0.07797322485178174  0.6746210037214129  0.7499991666084398  1.0000
  N   N1        1.0  0.857021008907047  0.24952336926033783  0.2500002021426511  1.0000
  N   N2        1.0  0.14296920469458743  0.7504749485958229  0.7499997586025915  1.0000
  N   N3        1.0  0.12838290779671976  0.2506694430775269  0.24999989441430165  1.0000
  N   N4        1.0  0.8716077383053642  0.7493316040460273  0.7499995263574419  1.0000
  O   O1        1.0  0.3819265759650746  0.3279514505722575  0.1730948902309137  1.0000
  O   O2        1.0  0.6180673810653019  0.6720494593304738  0.6730956149816336  1.0000
  O   O3        1.0  0.618070101440196  0.6720545177807865  0.8269077703994583  1.0000
  O   O4        1.0  0.3819273807782722  0.32795104877843073  0.3269075856200914  1.0000
  O   O5        1.0  0.5946968369116162  0.1739961417846843  0.177358865551021  1.0000
  O   O6        1.0  0.4052929955475193  0.8260053150255687  0.6773562403216644  1.0000
  O   O7        1.0  0.4052965283701369  0.8260021812015453  0.822644875025027  1.0000
  O   O8        1.0  0.594699751677254  0.17399573551570316  0.3226431804494183  1.0000
  O   O9        1.0  0.3563586755991253  0.17508351557522425  0.17265035173230103  1.0000
  O   O10       1.0  0.6436344173516629  0.8249119349691514  0.6726513530266018  1.0000
  O   O11       1.0  0.6436381008733035  0.8249164500923104  0.8273469091325796  1.0000
  O   O12       1.0  0.35636061655678475  0.17508366216339516  0.3273486077145051  1.0000
  O   O13       1.0  0.6192547746654357  0.32094144894200133  0.1774740133560968  1.0000
  O   O14       1.0  0.38073934629753836  0.6790605607731379  0.6774743621353494  1.0000
  O   O15       1.0  0.380738677121883  0.6790574198928142  0.8225243274607338  1.0000
  O   O16       1.0  0.6192534009272348  0.3209404897681267  0.3225250586357333  1.0000
