data_image0
_chemical_formula_structural       Cu2H30C34S2N2O10
_chemical_formula_sum              "Cu2 H30 C34 S2 N2 O10"
_cell_length_a       8.013844056981107
_cell_length_b       10.12141734497741
_cell_length_c       12.650450167257633
_cell_angle_alpha    85.82808727797904
_cell_angle_beta     78.70376888235951
_cell_angle_gamma    74.7140131711329

_space_group_name_H-M_alt    "P 1"
_space_group_IT_number       1

loop_
  _space_group_symop_operation_xyz
  'x, y, z'

loop_
  _atom_site_type_symbol
  _atom_site_label
  _atom_site_symmetry_multiplicity
  _atom_site_fract_x
  _atom_site_fract_y
  _atom_site_fract_z
  _atom_site_occupancy
  Cu  Cu1       1.0  0.8651433634164221  0.6024766865137747  0.5343113737095777  1.0000
  Cu  Cu2       1.0  0.13477590583693913  0.39751920978363126  0.46571663273869035  1.0000
  H   H1        1.0  0.05079563045487138  0.7653216087249887  0.768669250867525  1.0000
  H   H2        1.0  0.9492855239540604  0.2346826368056795  0.2312869921346277  1.0000
  H   H3        1.0  0.1869201894789541  0.8232606028071954  0.9152977856677678  1.0000
  H   H4        1.0  0.8130866057424413  0.17674820752751688  0.08468273325890147  1.0000
  H   H5        1.0  0.4616850859515794  0.6624128404782608  0.9581416059139157  1.0000
  H   H6        1.0  0.5383004034204789  0.3375988940485468  0.04186993342680979  1.0000
  H   H7        1.0  0.5912183666364399  0.44769710607012303  0.8607927746709052  1.0000
  H   H8        1.0  0.4087783962808302  0.5523183093495803  0.1392179080948495  1.0000
  H   H9        1.0  0.48048065101266235  0.13340054680438124  0.8704835361646913  1.0000
  H   H10       1.0  0.5195123220441362  0.8666241165508236  0.12952000125552837  1.0000
  H   H11       1.0  0.7154346378027372  0.9959847543562499  0.9665361160568579  1.0000
  H   H12       1.0  0.28452257424257965  0.0040150930275117975  0.033488398216611905  1.0000
  H   H13       1.0  0.019949790759824303  0.029773607124823798  0.9162749418825625  1.0000
  H   H14       1.0  0.9800419877598899  0.970181134332108  0.08373027430150158  1.0000
  H   H15       1.0  0.08780332426362486  0.1911577379767735  0.7674542858861173  1.0000
  H   H16       1.0  0.9122041327007793  0.8088051873822193  0.23253265862095424  1.0000
  H   H17       1.0  0.45102900578029903  0.7125815540852896  0.5320565230327432  1.0000
  H   H18       1.0  0.5489317577900652  0.2874562317235173  0.467933801881351  1.0000
  H   H19       1.0  0.16157535980092766  0.013662088605471499  0.5120276178976225  1.0000
  H   H20       1.0  0.8384542739047876  0.9863696183435591  0.4879684664084465  1.0000
  H   H21       1.0  0.08337867064052071  0.9439186555662997  0.6396365764302843  1.0000
  H   H22       1.0  0.9166513872300043  0.05612457201706177  0.36035485890494806  1.0000
  H   H23       1.0  0.18159433179855725  0.8324119295535224  0.5293333100537935  1.0000
  H   H24       1.0  0.8184105856337567  0.16763408121052945  0.4706825294191574  1.0000
  H   H25       1.0  0.3385356292068522  0.009533436836591096  0.7377375347553183  1.0000
  H   H26       1.0  0.661488849397443  0.9904792795477277  0.2622547338811215  1.0000
  H   H27       1.0  0.3217240550812264  0.11440454892915138  0.6180467079892722  1.0000
  H   H28       1.0  0.6783140931829764  0.8856120261851217  0.38193569208427647  1.0000
  H   H29       1.0  0.5311512490315026  0.006056417221202502  0.6388365280051289  1.0000
  H   H30       1.0  0.46887953021989404  0.993953443982299  0.36116062748491357  1.0000
  C   C1        1.0  0.1572207519265376  0.5527567606303663  0.6430400607658767  1.0000
  C   C2        1.0  0.8427835985050082  0.4472456224316586  0.3569482437040035  1.0000
  C   C3        1.0  0.24420294434305131  0.5762203718602094  0.7314918413857185  1.0000
  C   C4        1.0  0.7558362788662478  0.4237555697524584  0.26849426716770347  1.0000
  C   C5        1.0  0.17027480171545054  0.6974035141188961  0.7896618173270935  1.0000
  C   C6        1.0  0.8297718014693628  0.30258541056475247  0.21030760393951908  1.0000
  C   C7        1.0  0.2462906670310334  0.7292938778981932  0.8707334971883397  1.0000
  C   C8        1.0  0.7537268352715429  0.27072285435622223  0.1292317720408604  1.0000
  C   C9        1.0  0.3989373178999429  0.6385753299733493  0.895376896263663  1.0000
  C   C10       1.0  0.601050917204283  0.3614324547800151  0.1046218639002987  1.0000
  C   C11       1.0  0.47212676163913164  0.516627375383834  0.8405953993284354  1.0000
  C   C12       1.0  0.5278869965091175  0.4833805635231838  0.15940957391281776  1.0000
  C   C13       1.0  0.3959544160817999  0.48217747569147196  0.7588713888658986  1.0000
  C   C14       1.0  0.6040688481313268  0.51780692329433  0.24113684270650984  1.0000
  C   C15       1.0  0.6511435090808889  0.2390968850027092  0.7658535385936459  1.0000
  C   C16       1.0  0.348841210455646  0.7609043169889912  0.2341681724206594  1.0000
  C   C17       1.0  0.614241338508748  0.14569558823366438  0.8490765261616315  1.0000
  C   C18       1.0  0.3857514422595757  0.8542946637763575  0.15092658244270746  1.0000
  C   C19       1.0  0.745726331610136  0.06929134845393747  0.9028640829961245  1.0000
  C   C20       1.0  0.25424231744779746  0.9306987372325041  0.09714449290142108  1.0000
  C   C21       1.0  0.915797485172824  0.0874245038954982  0.8746068490067669  1.0000
  C   C22       1.0  0.0841726266968766  0.9125686696831177  0.12541796837739838  1.0000
  C   C23       1.0  0.9549975648526967  0.1778014361866411  0.791058536201909  1.0000
  C   C24       1.0  0.04500469369617124  0.822165290695608  0.20894546199732386  1.0000
  C   C25       1.0  0.8246433887380178  0.25243781066488685  0.7350304329706387  1.0000
  C   C26       1.0  0.17534395177358433  0.7475312697815467  0.26498087565324363  1.0000
  C   C27       1.0  0.8803324488096748  0.343238963083074  0.6430720629387279  1.0000
  C   C28       1.0  0.11957726175688786  0.6567773632111481  0.3569497032197616  1.0000
  C   C29       1.0  0.48800236141114794  0.7905221947120892  0.5729693809459631  1.0000
  C   C30       1.0  0.5119992228974012  0.2094778738943005  0.4270328449922332  1.0000
  C   C31       1.0  0.18712366299031663  0.9247025495493727  0.5673060157684515  1.0000
  C   C32       1.0  0.8129118463201407  0.07533046927846947  0.4326924059500285  1.0000
  C   C33       1.0  0.38935420009346433  0.015861178229911798  0.6505312900602431  1.0000
  C   C34       1.0  0.6106857268342765  0.9841512373793576  0.3494621815099634  1.0000
  S   S1        1.0  0.48205348459675434  0.3236032670984556  0.6932092178703115  1.0000
  S   S2        1.0  0.5179618103738549  0.6763755392167139  0.306797973194989  1.0000
  N   N1        1.0  0.3592343317693504  0.9055066179551831  0.5956786749843417  1.0000
  N   N2        1.0  0.6407927157248422  0.09451873568831808  0.4043133511836317  1.0000
  O   O1        1.0  0.009016461663662873  0.6348737236046346  0.6358422321881676  1.0000
  O   O2        1.0  0.9911194658820436  0.3652431682783686  0.36403827594265437  1.0000
  O   O3        1.0  0.23947500663116014  0.45171706313428234  0.581790650085736  1.0000
  O   O4        1.0  0.7603775076179603  0.5481072096471917  0.41831474913921335  1.0000
  O   O5        1.0  0.7891006954281253  0.46605086172979054  0.6408991253239192  1.0000
  O   O6        1.0  0.21095297973369753  0.5339803432148499  0.3591887731864816  1.0000
  O   O7        1.0  0.019723164980803218  0.2857374440549377  0.5783699566063304  1.0000
  O   O8        1.0  0.9801291434001347  0.7142139571187014  0.42159083400017033  1.0000
  O   O9        1.0  0.6387090981619392  0.7729580946471798  0.5937175917928172  1.0000
  O   O10       1.0  0.36128126008276235  0.2269747119877721  0.4062834951455656  1.0000
