data_image0
_chemical_formula_structural       Cu2H22C26N2O8
_chemical_formula_sum              "Cu2 H22 C26 N2 O8"
_cell_length_a       4.96584791643378
_cell_length_b       7.223753600793522
_cell_length_c       16.784642468047444
_cell_angle_alpha    77.55034181981506
_cell_angle_beta     87.1249981083643
_cell_angle_gamma    76.63843673281534

_space_group_name_H-M_alt    "P 1"
_space_group_IT_number       1

loop_
  _space_group_symop_operation_xyz
  'x, y, z'

loop_
  _atom_site_type_symbol
  _atom_site_label
  _atom_site_symmetry_multiplicity
  _atom_site_fract_x
  _atom_site_fract_y
  _atom_site_fract_z
  _atom_site_occupancy
  Cu  Cu1       1.0  0.8948548049003758  0.8445404752419131  0.8891313836922949  1.0000
  Cu  Cu2       1.0  0.39381104213877194  0.7339523113716024  0.11069917091204225  1.0000
  H   H1        1.0  0.11241416305310267  0.46132881875954695  0.9422911093556511  1.0000
  H   H2        1.0  0.6120377666838905  0.40367366456499093  0.057494900384007536  1.0000
  H   H3        1.0  0.22674126937978656  0.6002122013127431  0.9877755381203032  1.0000
  H   H4        1.0  0.7264727360145217  0.5882076576478709  0.012143943073496637  1.0000
  H   H5        1.0  0.32551835654051336  0.5560827373805136  0.7921468473411367  1.0000
  H   H6        1.0  0.8238979373064766  0.3489171041955003  0.20780696878423308  1.0000
  H   H7        1.0  0.9921610000772458  0.6907148806974985  0.6771493356865081  1.0000
  H   H8        1.0  0.4908759923256056  0.36825486467112245  0.32296761475692654  1.0000
  H   H9        1.0  0.7700781721576888  0.9558724454215122  0.5713437348593403  1.0000
  H   H10       1.0  0.26956331303254893  0.527156876833807  0.42895808004906405  1.0000
  H   H11       1.0  0.69097172986573  0.3034015811283336  0.4979457218187663  1.0000
  H   H12       1.0  0.1908889052268421  0.8010739330898456  0.5024541600527926  1.0000
  H   H13       1.0  0.9579467146033307  0.5194810936587899  0.5390354203924375  1.0000
  H   H14       1.0  0.4584557626422239  0.05799963883887214  0.461347332333176  1.0000
  H   H15       1.0  0.30397433722757927  0.395458925597907  0.646726801414623  1.0000
  H   H16       1.0  0.8043705698424899  0.041824298000371025  0.353554741043105  1.0000
  H   H17       1.0  0.5211102296208807  0.3003550585867171  0.7398977132178788  1.0000
  H   H18       1.0  0.020183391033199875  0.04066869229433219  0.2598995492675655  1.0000
  H   H19       1.0  0.6905467309342014  0.32213162284167357  0.8946325743857246  1.0000
  H   H20       1.0  0.18962850490979824  0.2172709778117081  0.10511129683269624  1.0000
  H   H21       1.0  0.9041434246834753  0.355243752771173  0.8067748916336797  1.0000
  H   H22       1.0  0.4033710187382623  0.1622163772531947  0.19291631802214235  1.0000
  C   C1        1.0  0.4329006124652607  0.019632680329386865  0.74270041880375  1.0000
  C   C2        1.0  0.9319686122528947  0.7626813177050663  0.2572920257098304  1.0000
  C   C3        1.0  0.47299428554355644  0.818931237591407  0.7826336299220531  1.0000
  C   C4        1.0  0.9716456277862379  0.6020991352969458  0.21730698290669895  1.0000
  C   C5        1.0  0.3038073519040693  0.7047266405972857  0.7574720039509303  1.0000
  C   C6        1.0  0.8023494280715369  0.4627117472006503  0.24254061098131538  1.0000
  C   C7        1.0  0.12019895117870043  0.7800631218462327  0.6943974256736497  1.0000
  C   C8        1.0  0.6189414645754994  0.4748636948648154  0.3056809977161025  1.0000
  C   C9        1.0  0.8884938377022706  0.05254739618090535  0.5872105138704599  1.0000
  C   C10       1.0  0.3880833052492959  0.6396814219123853  0.41310459454391696  1.0000
  C   C11       1.0  0.8428982151994758  0.24483240934364392  0.5467790312472331  1.0000
  C   C12       1.0  0.34278211152948046  0.7913823900808478  0.45357403275760805  1.0000
  C   C13       1.0  0.9939394307258453  0.366929391255702  0.5703412031534187  1.0000
  C   C14       1.0  0.49418812219771974  0.9368847575914215  0.4300208672076595  1.0000
  C   C15       1.0  0.18734674458706732  0.2961191916417292  0.6326165249688387  1.0000
  C   C16       1.0  0.6875639465590665  0.9284416403115755  0.3676914324219852  1.0000
  C   C17       1.0  0.23784908204127914  0.09940634776921077  0.6758923481719351  1.0000
  C   C18       1.0  0.737466041367931  0.7753486153205171  0.32427943745696564  1.0000
  C   C19       1.0  0.08276410229822058  0.9770129328772152  0.651397702792835  1.0000
  C   C20       1.0  0.5820934864598827  0.6285438154221976  0.3488038229197486  1.0000
  C   C21       1.0  0.5711540929557728  0.14648546560391626  0.7704021544548852  1.0000
  C   C22       1.0  0.07002859578452801  0.9173084519124473  0.2294056352128352  1.0000
  C   C23       1.0  0.8510693497917714  0.24551555663241223  0.8578339075117328  1.0000
  C   C24       1.0  0.3501138929611257  0.10376136031467095  0.1418619748308956  1.0000
  C   C25       1.0  0.10013910258805939  0.1497230638139369  0.9130908676388998  1.0000
  C   C26       1.0  0.5991386946550036  0.06309700206591626  0.08656999208316313  1.0000
  N   N1        1.0  0.7471362797343699  0.09864569512886584  0.8299977704862727  1.0000
  N   N2        1.0  0.2459834690757105  0.9290474052209418  0.16976255112378175  1.0000
  O   O1        1.0  0.6488496144433213  0.7289793164554865  0.841047385956287  1.0000
  O   O2        1.0  0.14730430077737108  0.5705683167251152  0.15882998374952007  1.0000
  O   O3        1.0  0.15752529009475302  0.9634697565915217  0.9345678712770892  1.0000
  O   O4        1.0  0.6564947681223855  0.8982429374838999  0.06519185014282416  1.0000
  O   O5        1.0  0.05600631083632378  0.592321220631035  0.961447337365698  1.0000
  O   O6        1.0  0.5556797119280359  0.5539141251193058  0.03844815350473145  1.0000
  O   O7        1.0  0.23831597360826598  0.25574378148505833  0.9352440740274375  1.0000
  O   O8        1.0  0.7375926990095536  0.19114420740443444  0.06435334312566711  1.0000
