data_image0
_chemical_formula_structural       Zn2H24C32N4O16
_chemical_formula_sum              "Zn2 H24 C32 N4 O16"
_cell_length_a       7.214838844684349
_cell_length_b       7.292173626878381
_cell_length_c       17.740845228268416
_cell_angle_alpha    84.24242838332673
_cell_angle_beta     78.27172418028128
_cell_angle_gamma    60.3232348636002

_space_group_name_H-M_alt    "P 1"
_space_group_IT_number       1

loop_
  _space_group_symop_operation_xyz
  'x, y, z'

loop_
  _atom_site_type_symbol
  _atom_site_label
  _atom_site_symmetry_multiplicity
  _atom_site_fract_x
  _atom_site_fract_y
  _atom_site_fract_z
  _atom_site_occupancy
  Zn  Zn1       1.0  0.7656920763591231  0.00016880966311560023  0.9999865004940317  1.0000
  Zn  Zn2       1.0  0.5153751914277577  0.500177494894956  0.5000199007177173  1.0000
  H   H1        1.0  0.9315883013893255  0.9046359258519205  0.694432092968775  1.0000
  H   H2        1.0  0.5307696453845594  0.09529386629788662  0.30553941512913946  1.0000
  H   H3        1.0  0.3762695448086715  0.40483404419832425  0.8054745048554323  1.0000
  H   H4        1.0  0.5864338805878615  0.5951302148893876  0.19455125830975112  1.0000
  H   H5        1.0  0.27675842098688014  0.82801508302493  0.7496540721311077  1.0000
  H   H6        1.0  0.8543388293965462  0.17177206082733684  0.2504639305601374  1.0000
  H   H7        1.0  0.7769544268259807  0.327279763381661  0.7504732557430317  1.0000
  H   H8        1.0  0.8545987669252068  0.6725073483063824  0.24939879900703232  1.0000
  H   H9        1.0  0.435401467637682  0.8452009320344022  0.8601488803532362  1.0000
  H   H10       1.0  0.14068395794137692  0.15429756789770724  0.13991062004679117  1.0000
  H   H11       1.0  0.04553453681047155  0.3450564654542988  0.6398975651733566  1.0000
  H   H12       1.0  0.030233048877988555  0.6547448927836684  0.3600296091342585  1.0000
  H   H13       1.0  0.9418660121044337  0.9163612874711548  0.5754749259975683  1.0000
  H   H14       1.0  0.4339213494920531  0.08348729056331902  0.42455756524491045  1.0000
  H   H15       1.0  0.26736392781127455  0.4171890520279008  0.9245031667854348  1.0000
  H   H16       1.0  0.6088285630544303  0.5832526111061117  0.07549705346566785  1.0000
  H   H17       1.0  0.6927564293658932  0.011227272711295198  0.5404618772429544  1.0000
  H   H18       1.0  0.2445937812669426  0.9888115547040646  0.4595506423414549  1.0000
  H   H19       1.0  0.983200866317233  0.5120823129755651  0.9594186139228923  1.0000
  H   H20       1.0  0.4546119978010523  0.48842209078352283  0.04049283563969653  1.0000
  H   H21       1.0  0.8753255028572441  0.7350487608847234  0.5415161673757113  1.0000
  H   H22       1.0  0.15199082043414336  0.2649441459443977  0.458479491857851  1.0000
  H   H23       1.0  0.1669117602448581  0.23593488305093765  0.9585769804444126  1.0000
  H   H24       1.0  0.3609598121529557  0.7645501027481105  0.04148035151852275  1.0000
  C   C1        1.0  0.7996433234033448  0.8869862577653934  0.8494824331649723  1.0000
  C   C2        1.0  0.5359692812415844  0.11297709938543224  0.1505076589160481  1.0000
  C   C3        1.0  0.3992613814778066  0.3867389677813691  0.6504552224231118  1.0000
  C   C4        1.0  0.43628367586791234  0.613047479288568  0.34955289991651034  1.0000
  C   C5        1.0  0.6960994426158249  0.8748820044335022  0.7857865807522869  1.0000
  C   C6        1.0  0.3567750320908373  0.12494316880437854  0.21422260030264081  1.0000
  C   C7        1.0  0.23216368547090147  0.3746697098185834  0.7141972840558636  1.0000
  C   C8        1.0  0.320856717517138  0.6251284051598064  0.28578672789938503  1.0000
  C   C9        1.0  0.7885496647879008  0.8845975960322505  0.7098154912258181  1.0000
  C   C10       1.0  0.383057343171302  0.1153066077796865  0.2901836847441928  1.0000
  C   C11       1.0  0.2487229490027333  0.3845732708183789  0.7901490749387675  1.0000
  C   C12       1.0  0.4232982076407337  0.6153432654027143  0.209845641074665  1.0000
  C   C13       1.0  0.5225323935104458  0.8484874089135206  0.6642635361646684  1.0000
  C   C14       1.0  0.035297736951967675  0.15157932947012404  0.33580639079477953  1.0000
  C   C15       1.0  0.9374082288795902  0.34814849882392457  0.835785590570609  1.0000
  C   C16       1.0  0.12122948926219836  0.6517761202672218  0.16414390312748853  1.0000
  C   C17       1.0  0.423691247987186  0.8410742644261904  0.7397210021394472  1.0000
  C   C18       1.0  0.004457945427276325  0.1587585290601794  0.26036511994868056  1.0000
  C   C19       1.0  0.9139015102708755  0.34056212740293285  0.7603568815920169  1.0000
  C   C20       1.0  0.01470185765919729  0.6592485695309452  0.2395608474426325  1.0000
  C   C21       1.0  0.5099860540798596  0.8531679508736263  0.8009543375645266  1.0000
  C   C22       1.0  0.16411039070753466  0.14652395977003613  0.19909810371481032  1.0000
  C   C23       1.0  0.061189982351379464  0.3528849691738856  0.6990806140175962  1.0000
  C   C24       1.0  0.11298781035509371  0.6469219014295432  0.3008599231386455  1.0000
  C   C25       1.0  0.8116188887229043  0.8840894107565022  0.5713947073713471  1.0000
  C   C26       1.0  0.2672861675717825  0.11586617664396932  0.42863238969846407  1.0000
  C   C27       1.0  0.13313604813119187  0.38478243882976676  0.9285930394450473  1.0000
  C   C28       1.0  0.4462911228034157  0.615616273429666  0.07138961048452332  1.0000
  C   C29       1.0  0.4274755643251279  0.8230831148329047  0.5998666985083857  1.0000
  C   C30       1.0  0.8504086677801294  0.17740847365196546  0.4002467089993189  1.0000
  C   C31       1.0  0.7781388156806344  0.3226473349094334  0.9002169920037418  1.0000
  C   C32       1.0  0.0010398234703430037  0.6771745062908182  0.09966980999521272  1.0000
  N   N1        1.0  0.7041858469073717  0.8699506948415563  0.6505678298714059  1.0000
  N   N2        1.0  0.224812082497017  0.130038270832344  0.34946042287042195  1.0000
  N   N3        1.0  0.10519504875284023  0.3699852436060668  0.8494314333254421  1.0000
  N   N4        1.0  0.32445655487308045  0.6300617345022133  0.15053140188678785  1.0000
  O   O1        1.0  0.6826409457822321  0.9096594142976359  0.9173593283416678  1.0000
  O   O2        1.0  0.5095245071466721  0.0902314552077783  0.08263895401343292  1.0000
  O   O3        1.0  0.34994662100921636  0.40941078077150933  0.5826122846127433  1.0000
  O   O4        1.0  0.34171455273128953  0.5905952556258927  0.41741138748633944  1.0000
  O   O5        1.0  0.9823415230655639  0.8737700313293149  0.833480414745715  1.0000
  O   O6        1.0  0.689373631106278  0.12633790462354003  0.1665118062061666  1.0000
  O   O7        1.0  0.5660556798453199  0.3734790553449161  0.6664045172190783  1.0000
  O   O8        1.0  0.6057869857445722  0.626208884236732  0.33360872170619166  1.0000
  O   O9        1.0  0.22621306215643236  0.9069369490807021  0.6096731677846066  1.0000
  O   O10       1.0  0.7426475963181712  0.0936743703554228  0.39053555096391795  1.0000
  O   O11       1.0  0.5866383127595893  0.4065432780910997  0.8904777098847277  1.0000
  O   O12       1.0  0.8838694443056667  0.5931333790317198  0.10935967230883394  1.0000
  O   O13       1.0  0.5671692239171762  0.7060899597043078  0.5436494448761309  1.0000
  O   O14       1.0  0.8169943301646398  0.29458335150775383  0.4563778135951964  1.0000
  O   O15       1.0  0.8617555334334238  0.20557419284715192  0.9563838863538409  1.0000
  O   O16       1.0  0.023659889673005738  0.7943000187897555  0.04353613908543252  1.0000
