data_image0
_chemical_formula_structural       Dy2H20C32N10O16
_chemical_formula_sum              "Dy2 H20 C32 N10 O16"
_cell_length_a       9.493363991220917
_cell_length_b       10.14247029733233
_cell_length_c       11.60153130200077
_cell_angle_alpha    66.72911869542172
_cell_angle_beta     65.8471634529607
_cell_angle_gamma    62.09806293210633

_space_group_name_H-M_alt    "P 1"
_space_group_IT_number       1

loop_
  _space_group_symop_operation_xyz
  'x, y, z'

loop_
  _atom_site_type_symbol
  _atom_site_label
  _atom_site_symmetry_multiplicity
  _atom_site_fract_x
  _atom_site_fract_y
  _atom_site_fract_z
  _atom_site_occupancy
  Dy  Dy1       1.0  0.3418333581602865  0.24999140820536775  0.7499953439975969  1.0000
  Dy  Dy2       1.0  0.6581672462835684  0.7500084117140559  0.2500041328787575  1.0000
  H   H1        1.0  0.555074724246026  0.8926625896073614  0.8610234352775025  1.0000
  H   H2        1.0  0.3088156250945035  0.6072508338181845  0.6389869098338324  1.0000
  H   H3        1.0  0.4449237968993316  0.10733838287280405  0.1389762716925986  1.0000
  H   H4        1.0  0.6911841178805177  0.39274898536308445  0.3610134292850803  1.0000
  H   H5        1.0  0.5562861867735547  0.6249357156159262  0.9411617623125608  1.0000
  H   H6        1.0  0.12241137603390954  0.875016822975084  0.5588716042182612  1.0000
  H   H7        1.0  0.44371364938898944  0.3750641045978965  0.05883732826495712  1.0000
  H   H8        1.0  0.8775890068645253  0.12498184526679515  0.4411264836678371  1.0000
  H   H9        1.0  0.30258465551680297  0.5870228960600483  0.9540436037465058  1.0000
  H   H10       1.0  0.8437135790173185  0.9129201249556258  0.5460114901345464  1.0000
  H   H11       1.0  0.6974159489270592  0.41297692385938223  0.0459558731298486  1.0000
  H   H12       1.0  0.15628711861407388  0.08707969599635848  0.45398673820041324  1.0000
  H   H13       1.0  0.06597385647812337  0.8139650586118562  0.8933524295217837  1.0000
  H   H14       1.0  0.7732911096174386  0.6860190692548044  0.6066524626750649  1.0000
  H   H15       1.0  0.9340262944173858  0.18603591431207175  0.10664680150460273  1.0000
  H   H16       1.0  0.22670786507626411  0.3139807502208639  0.39334749014500403  1.0000
  H   H17       1.0  0.8768249083261426  0.007610979148758197  0.841341456755572  1.0000
  H   H18       1.0  0.7258326224678557  0.49227620975268127  0.6586885152058528  1.0000
  H   H19       1.0  0.123175242569367  0.9923899937751699  0.15865777427081446  1.0000
  H   H20       1.0  0.27416712050716535  0.5077236094285809  0.3413118239130526  1.0000
  C   C1        1.0  0.4490608712794569  0.8702692772171542  0.8693923201047229  1.0000
  C   C2        1.0  0.18874864248367393  0.6296543133186957  0.6306340626769398  1.0000
  C   C3        1.0  0.5509384181472042  0.1297316949686191  0.13060777316421485  1.0000
  C   C4        1.0  0.8112519619601885  0.3703455066007279  0.3693654141994145  1.0000
  C   C5        1.0  0.4485458709432776  0.721236640595599  0.9141537574976369  1.0000
  C   C6        1.0  0.08394041391211728  0.7787089832958568  0.5858913081872147  1.0000
  C   C7        1.0  0.5514538720317432  0.2787631785856631  0.08584658162126863  1.0000
  C   C8        1.0  0.9160601905317447  0.22129083662356652  0.4141081686891397  1.0000
  C   C9        1.0  0.3091056766522867  0.7008573868051612  0.9225375702476911  1.0000
  C   C10       1.0  0.9325159637429933  0.7990874812433117  0.5775160358746945  1.0000
  C   C11       1.0  0.6908944742432156  0.29914358611875963  0.0774616607786954  1.0000
  C   C12       1.0  0.06748550216970978  0.20091233941427325  0.4224825787591016  1.0000
  C   C13       1.0  0.17547818341560623  0.8292421554841878  0.8863717529767573  1.0000
  C   C14       1.0  0.8910998057033057  0.6706983828068328  0.6136529488494775  1.0000
  C   C15       1.0  0.8245211060110618  0.17075881670157855  0.11362834029218047  1.0000
  C   C16       1.0  0.10890003045924601  0.32930143740698975  0.38634614172804055  1.0000
  C   C17       1.0  0.18503897584525208  0.9754059789400812  0.8412933763341855  1.0000
  C   C18       1.0  0.001745125821095391  0.5245345732340495  0.6587043028898947  1.0000
  C   C19       1.0  0.8149619889594318  0.024592686942284593  0.15870759493352443  1.0000
  C   C20       1.0  0.9982554786227595  0.47546524668537427  0.3412951739864597  1.0000
  C   C21       1.0  0.05082365054567346  0.11658303692276915  0.7960754051472776  1.0000
  C   C22       1.0  0.9635500683867019  0.3833294875779387  0.703912802770091  1.0000
  C   C23       1.0  0.9491756388809875  0.8834179352629972  0.20392468812165998  1.0000
  C   C24       1.0  0.03644967458831877  0.6166703316033305  0.2960875363488143  1.0000
  C   C25       1.0  0.9030350479390494  0.11324260099168977  0.8001098806021504  1.0000
  C   C26       1.0  0.816435721961412  0.38663098276510494  0.6999049814545517  1.0000
  C   C27       1.0  0.0969650097689226  0.8867583708996843  0.19989059896562378  1.0000
  C   C28       1.0  0.18356488248245023  0.6133688371543184  0.3000944954217958  1.0000
  C   C29       1.0  0.7860576059152323  0.2499465698924155  0.7500181583615272  1.0000
  C   C30       1.0  0.21394376680993324  0.750053249732609  0.24998170481366344  1.0000
  C   C31       1.0  0.6281531366044034  0.24995775050800245  0.7500079145408876  1.0000
  C   C32       1.0  0.3718466995581478  0.7500420697058202  0.24999117603663024  1.0000
  N   N1        1.0  0.18952637426936988  0.33987834699600933  0.9921426031157097  1.0000
  N   N2        1.0  0.5215845855438271  0.16013299800453495  0.5078508958010985  1.0000
  N   N3        1.0  0.8104741369869615  0.6601214718908606  0.007858122302032207  1.0000
  N   N4        1.0  0.4784151574311861  0.8398668211767343  0.49214944331780686  1.0000
  N   N5        1.0  0.07835582530490381  0.2499669909142311  0.749982685791217  1.0000
  N   N6        1.0  0.9216439176701172  0.7500328282670309  0.25001765332768866  1.0000
  N   N7        1.0  0.3211994545532306  0.9942549632311068  0.8333697046819211  1.0000
  N   N8        1.0  0.14884309276889243  0.5056933520812023  0.6666214342241689  1.0000
  N   N9        1.0  0.6788001952342597  0.005744854917601598  0.16663188297837198  1.0000
  N   N10       1.0  0.851157418487439  0.49430646680566753  0.3333792911935731  1.0000
  O   O1        1.0  0.5759410880960443  0.14293699632421655  0.8321720782241117  1.0000
  O   O2        1.0  0.5511105394565732  0.357022852518682  0.6678491316382776  1.0000
  O   O3        1.0  0.4240595163478176  0.8570628235952068  0.16782739865224275  1.0000
  O   O4        1.0  0.44889006498728884  0.6429769674007415  0.3321503452380697  1.0000
  O   O5        1.0  0.2763781768813375  0.40963796227249105  0.8915097224581885  1.0000
  O   O6        1.0  0.5775847102884057  0.0903963302424202  0.6084732090126578  1.0000
  O   O7        1.0  0.7236236037643238  0.5903630110951995  0.10848903262447615  1.0000
  O   O8        1.0  0.4224142644053049  0.909603489233241  0.39152674380741115  1.0000
  O   O9        1.0  0.17443548600247263  0.22816989474910795  0.9768922088609316  1.0000
  O   O10       1.0  0.37956732779875335  0.27189415131335426  0.5230982987072466  1.0000
  O   O11       1.0  0.8255658867226996  0.7718299248759166  0.02310765431425925  1.0000
  O   O12       1.0  0.6204303318777633  0.7281068204286567  0.4769022705054056  1.0000
  O   O13       1.0  0.12603374457614083  0.37633024890466515  0.09661727996609673  1.0000
  O   O14       1.0  0.5989314142166435  0.12361735345682937  0.4033998856533501  1.0000
  O   O15       1.0  0.8739671746006795  0.6236707237248635  0.9033823373591262  1.0000
  O   O16       1.0  0.40106828313050596  0.8763847724715955  0.5965990995230614  1.0000
