data_image0
_chemical_formula_structural       Co2H24C28S6N8Cl4
_chemical_formula_sum              "Co2 H24 C28 S6 N8 Cl4"
_cell_length_a       8.448917592910561
_cell_length_b       9.038143820655758
_cell_length_c       11.968346391655059
_cell_angle_alpha    104.9699970701684
_cell_angle_beta     95.11434296400306
_cell_angle_gamma    101.86283783907375

_space_group_name_H-M_alt    "P 1"
_space_group_IT_number       1

loop_
  _space_group_symop_operation_xyz
  'x, y, z'

loop_
  _atom_site_type_symbol
  _atom_site_label
  _atom_site_symmetry_multiplicity
  _atom_site_fract_x
  _atom_site_fract_y
  _atom_site_fract_z
  _atom_site_occupancy
  Co  Co1       1.0  0.1931231100747368  0.6463870263545956  0.8386287247531501  1.0000
  Co  Co2       1.0  0.8068823256883276  0.3536136994021036  0.161369178284275  1.0000
  H   H1        1.0  0.058663259491353946  0.6534195514083124  0.6072459053206601  1.0000
  H   H2        1.0  0.9413329773525803  0.3465776379199427  0.3927540604129832  1.0000
  H   H3        1.0  0.7849120762574061  0.5623539290133907  0.47861568539084953  1.0000
  H   H4        1.0  0.21508742790884847  0.43764209213514255  0.5213817421391624  1.0000
  H   H5        1.0  0.5448585040910743  0.4212140594350373  0.5514978948347605  1.0000
  H   H6        1.0  0.45514129455709457  0.5787831234853371  0.4485014549850206  1.0000
  H   H7        1.0  0.864570185978998  0.48427899057520574  0.8692804487100433  1.0000
  H   H8        1.0  0.13543138615612801  0.5157252577646149  0.13072126309640456  1.0000
  H   H9        1.0  0.43254262821817235  0.40078662952498695  0.7406713947517717  1.0000
  H   H10       1.0  0.5674580574732744  0.5992140904136749  0.259328719163527  1.0000
  H   H11       1.0  0.5713553960518851  0.4075955711983782  0.8637673188429036  1.0000
  H   H12       1.0  0.4286458804021507  0.5924074981353442  0.13623413826503142  1.0000
  H   H13       1.0  0.36847327389336487  0.9825726847698635  0.8990862432268475  1.0000
  H   H14       1.0  0.6315226635252174  0.0174280552021528  0.10091358017943014  1.0000
  H   H15       1.0  0.3878395730538812  0.22694841429801477  0.06265951326388831  1.0000
  H   H16       1.0  0.6121602212504413  0.7730534896550838  0.9373407827226574  1.0000
  H   H17       1.0  0.21726299290658346  0.20992308355560144  0.2224440716554739  1.0000
  H   H18       1.0  0.7827356143295178  0.7900788254058357  0.77755615170382  1.0000
  H   H19       1.0  0.018477109467468715  0.7196803657435994  0.0397512544983769  1.0000
  H   H20       1.0  0.9815244676110948  0.28031917018062563  0.9602486773456749  1.0000
  H   H21       1.0  0.8593511599249126  0.8880251813775646  0.18236597641855215  1.0000
  H   H22       1.0  0.140650711035974  0.1119755077013664  0.8176367115108932  1.0000
  H   H23       1.0  0.9804130234747747  0.0654330869169399  0.2838081437222328  1.0000
  H   H24       1.0  0.01958944004746855  0.9345699774084438  0.716193386012961  1.0000
  C   C1        1.0  0.9502380314935336  0.5931175234982718  0.6348194680411512  1.0000
  C   C2        1.0  0.04976028500491482  0.4068784940414716  0.3651787206572339  1.0000
  C   C3        1.0  0.7988012713573127  0.5415733789648345  0.5641162996914632  1.0000
  C   C4        1.0  0.2011985278904476  0.4584238125726686  0.43588221633267926  1.0000
  C   C5        1.0  0.6651172333040946  0.4655322789171451  0.6048379640396108  1.0000
  C   C6        1.0  0.33488464065473517  0.5344684532474347  0.39516055491168345  1.0000
  C   C7        1.0  0.685910889804923  0.4437449710598359  0.7164581988878851  1.0000
  C   C8        1.0  0.3140892039247447  0.5562533822495014  0.28354223942602635  1.0000
  C   C9        1.0  0.842354128609223  0.4982548189188876  0.7818122806807183  1.0000
  C   C10       1.0  0.1576456656950924  0.5017470850342107  0.2181880153058273  1.0000
  C   C11       1.0  0.5455929997362858  0.3695839974363438  0.7677544022524219  1.0000
  C   C12       1.0  0.454407389674472  0.6304155348790843  0.23224629076000278  1.0000
  C   C13       1.0  0.36953639330234006  0.09942779352007851  0.6012047136047514  1.0000
  C   C14       1.0  0.6304639943096504  0.9005717129439648  0.3987984807945609  1.0000
  C   C15       1.0  0.29538946740305516  0.9819999349163171  0.9696661934894808  1.0000
  C   C16       1.0  0.7046076582829174  0.018000817281624407  0.030332034952792217  1.0000
  C   C17       1.0  0.30452167425045223  0.1166017817641389  0.06029313499166732  1.0000
  C   C18       1.0  0.6954801979096173  0.8833989245490557  0.9397078853465146  1.0000
  C   C19       1.0  0.20800940547135843  0.1076153446783934  0.1481509089572981  1.0000
  C   C20       1.0  0.7919892023643343  0.892386572900172  0.8518484806063641  1.0000
  C   C21       1.0  0.09990656651909562  0.9646237322653095  0.14085914541885816  1.0000
  C   C22       1.0  0.9000911511286488  0.0353793865619494  0.8591387586247878  1.0000
  C   C23       1.0  0.09919602094122137  0.8342175078111185  0.04757590920581128  1.0000
  C   C24       1.0  0.9008034776820038  0.165783217135882  0.9524241320822286  1.0000
  C   C25       1.0  0.9835968363732662  0.9497478967352249  0.22735441528901393  1.0000
  C   C26       1.0  0.0164005819958604  0.0502539913831512  0.7726482368299089  1.0000
  C   C27       1.0  0.17257896335657827  0.964817293707654  0.4299674257194966  1.0000
  C   C28       1.0  0.8274261749266287  0.035182227191555206  0.5700327240063174  1.0000
  S   S1        1.0  0.5024330364055415  0.15429393131216074  0.7324765672388126  1.0000
  S   S2        1.0  0.49756468138893695  0.8457044061624616  0.26752622720748326  1.0000
  S   S3        1.0  0.025937812060512083  0.8283818520847036  0.32116889806102483  1.0000
  S   S4        1.0  0.9740655428488624  0.17162002822625064  0.6788324496029221  1.0000
  S   S5        1.0  0.26515970984027604  0.9021346976094407  0.5397822586613259  1.0000
  S   S6        1.0  0.7348403826902228  0.09786363846563263  0.4602198472438488  1.0000
  N   N1        1.0  0.9721830567184921  0.571637029524126  0.7422168515581974  1.0000
  N   N2        1.0  0.02781703206773763  0.4283660362008065  0.25778536671811747  1.0000
  N   N3        1.0  0.19562898750423596  0.8416158559334408  0.9643508162445756  1.0000
  N   N4        1.0  0.8043702148383145  0.15838368139032613  0.03564980414058991  1.0000
  N   N5        1.0  0.33482404473864597  0.19319688735301102  0.5399169747216704  1.0000
  N   N6        1.0  0.6651796095960807  0.8068014423141748  0.46008451526964234  1.0000
  N   N7        1.0  0.22161912302922807  0.11645182465993291  0.44198690404827806  1.0000
  N   N8        1.0  0.7783872023221933  0.8835476912309372  0.5580133183047878  1.0000
  Cl  Cl1       1.0  0.37486475953986803  0.701920313716478  0.7252677995543169  1.0000
  Cl  Cl2       1.0  0.6251365187129281  0.2980827814686436  0.27473115616673033  1.0000
  Cl  Cl3       1.0  0.2348570723036616  0.4653421302567581  0.9253647510857945  1.0000
  Cl  Cl4       1.0  0.7651406502875203  0.5346562761549053  0.07463137299545511  1.0000
