data_image0
_chemical_formula_structural       Zn2H20C12S2N4O14
_chemical_formula_sum              "Zn2 H20 C12 S2 N4 O14"
_cell_length_a       6.657578084012693
_cell_length_b       8.28242351579663
_cell_length_c       9.867719480589265
_cell_angle_alpha    92.08086730140218
_cell_angle_beta     90.00021707881078
_cell_angle_gamma    90.00004404901803

_space_group_name_H-M_alt    "P 1"
_space_group_IT_number       1

loop_
  _space_group_symop_operation_xyz
  'x, y, z'

loop_
  _atom_site_type_symbol
  _atom_site_label
  _atom_site_symmetry_multiplicity
  _atom_site_fract_x
  _atom_site_fract_y
  _atom_site_fract_z
  _atom_site_occupancy
  Zn  Zn1       1.0  0.599083430538009  0.2826358872872133  0.2045406269570051  1.0000
  Zn  Zn2       1.0  0.09908515018755538  0.7173638654772174  0.7954581230674833  1.0000
  H   H1        1.0  0.5989783782051249  0.683639328796765  0.16816068471057116  1.0000
  H   H2        1.0  0.0989754096868936  0.31635922382099574  0.8318349859885997  1.0000
  H   H3        1.0  0.6037661231512885  0.4663206118401532  0.9987229112317451  1.0000
  H   H4        1.0  0.1037677251199653  0.5336743143465623  0.0012746812356425959  1.0000
  H   H5        1.0  0.41390420947953277  0.3493447295813397  0.9911644032829585  1.0000
  H   H6        1.0  0.9139077561380871  0.6506492109862518  0.008834965312807691  1.0000
  H   H7        1.0  0.5991734976507884  0.9993760788767643  0.061505970719863995  1.0000
  H   H8        1.0  0.09917382676443512  0.0006224549813537997  0.9384967937319145  1.0000
  H   H9        1.0  0.8058129368606756  0.04393450328160499  0.12916142870002997  1.0000
  H   H10       1.0  0.3058138061858813  0.9560641752562089  0.8708438966793252  1.0000
  H   H11       1.0  0.632003136116687  0.9855967707751598  0.3794071267511043  1.0000
  H   H12       1.0  0.1320062044966761  0.014404205967679197  0.6205947874397637  1.0000
  H   H13       1.0  0.6467854628204606  0.9338181434461743  0.6294118890728626  1.0000
  H   H14       1.0  0.1467826749273229  0.06618042769129318  0.37058998515956887  1.0000
  H   H15       1.0  0.6239484257276757  0.16990577126883719  0.7950983159655891  1.0000
  H   H16       1.0  0.1239439428185349  0.830096410491329  0.20490260315473557  1.0000
  H   H17       1.0  0.5910549646056538  0.4487410968391997  0.7050391092639074  1.0000
  H   H18       1.0  0.09104921572168222  0.5512574446221236  0.29495856758603617  1.0000
  H   H19       1.0  0.5873744876691234  0.6287310914723746  0.5098181181593374  1.0000
  H   H20       1.0  0.08738017315491219  0.3712795317179455  0.49017892672846125  1.0000
  C   C1        1.0  0.6257513936373513  0.08400767199334065  0.4557575067492579  1.0000
  C   C2        1.0  0.12574739149115993  0.9159945110764764  0.5442434170334352  1.0000
  C   C3        1.0  0.6312192220965257  0.05633374587449678  0.5943588357321374  1.0000
  C   C4        1.0  0.13121597250202646  0.9436648139571914  0.40564299825171446  1.0000
  C   C5        1.0  0.6197198654010092  0.18764912964599734  0.6863337267936416  1.0000
  C   C6        1.0  0.11971297036720328  0.8123518435727346  0.3136661289836908  1.0000
  C   C7        1.0  0.6029779782414125  0.3427039706575812  0.6371103285032973  1.0000
  C   C8        1.0  0.10297421378477618  0.6572982012729369  0.36288850975578407  1.0000
  C   C9        1.0  0.6012126893760693  0.3619056332821344  0.4970917905474934  1.0000
  C   C10       1.0  0.10121269459497738  0.6380977482377685  0.5029060689175822  1.0000
  C   C11       1.0  0.5909386027305529  0.5222205384213294  0.44090012566631737  1.0000
  C   C12       1.0  0.09094327454784691  0.47778766021623625  0.5591009035457546  1.0000
  S   S1        1.0  0.0975930214627283  0.2553539253382411  0.1257080651905298  1.0000
  S   S2        1.0  0.5975909904448783  0.7446434019017473  0.8742936427651955  1.0000
  N   N1        1.0  0.6123455566157148  0.23331491485968298  0.40828783262073637  1.0000
  N   N2        1.0  0.11234768484710139  0.7666872638765623  0.5917110298667296  1.0000
  N   N3        1.0  0.5908856732640474  0.5345177556854919  0.3109949821087952  1.0000
  N   N4        1.0  0.0908865545235358  0.46548803197346433  0.6890039421484531  1.0000
  O   O1        1.0  0.5846476275301099  0.6902832769768494  0.269400215143726  1.0000
  O   O2        1.0  0.08464408571933288  0.3097200979114517  0.7305955748451325  1.0000
  O   O3        1.0  0.2675454908290646  0.26373579706143596  0.2227325416190453  1.0000
  O   O4        1.0  0.7675444105038025  0.7362652727222778  0.7772717496651183  1.0000
  O   O5        1.0  0.16226766459703162  0.33565182903092944  0.9963951672980115  1.0000
  O   O6        1.0  0.6622666889985495  0.6643443397126134  0.0036056554749421955  1.0000
  O   O7        1.0  0.0436918592983346  0.08420270370199749  0.090949397253226  1.0000
  O   O8        1.0  0.5436916896015943  0.9157945789900378  0.909054197979465  1.0000
  O   O9        1.0  0.9226470134964586  0.34342606076834403  0.18437080634175365  1.0000
  O   O10       1.0  0.4226472855660647  0.6565727215272685  0.8156277278785138  1.0000
  O   O11       1.0  0.5616458778598314  0.35174437284779  0.008643941376192297  1.0000
  O   O12       1.0  0.0616486279734545  0.6482493172784198  0.991352489780276  1.0000
  O   O13       1.0  0.6585191858570171  0.041979075423704194  0.1483496892504732  1.0000
  O   O14       1.0  0.15851844756425487  0.9580194988358596  0.8516542419643612  1.0000
