data_image0
_chemical_formula_structural       Ho2H42C56O24
_chemical_formula_sum              "Ho2 H42 C56 O24"
_cell_length_a       9.629703262114058
_cell_length_b       11.46730443956416
_cell_length_c       12.448972175099884
_cell_angle_alpha    75.11850810840444
_cell_angle_beta     73.84098964796443
_cell_angle_gamma    73.0658216133308

_space_group_name_H-M_alt    "P 1"
_space_group_IT_number       1

loop_
  _space_group_symop_operation_xyz
  'x, y, z'

loop_
  _atom_site_type_symbol
  _atom_site_label
  _atom_site_symmetry_multiplicity
  _atom_site_fract_x
  _atom_site_fract_y
  _atom_site_fract_z
  _atom_site_occupancy
  Ho  Ho1       1.0  0.27826268731319465  0.4545270343209607  0.05576940292399969  1.0000
  Ho  Ho2       1.0  0.7217371908872324  0.5454742554238196  0.944230348102472  1.0000
  H   H1        1.0  0.2102847566451445  0.1900468715192929  0.26336970354990535  1.0000
  H   H2        1.0  0.7897145733946334  0.8099525531807641  0.7366298138050523  1.0000
  H   H3        1.0  0.4862213115674125  0.42623397656341655  0.1959312630401513  1.0000
  H   H4        1.0  0.5137777709621432  0.5737663784427339  0.804069693341418  1.0000
  H   H5        1.0  0.3991439881266388  0.3182808522756631  0.25830517020494875  1.0000
  H   H6        1.0  0.6008591222328051  0.6817167355939587  0.7416939418999391  1.0000
  H   H7        1.0  0.15345370164502017  0.3876718327733215  0.8934478571333029  1.0000
  H   H8        1.0  0.8465478106067583  0.6123276072435856  0.10655277511872198  1.0000
  H   H9        1.0  0.05318182969091372  0.35057585195725943  0.013000800860261608  1.0000
  H   H10       1.0  0.9468169693847415  0.6494254309355723  0.9869991931752368  1.0000
  H   H11       1.0  0.09474574900950473  0.26554307109966396  0.4377361095520413  1.0000
  H   H12       1.0  0.9052533095576007  0.7344572822935476  0.5622632459144085  1.0000
  H   H13       1.0  0.939022891992522  0.2618525976716697  0.6364284904116743  1.0000
  H   H14       1.0  0.06097670275400453  0.7381496199597989  0.3635702982687333  1.0000
  H   H15       1.0  0.7070327367415601  0.42699886339413956  0.6725360674892612  1.0000
  H   H16       1.0  0.2929641635759951  0.5730014762951682  0.32746377399524107  1.0000
  H   H17       1.0  0.6246542157253431  0.5875570888132343  0.5123659314476399  1.0000
  H   H18       1.0  0.37534479491686296  0.412443261354099  0.48763022218855673  1.0000
  H   H19       1.0  0.8002143110939314  0.7691782006800237  0.39366784955267786  1.0000
  H   H20       1.0  0.19978154082722452  0.23081841214570886  0.6063347264190426  1.0000
  H   H21       1.0  0.6371260202510386  0.9846187545254923  0.3894497293166379  1.0000
  H   H22       1.0  0.3628701390864748  0.015376932026505596  0.610555409916273  1.0000
  H   H23       1.0  0.3599375923071833  0.8966860753050628  0.2184787760033798  1.0000
  H   H24       1.0  0.6400638959821451  0.1033133630989056  0.7815202553335182  1.0000
  H   H25       1.0  0.5282331934688784  0.6839067995087618  0.21656592677090455  1.0000
  H   H26       1.0  0.4717722919219583  0.3160935917702901  0.7834287688111203  1.0000
  H   H27       1.0  0.4437545061946438  0.9492180499652105  0.9553350111828605  1.0000
  H   H28       1.0  0.5562456794221333  0.05078231350583448  0.044667303104802145  1.0000
  H   H29       1.0  0.2606747720791134  0.1415524316956152  0.011905517632683897  1.0000
  H   H30       1.0  0.7393275957496642  0.8584479470922728  0.988097911552046  1.0000
  H   H31       1.0  0.936850457770824  0.9250583202659968  0.1870509797278713  1.0000
  H   H32       1.0  0.0631521455869475  0.074941127409339  0.8129502099726834  1.0000
  H   H33       1.0  0.11977461267362338  0.7343353414128231  0.13254781274382313  1.0000
  H   H34       1.0  0.8802266161242542  0.26566502649076534  0.8674518571621233  1.0000
  H   H35       1.0  0.013501524980242213  0.990682963362538  0.3316198501860723  1.0000
  H   H36       1.0  0.9864967498972137  0.009316456098510199  0.6683815110930382  1.0000
  H   H37       1.0  0.841843408534814  0.022250368743435393  0.5168911025690619  1.0000
  H   H38       1.0  0.1581556739947417  0.977749986262715  0.48310985381250743  1.0000
  H   H39       1.0  0.6351964012357386  0.2129955373892116  0.5283175412343724  1.0000
  H   H40       1.0  0.36480240982113815  0.7870057463100864  0.4716832532586891  1.0000
  H   H41       1.0  0.6069328775063242  0.37260226215718  0.352215624087563  1.0000
  H   H42       1.0  0.39306702465655263  0.6273990292005464  0.6477857278540354  1.0000
  C   C1        1.0  0.05128530942156571  0.43155805790273405  0.2504262099132504  1.0000
  C   C2        1.0  0.9487153592344342  0.5684404441496651  0.7495724258636185  1.0000
  C   C3        1.0  0.9491030593845127  0.42786043457770256  0.3644194096763371  1.0000
  C   C4        1.0  0.05089109857917869  0.5721380239435587  0.6355782827820204  1.0000
  C   C5        1.0  0.9907806319512604  0.33498421872408096  0.4555649848360515  1.0000
  C   C6        1.0  0.009214345645759252  0.6650151761487563  0.5444331031823352  1.0000
  C   C7        1.0  0.904822312046953  0.33344810368885186  0.5658449852021902  1.0000
  C   C8        1.0  0.09517321371070868  0.6665531562287084  0.4341533364877108  1.0000
  C   C9        1.0  0.7738090705099411  0.42522512097588827  0.5862856068548792  1.0000
  C   C10       1.0  0.2261880892990718  0.574774289213792  0.4137135960605746  1.0000
  C   C11       1.0  0.7279889614728745  0.5169505583862845  0.49678104919163263  1.0000
  C   C12       1.0  0.27201061607713234  0.4830479360076866  0.5032170291367066  1.0000
  C   C13       1.0  0.8150015327091044  0.5184998613681984  0.3862411978700563  1.0000
  C   C14       1.0  0.1849961393168797  0.4815014114467999  0.6137558373442289  1.0000
  C   C15       1.0  0.6720842879978264  0.7158805724290003  0.3049471935279088  1.0000
  C   C16       1.0  0.3279161211667301  0.2841188591230121  0.6950520808180158  1.0000
  C   C17       1.0  0.7042183377305945  0.7986555088071514  0.3548037632352388  1.0000
  C   C18       1.0  0.2957810350187771  0.2013401966877666  0.6451990460554667  1.0000
  C   C19       1.0  0.6130330372563793  0.917841815042678  0.35295705507910186  1.0000
  C   C20       1.0  0.3869674146177644  0.08215389730418819  0.6470455112025703  1.0000
  C   C21       1.0  0.48860173240119326  0.9539708739591363  0.30378493974591675  1.0000
  C   C22       1.0  0.5113963017319564  0.04602575418344659  0.6962187511228703  1.0000
  C   C23       1.0  0.4567595874678929  0.8690053354056814  0.2560020604985381  1.0000
  C   C24       1.0  0.5432389469010063  0.13099315455573898  0.7439986622115169  1.0000
  C   C25       1.0  0.5489537492554178  0.7503910383953354  0.25534031042253946  1.0000
  C   C26       1.0  0.4510464004176813  0.2496093226562975  0.7446596024924403  1.0000
  C   C27       1.0  0.39462467325543565  0.08223617847706069  0.30165786443006937  1.0000
  C   C28       1.0  0.6053763028169145  0.9177613973015893  0.6983433346079976  1.0000
  C   C29       1.0  0.411381190483205  0.7163572361571012  0.019774050847551898  1.0000
  C   C30       1.0  0.588621937072766  0.28364407495001825  0.9802257716093903  1.0000
  C   C31       1.0  0.2950803834975347  0.8297306211312474  0.04309835515073953  1.0000
  C   C32       1.0  0.7049219244251149  0.1702697536242965  0.9569010717461877  1.0000
  C   C33       1.0  0.33261356405062514  0.945261712399656  0.006168565594052206  1.0000
  C   C34       1.0  0.6673887917969168  0.054738665581766086  0.9938340631331143  1.0000
  C   C35       1.0  0.23222057393887507  0.05164668196438529  0.03741434059292458  1.0000
  C   C36       1.0  0.7677831444873465  0.9483527749823107  0.9625890074712868  1.0000
  C   C37       1.0  0.0924351336555631  0.04189764062495979  0.10663893723116048  1.0000
  C   C38       1.0  0.9075669627005355  0.9581036668560826  0.8933643300650614  1.0000
  C   C39       1.0  0.049141283028348026  0.9292065623005071  0.1385702369492847  1.0000
  C   C40       1.0  0.9508599697319796  0.0707938072160204  0.8614310338717884  1.0000
  C   C41       1.0  0.1513878796139708  0.8229979599398759  0.10697822619901129  1.0000
  C   C42       1.0  0.8486144522711285  0.17700241642860698  0.8930228016130356  1.0000
  C   C43       1.0  0.9041118547292655  0.16180531098092388  0.2371118002796706  1.0000
  C   C44       1.0  0.09588830692506187  0.8381950508771823  0.7628889130928725  1.0000
  C   C45       1.0  0.9218837356008293  0.07277664442986519  0.33620066211450716  1.0000
  C   C46       1.0  0.07811346015184746  0.9272227681792272  0.6638009421736298  1.0000
  C   C47       1.0  0.8253695204171407  0.09156289157227347  0.4401320869752822  1.0000
  C   C48       1.0  0.17462984556631506  0.9084365355471961  0.5598698317523585  1.0000
  C   C49       1.0  0.7096579164538994  0.19835312737927063  0.44698992308842367  1.0000
  C   C50       1.0  0.29034169027385553  0.801649091058664  0.5530096660495332  1.0000
  C   C51       1.0  0.6933791603798198  0.286905921386996  0.34906128490217714  1.0000
  C   C52       1.0  0.306619355241935  0.7130962893925172  0.6509377467872496  1.0000
  C   C53       1.0  0.7895682863781559  0.2717954551332937  0.2431960184327834  1.0000
  C   C54       1.0  0.21043052467872073  0.7282058285660041  0.7568047760602779  1.0000
  C   C55       1.0  0.7699971025585981  0.3738931798141606  0.1441741384282835  1.0000
  C   C56       1.0  0.23000307107695772  0.6261071828504183  0.8558273754018161  1.0000
  O   O1        1.0  0.05838840955538422  0.5352058356151728  0.18286890697369523  1.0000
  O   O2        1.0  0.9416114394672875  0.46479173008565067  0.8171293332431515  1.0000
  O   O3        1.0  0.1383824100502196  0.331291364696277  0.21944076041480537  1.0000
  O   O4        1.0  0.8616185180972309  0.6687062078564947  0.7805572367930084  1.0000
  O   O5        1.0  0.7666454717282322  0.6005425320094274  0.2938882361193435  1.0000
  O   O6        1.0  0.23335598061741797  0.39945690397512823  0.7061083938448717  1.0000
  O   O7        1.0  0.4338537443748934  0.16555653238069104  0.32399699299072887  1.0000
  O   O8        1.0  0.5661490825306504  0.8344419833756118  0.6760011567680876  1.0000
  O   O9        1.0  0.2649622956542004  0.0987248138657151  0.2741498540405941  1.0000
  O   O10       1.0  0.7350381254915774  0.9012746184927636  0.7258502207629006  1.0000
  O   O11       1.0  0.3771628642782332  0.611151709477987  0.04751219084599256  1.0000
  O   O12       1.0  0.622838352538416  0.3888486576191283  0.9524866786023977  1.0000
  O   O13       1.0  0.545162626849283  0.725876237659179  0.976021430338214  1.0000
  O   O14       1.0  0.4548391501092368  0.27412599528913967  0.023978473239253607  1.0000
  O   O15       1.0  0.9989120931402412  0.1518637786408448  0.13336923711310789  1.0000
  O   O16       1.0  0.0010902507260866522  0.8481365985341112  0.8666325911564954  1.0000
  O   O17       1.0  0.8693587277983781  0.3779835881554874  0.05162203991450554  1.0000
  O   O18       1.0  0.1306411623832702  0.622017702395766  0.9483785115695296  1.0000
  O   O19       1.0  0.6506310033373169  0.4621851766950654  0.14939886993688845  1.0000
  O   O20       1.0  0.3493697064776597  0.5378170502077636  0.850602077107169  1.0000
  O   O21       1.0  0.3874708707693273  0.4051029390985549  0.21443513007287854  1.0000
  O   O22       1.0  0.6125308889926729  0.594895570612259  0.7855640631525272  1.0000
  O   O23       1.0  0.15696051791172047  0.358517706122555  0.9739357489081613  1.0000
  O   O24       1.0  0.8430396317613782  0.641482654929078  0.02606416400681879  1.0000
