data_image0
_chemical_formula_structural       Ag8H40C32S16N16O24
_chemical_formula_sum              "Ag8 H40 C32 S16 N16 O24"
_cell_length_a       7.708346969972955
_cell_length_b       11.340665013920619
_cell_length_c       21.4597
_cell_angle_alpha    96.76635024231324
_cell_angle_beta     97.22062564383613
_cell_angle_gamma    107.26052762985493

_space_group_name_H-M_alt    "P 1"
_space_group_IT_number       1

loop_
  _space_group_symop_operation_xyz
  'x, y, z'

loop_
  _atom_site_type_symbol
  _atom_site_label
  _atom_site_symmetry_multiplicity
  _atom_site_fract_x
  _atom_site_fract_y
  _atom_site_fract_z
  _atom_site_occupancy
  Ag  Ag1       1.0  0.2521569766342253  0.395674852282248  0.2480660658742337  1.0000
  Ag  Ag2       1.0  0.7478380009061638  0.6043207011714742  0.7519334771105548  1.0000
  Ag  Ag3       1.0  0.3620662577746785  0.6922107982528445  0.291383470332633  1.0000
  Ag  Ag4       1.0  0.6379343862608593  0.30778849918797857  0.7086156296197359  1.0000
  Ag  Ag5       1.0  0.9618361142983147  0.9620642841861837  0.2449823125776973  1.0000
  Ag  Ag6       1.0  0.03815755557666021  0.03793126926754551  0.7550171713684648  1.0000
  Ag  Ag7       1.0  0.8992937534972397  0.6797021373647141  0.2885361458247857  1.0000
  Ag  Ag8       1.0  0.100706890538298  0.3202971600761089  0.7114629541275832  1.0000
  H   H1        1.0  0.8350668438732854  0.32709530464588  0.3866694624117173  1.0000
  H   H2        1.0  0.16493336424628072  0.6729058647884827  0.613332064366297  1.0000
  H   H3        1.0  0.021954850576385406  0.2656901722824543  0.37360016500890947  1.0000
  H   H4        1.0  0.9780444857524843  0.734311933148689  0.6263999827190574  1.0000
  H   H5        1.0  0.8331968860273734  0.23782648431637202  0.3105463246561655  1.0000
  H   H6        1.0  0.16680114267733614  0.7621728131244511  0.6894549871676361  1.0000
  H   H7        1.0  0.551039309296975  0.7715271648840983  0.4415649364248607  1.0000
  H   H8        1.0  0.4489565399103698  0.22847587654381846  0.5584351121450126  1.0000
  H   H9        1.0  0.4563984385814237  0.6456047108835961  0.5387281060461575  1.0000
  H   H10       1.0  0.543602205371613  0.35440020253786747  0.4612722755551816  1.0000
  H   H11       1.0  0.020008180800722593  0.41349716685654414  0.04192305025426891  1.0000
  H   H12       1.0  0.979994642649679  0.5865040025778258  0.9580781286112625  1.0000
  H   H13       1.0  0.9854781349467244  0.28873909284293126  0.0882653826448063  1.0000
  H   H14       1.0  0.014522944963537976  0.7112611405946652  0.9117356592243127  1.0000
  H   H15       1.0  0.2132569989431659  0.3648262706037855  0.0732519886563452  1.0000
  H   H16       1.0  0.7867432092176543  0.635172090840264  0.926747965317702  1.0000
  H   H17       1.0  0.5496775082940388  0.8960306477751772  0.2056673199340366  1.0000
  H   H18       1.0  0.4503187768292705  0.10397052165919261  0.794332631758877  1.0000
  H   H19       1.0  0.5042315336865784  0.8828621091613584  0.0806522280290451  1.0000
  H   H20       1.0  0.49576823859950986  0.1171353162859177  0.9193476479872159  1.0000
  H   H21       1.0  0.9724049576468587  0.7938637918995397  0.03709664798006429  1.0000
  H   H22       1.0  0.02760004525966051  0.2061364415380567  0.962904571004934  1.0000
  H   H23       1.0  0.03607453144852002  0.9518572393653884  0.07746709557942208  1.0000
  H   H24       1.0  0.9639287279178603  0.048142058075434604  0.9225335204194138  1.0000
  H   H25       1.0  0.798398217633391  0.8574086128883991  0.06346315772243118  1.0000
  H   H26       1.0  0.201605477607707  0.1425916205491973  0.9365361382649836  1.0000
  H   H27       1.0  0.6304480237692759  0.42497810328679014  0.2041431295360852  1.0000
  H   H28       1.0  0.369549133103476  0.5750249381411267  0.7958555801032006  1.0000
  H   H29       1.0  0.533921891650266  0.36137899448503674  0.0789531335060047  1.0000
  H   H30       1.0  0.46608049592541084  0.6386212389525596  0.9210447054735624  1.0000
  H   H31       1.0  0.5345977097513881  0.0813287596954169  0.3792285881715713  1.0000
  H   H32       1.0  0.46540337015887445  0.9186714737421725  0.620771521718062  1.0000
  H   H33       1.0  0.3692732618375558  0.1564724527080514  0.35002116106354464  1.0000
  H   H34       1.0  0.6307247668671536  0.8435268447327716  0.6499792187807785  1.0000
  H   H35       1.0  0.5075875105710494  0.10651362489423381  0.2982419911531764  1.0000
  H   H36       1.0  0.4924126975485166  0.893487544540136  0.7017581376556237  1.0000
  H   H37       1.0  0.8820057161366108  0.6977172672744558  0.4410485961271462  1.0000
  H   H38       1.0  0.1179953637736517  0.3022829661631334  0.5589510477727515  1.0000
  H   H39       1.0  0.0911874997810784  0.8855952197415249  0.5356734064016067  1.0000
  H   H40       1.0  0.90881532371057  0.1144031417025246  0.46432619965996486  1.0000
  C   C1        1.0  0.9188684777627786  0.30453216641112857  0.352244674174031  1.0000
  C   C2        1.0  0.0811304226913663  0.6954690030232413  0.6477558615858783  1.0000
  C   C3        1.0  0.1897165817883462  0.5308992422230574  0.3873320350656613  1.0000
  C   C4        1.0  0.8102805750844126  0.4691037992048592  0.6126680725428386  1.0000
  C   C5        1.0  0.4361137556022854  0.6873267670859562  0.43981220664277026  1.0000
  C   C6        1.0  0.5638847089358876  0.3126762743419604  0.5601884259940988  1.0000
  C   C7        1.0  0.3892409565105552  0.6258083791128684  0.4892424320011628  1.0000
  C   C8        1.0  0.6107596874837355  0.3741937263182749  0.5107577747654304  1.0000
  C   C9        1.0  0.0821049445943061  0.3775642507015533  0.0812913098387824  1.0000
  C   C10       1.0  0.9178978788561026  0.6224369187328165  0.9187094030370134  1.0000
  C   C11       1.0  0.2692182958622666  0.6188586030657035  0.1429984579674652  1.0000
  C   C12       1.0  0.7307801687171533  0.3811416303718929  0.857001999834651  1.0000
  C   C13       1.0  0.4624735353067992  0.815532117218318  0.1713398001239597  1.0000
  C   C14       1.0  0.5375288523101317  0.1844653082289511  0.8286601939695543  1.0000
  C   C15       1.0  0.44059463144874655  0.8099404724902683  0.10685012553595638  1.0000
  C   C16       1.0  0.5594138586205517  0.19005601696022723  0.8931491538134323  1.0000
  C   C17       1.0  0.9409363698970239  0.8569761823788014  0.0736199832115361  1.0000
  C   C18       1.0  0.059066017678659904  0.143024051058795  0.9263801857167309  1.0000
  C   C19       1.0  0.8270454417617047  0.6659092889026184  0.1408780520160278  1.0000
  C   C20       1.0  0.17295345873369433  0.3340890725414313  0.8591209109399216  1.0000
  C   C21       1.0  0.672787169048526  0.48498579246658846  0.16942415163851618  1.0000
  C   C22       1.0  0.3272073725758915  0.5150116329806806  0.8305759542129678  1.0000
  C   C23       1.0  0.6227106173092665  0.4512590207079867  0.1049963178843427  1.0000
  C   C24       1.0  0.37728653960473935  0.5487412127296096  0.8950012849407116  1.0000
  C   C25       1.0  0.4362694840692001  0.0859656877139585  0.3387456797053403  1.0000
  C   C26       1.0  0.563730724050366  0.9140354817204113  0.6612544491034598  1.0000
  C   C27       1.0  0.18462439792901367  0.8961373514074183  0.3809305059054964  1.0000
  C   C28       1.0  0.8153749384411029  0.1038619460334047  0.6190685350082461  1.0000
  C   C29       1.0  0.9959130808336099  0.7787539959763805  0.4372731183963268  1.0000
  C   C30       1.0  0.004087127327203206  0.221244365467669  0.562725903598249  1.0000
  C   C31       1.0  0.10098778229907177  0.871845427131028  0.4854035119169922  1.0000
  C   C32       1.0  0.899015041192584  0.1281529343130146  0.5145956281548366  1.0000
  S   S1        1.0  0.03077375756222271  0.4429473693546058  0.3211334189826331  1.0000
  S   S2        1.0  0.9692242711012328  0.5570547360765374  0.6788671356964429  1.0000
  S   S3        1.0  0.19732377126528897  0.4968804394709566  0.4634531165362574  1.0000
  S   S4        1.0  0.8026733856074703  0.5031226019569601  0.5365469910722425  1.0000
  S   S5        1.0  0.11390716132633122  0.48062030351251656  0.1551619626705687  1.0000
  S   S6        1.0  0.8860934827092066  0.5193789939283064  0.8448385352510143  1.0000
  S   S7        1.0  0.29398130730547933  0.6654525224768904  0.06970802175474941  1.0000
  S   S8        1.0  0.7060197726460373  0.3345449029703857  0.930291913300138  1.0000
  S   S9        1.0  0.9876860400873608  0.8139886585379443  0.1507257047001218  1.0000
  S   S10       1.0  0.012312860366783699  0.1860125108964255  0.8492743650700447  1.0000
  S   S11       1.0  0.7223651218289362  0.5741460371703155  0.06770172451909666  1.0000
  S   S12       1.0  0.27763508633187683  0.425852324273734  0.932297297475479  1.0000
  S   S13       1.0  0.2675315762357755  0.9337653577201764  0.31189100982647483  1.0000
  S   S14       1.0  0.7324681960090658  0.06623487571742  0.6881085750347964  1.0000
  S   S15       1.0  0.2656609308924232  0.9803134132894371  0.45647707237241525  1.0000
  S   S16       1.0  0.7343401490590936  0.019684012157839  0.5435223966927296  1.0000
  N   N1        1.0  0.2753388610948165  0.1564031889467756  0.1830005456281754  1.0000
  N   N2        1.0  0.7246596035258648  0.8435942365005005  0.817000203328938  1.0000
  N   N3        1.0  0.5833283233702602  0.4653036523022962  0.353879099703363  1.0000
  N   N4        1.0  0.4166670900036067  0.5346956451385196  0.6461202300842288  1.0000
  N   N5        1.0  0.7540309980369173  0.9379511352936378  0.3553895282577955  1.0000
  N   N6        1.0  0.24597051774807  0.0620500341407322  0.6446111255793738  1.0000
  N   N7        1.0  0.8012732289071849  0.1527003857087124  0.17846468732069812  1.0000
  N   N8        1.0  0.1987278510030706  0.847299847728884  0.8215363545484137  1.0000
  N   N9        1.0  0.3230956441340069  0.6331887136760913  0.38204873749640467  1.0000
  N   N10       1.0  0.6769010768640342  0.366813391755052  0.6179512921543022  1.0000
  N   N11       1.0  0.366791937682855  0.7073851779534125  0.1914330533226618  1.0000
  N   N12       1.0  0.6332095781021324  0.29261599148095746  0.8085671345247648  1.0000
  N   N13       1.0  0.7870042948044471  0.6062900383840386  0.18948377896769836  1.0000
  N   N14       1.0  0.21299460564970474  0.39371113105033123  0.8105144268435183  1.0000
  N   N15       1.0  0.043521841608814844  0.7929034592093843  0.37807319918490373  1.0000
  N   N16       1.0  0.9564779306360336  0.20709677422821227  0.6219259196866248  1.0000
  O   O1        1.0  0.19368194839232436  0.1687620903510592  0.2314289495260979  1.0000
  O   O2        1.0  0.8063165162283497  0.8312353350962169  0.7685708674515368  1.0000
  O   O3        1.0  0.34456307347743836  0.2527546968653667  0.1590980924466123  1.0000
  O   O4        1.0  0.6554397500142103  0.7472436645786829  0.8409015136149591  1.0000
  O   O5        1.0  0.2848532337915088  0.0513890308845362  0.1613936170681924  1.0000
  O   O6        1.0  0.7151469743693042  0.9486093305595064  0.8386063369058618  1.0000
  O   O7        1.0  0.5738928654687783  0.5096811313525863  0.3012737041830604  1.0000
  O   O8        1.0  0.42610734265078776  0.4903200380817836  0.6987268906154752  1.0000
  O   O9        1.0  0.4489164530793346  0.3758223607050867  0.3618676169623356  1.0000
  O   O10       1.0  0.5510802679599465  0.6241769367357364  0.6381313058741469  1.0000
  O   O11       1.0  0.7255798451504418  0.5116813564586877  0.3955097297728116  1.0000
  O   O12       1.0  0.2744146964739826  0.4883160689885885  0.604492706027365  1.0000
  O   O13       1.0  0.6993770048076726  0.8569041106271982  0.303975733101737  1.0000
  O   O14       1.0  0.3006218956877262  0.1430942508168513  0.6960236958439481  1.0000
  O   O15       1.0  0.9007844700253571  0.028413118072435902  0.360000521343423  1.0000
  O   O16       1.0  0.0992148663447665  0.97158617936838  0.6399985195703124  1.0000
  O   O17       1.0  0.6610661772936055  0.9267154300181846  0.3997175883693274  1.0000
  O   O18       1.0  0.3389379538222173  0.0732857394161854  0.6002822515656163  1.0000
  O   O19       1.0  0.7607108204960298  0.0889178215392477  0.22352619370423102  1.0000
  O   O20       1.0  0.23929069528895747  0.9110833478951221  0.7764753921124168  1.0000
  O   O21       1.0  0.8203903334814697  0.09962281664382293  0.1258778128712095  1.0000
  O   O22       1.0  0.17960769522323258  0.900376480796993  0.8741234989525993  1.0000
  O   O23       1.0  0.8226610108517818  0.268513138552926  0.18845816048531114  1.0000
  O   O24       1.0  0.1773409408491773  0.7314861588878969  0.8115433284543769  1.0000
