data_image0
_chemical_formula_structural       Hf6H28C78N18O32
_chemical_formula_sum              "Hf6 H28 C78 N18 O32"
_cell_length_a       17.755151551608844
_cell_length_b       22.21921973243312
_cell_length_c       22.21320730604372
_cell_angle_alpha    65.3222218485176
_cell_angle_beta     88.73933486302835
_cell_angle_gamma    88.6913673678477

_space_group_name_H-M_alt    "P 1"
_space_group_IT_number       1

loop_
  _space_group_symop_operation_xyz
  'x, y, z'

loop_
  _atom_site_type_symbol
  _atom_site_label
  _atom_site_symmetry_multiplicity
  _atom_site_fract_x
  _atom_site_fract_y
  _atom_site_fract_z
  _atom_site_occupancy
  Hf  Hf1       1.0  0.20516712293508724  0.9738041549003572  0.046743615097227485  1.0000
  Hf  Hf2       1.0  0.9371027498585177  0.9510046908221172  0.02603159528637612  1.0000
  Hf  Hf3       1.0  0.07295143933031767  0.8546758561300934  0.14100797076802946  1.0000
  Hf  Hf4       1.0  0.0695278307083598  0.07061442064458133  0.9321789124577787  1.0000
  Hf  Hf5       1.0  0.09907432859465358  0.9000464464414436  0.965245867957783  1.0000
  Hf  Hf6       1.0  0.041935787894217896  0.025549603959284198  0.1044047293500228  1.0000
  H   H1        1.0  0.6209266449932754  0.0724195762562729  0.49199977815677437  1.0000
  H   H2        1.0  0.5139692372731517  0.8465546596027164  0.5865773045720533  1.0000
  H   H3        1.0  0.6474260689694373  0.4053093316261069  0.4826046489420434  1.0000
  H   H4        1.0  0.4915892494806541  0.5174598701705193  0.5956405387296397  1.0000
  H   H5        1.0  0.5233352221125642  0.5080667254102736  0.927322933616409  1.0000
  H   H6        1.0  0.6302076718404662  0.41239887070566533  0.1533794735912366  1.0000
  H   H7        1.0  0.19906353315296596  0.0092959662424121  0.9085673503699422  1.0000
  H   H8        1.0  0.9862742415208101  0.8190878483549544  0.04775423863390656  1.0000
  H   H9        1.0  0.9397727515696839  0.0884004935512266  0.9973816117993618  1.0000
  H   H10       1.0  0.15410453989439787  0.9403533056930655  0.18136824351896752  1.0000
  H   H11       1.0  0.17004518506674768  0.7747614485128196  0.014098051506586372  1.0000
  H   H12       1.0  0.08893405661544308  0.8229287107563651  0.27242228847886435  1.0000
  H   H13       1.0  0.9725441462274416  0.9705946847059577  0.22956268547186207  1.0000
  H   H14       1.0  0.08024290342321896  0.9402488625160362  0.8367049782787243  1.0000
  H   H15       1.0  0.0583725818411978  0.1078304172018179  0.8035637237022328  1.0000
  H   H16       1.0  0.07822509134791027  0.1970625011335514  0.9077429294400473  1.0000
  H   H17       1.0  0.035235453037415695  0.1536215449146212  0.0016896772470076011  1.0000
  H   H18       1.0  0.028051265377833097  0.8138945576964502  0.9327496403774089  1.0000
  H   H19       1.0  0.8419016809391378  0.9277335237319733  0.9385953714405345  1.0000
  H   H20       1.0  0.2837386175574891  0.0194388731525166  0.13378647075622038  1.0000
  H   H21       1.0  0.117389962913478  0.050946689793278196  0.19370360306693604  1.0000
  H   H22       1.0  0.10432285370556829  0.010833446056878396  0.8396004339213972  1.0000
  H   H23       1.0  0.833671556962571  0.8679004144122758  0.00909354762232791  1.0000
  H   H24       1.0  0.13397773139903524  0.7358886494462666  0.1742277619095631  1.0000
  H   H25       1.0  0.11366710601324569  0.7712206574468752  0.07466087211195561  1.0000
  H   H26       1.0  0.06745255530864817  0.15224267235057454  0.07203844030951242  1.0000
  H   H27       1.0  0.035473088262392594  0.9147703718025967  0.2310676625432605  1.0000
  H   H28       1.0  0.19834326430653698  0.05167458332575589  0.1226579996369566  1.0000
  C   C1        1.0  0.7364373185336957  0.12455509057583923  0.7408871486008974  1.0000
  C   C2        1.0  0.6639874446510703  0.09893253330556459  0.6728917400735739  1.0000
  C   C3        1.0  0.6633712219794815  0.20365020694671188  0.6657829632723775  1.0000
  C   C4        1.0  0.45105518756346896  0.8146767187119153  0.8961473655642747  1.0000
  C   C5        1.0  0.5181228128254175  0.7250884556390744  0.9005906470483254  1.0000
  C   C6        1.0  0.5157568570798786  0.8190657939785809  0.8055318789626111  1.0000
  C   C7        1.0  0.6916192942311808  0.1023339544027309  0.18507245344314777  1.0000
  C   C8        1.0  0.6284705428369151  0.1939168524140769  0.17990221992994282  1.0000
  C   C9        1.0  0.6252181943628585  0.09929354036921006  0.2743439613085598  1.0000
  C   C10       1.0  0.5901439522629203  0.9885705904948665  0.5815898504155186  1.0000
  C   C11       1.0  0.5595604463099376  0.9236002113180674  0.6092563688092554  1.0000
  C   C12       1.0  0.5375531308577874  0.8960154578664047  0.5660672404976522  1.0000
  C   C13       1.0  0.5442276981614282  0.93059661651926  0.4969308801448379  1.0000
  C   C14       1.0  0.5754659435755868  0.9953215301559057  0.46936704225363696  1.0000
  C   C15       1.0  0.5971522406790439  0.0230326625884558  0.5124809928220131  1.0000
  C   C16       1.0  0.4064366913942549  0.7979002232185761  0.3295165214143266  1.0000
  C   C17       1.0  0.4721090720087985  0.823403574551122  0.40151950600515823  1.0000
  C   C18       1.0  0.4755644056607978  0.7186634653170714  0.4084702604315069  1.0000
  C   C19       1.0  0.4047834047015399  0.2579342889468847  0.8775169456513437  1.0000
  C   C20       1.0  0.47839665778085544  0.3263273662623192  0.9015719662249636  1.0000
  C   C21       1.0  0.47686146565082765  0.33274182072129577  0.7971949517248118  1.0000
  C   C22       1.0  0.7387531183205238  0.6673279160155304  0.20424889924763062  1.0000
  C   C23       1.0  0.6662140893390569  0.5909002228792275  0.28249218740850773  1.0000
  C   C24       1.0  0.6709829256886478  0.5968663098212588  0.17813666299281278  1.0000
  C   C25       1.0  0.5916950148144051  0.3943733865912833  0.5736713907852858  1.0000
  C   C26       1.0  0.5471267035783993  0.4264384676580448  0.6061253485576967  1.0000
  C   C27       1.0  0.5258720622325939  0.49298651794089926  0.570996324095759  1.0000
  C   C28       1.0  0.5472276785270367  0.5283760438346976  0.5045521663120097  1.0000
  C   C29       1.0  0.5921198952750755  0.4963801563443014  0.47221443954598624  1.0000
  C   C30       1.0  0.613201915932258  0.4298123774833515  0.5072574946612602  1.0000
  C   C31       1.0  0.5685470482486533  0.5301666736634799  0.004886437473722153  1.0000
  C   C32       1.0  0.5996602040675183  0.5023387301521183  0.06970736286139363  1.0000
  C   C33       1.0  0.6066478286888922  0.43318090441549384  0.10386228875182002  1.0000
  C   C34       1.0  0.5849917190449786  0.3903037213414677  0.07580670430289867  1.0000
  C   C35       1.0  0.5542407565654627  0.41820236720843695  0.010855807827930218  1.0000
  C   C36       1.0  0.547104566622572  0.4873227584608771  0.9767561679757576  1.0000
  C   C37       1.0  0.28098747483761594  0.8917332184774054  0.9696723622603898  1.0000
  C   C38       1.0  0.24646377564891958  0.11345231121466531  0.9350589651155373  1.0000
  C   C39       1.0  0.2537185898450928  0.8528210169546286  0.18037144605465713  1.0000
  C   C40       1.0  0.8936084995941297  0.8146072310341808  0.14760768770314303  1.0000
  C   C41       1.0  0.8599242284442778  0.023818995619833996  0.11140942256390218  1.0000
  C   C42       1.0  0.8936225978690188  0.06822385366864842  0.886453121153643  1.0000
  C   C43       1.0  0.792154765827675  0.7190941673534397  0.18646693652073754  1.0000
  C   C44       1.0  0.8385169122312347  0.7624854053113667  0.1725784934632344  1.0000
  C   C45       1.0  0.647326271680704  0.5707016015066629  0.13309928089677203  1.0000
  C   C46       1.0  0.6242845596047102  0.5418167800721535  0.1012417256242982  1.0000
  C   C47       1.0  0.6161937266404961  0.5311216823226559  0.4057994750774511  1.0000
  C   C48       1.0  0.638727843225979  0.5598744690137067  0.34891534774457966  1.0000
  C   C49       1.0  0.3497237265120248  0.20749637515367428  0.897114866014384  1.0000
  C   C50       1.0  0.3020271693790093  0.16504399479130427  0.9130040983037515  1.0000
  C   C51       1.0  0.5054978706540749  0.3514936419180543  0.9462989407784261  1.0000
  C   C52       1.0  0.5293621550130893  0.37908124743857746  0.9790595290065907  1.0000
  C   C53       1.0  0.5021019699441353  0.36344170889984173  0.7299776106704455  1.0000
  C   C54       1.0  0.523666821505813  0.3918729894459219  0.6727553959329311  1.0000
  C   C55       1.0  0.30915794516742057  0.8294915240989769  0.2322962465555561  1.0000
  C   C56       1.0  0.35462988677009827  0.8160280945944296  0.2763704540229168  1.0000
  C   C57       1.0  0.5233990655902118  0.5948562197020593  0.4699261857864768  1.0000
  C   C58       1.0  0.5014787098734813  0.6518707722545543  0.4406307763768851  1.0000
  C   C59       1.0  0.5192253342872347  0.8996250976621241  0.45708381337296783  1.0000
  C   C60       1.0  0.4958666596617148  0.8682777877306833  0.427789183288496  1.0000
  C   C61       1.0  0.7942522624473013  0.04762874330676681  0.13506985546133876  1.0000
  C   C62       1.0  0.7441091334712411  0.07171232926208397  0.15656485260644357  1.0000
  C   C63       1.0  0.5876350887269195  0.031076231452026107  0.4003602698385149  1.0000
  C   C64       1.0  0.6021739425726195  0.0633750477375443  0.3418404113781222  1.0000
  C   C65       1.0  0.59604952482389  0.3211127855792171  0.11149442375329947  1.0000
  C   C66       1.0  0.6087583726961937  0.2621990610278004  0.1435471388351317  1.0000
  C   C67       1.0  0.34716689282382157  0.8666376385646757  0.9477945037335257  1.0000
  C   C68       1.0  0.3978772184976476  0.8438184793705403  0.9255559097547915  1.0000
  C   C69       1.0  0.5561277068226572  0.5991884064188965  0.9693523916045803  1.0000
  C   C70       1.0  0.5412717947286793  0.6576681577890896  0.9370693075679095  1.0000
  C   C71       1.0  0.5360924578266263  0.855192054529425  0.7373147085974024  1.0000
  C   C72       1.0  0.5487578492253674  0.8875441965557654  0.6784390603137068  1.0000
  C   C73       1.0  0.791467843780623  0.105873529492861  0.79145981548713  1.0000
  C   C74       1.0  0.8388215262980762  0.09063581323019321  0.8341848325445935  1.0000
  C   C75       1.0  0.6379960175958742  0.0535894386133862  0.6481292912804477  1.0000
  C   C76       1.0  0.614694999165941  0.0203927820060699  0.6207996314864912  1.0000
  C   C77       1.0  0.6368898524567327  0.27042702774286903  0.6352479916993372  1.0000
  C   C78       1.0  0.615071211213916  0.3276587161336905  0.6076563697147391  1.0000
  N   N1        1.0  0.7132206187255149  0.076947652652116  0.7231482848033294  1.0000
  N   N2        1.0  0.6374282589938146  0.1616359927907851  0.6417920879446442  1.0000
  N   N3        1.0  0.7132134382421284  0.18835843312140102  0.7151022521729969  1.0000
  N   N4        1.0  0.47377942296574094  0.7519104703081823  0.9333712698388934  1.0000
  N   N5        1.0  0.5402422388660924  0.7556549057619932  0.8364712746215586  1.0000
  N   N6        1.0  0.47153054447820597  0.8515763567956326  0.8326928195388277  1.0000
  N   N7        1.0  0.6721191090569576  0.16591715985597227  0.14776099075438506  1.0000
  N   N8        1.0  0.6039464146819212  0.16357388628059508  0.24336279930276555  1.0000
  N   N9        1.0  0.6687942108148517  0.0657058204476897  0.24788770844041605  1.0000
  N   N10       1.0  0.42622507730214915  0.8454226413412939  0.348774603874027  1.0000
  N   N11       1.0  0.49780776267863996  0.7605779078613679  0.43400163487771676  1.0000
  N   N12       1.0  0.42992978515935926  0.7341679531316956  0.35621554914005316  1.0000
  N   N13       1.0  0.4290319564189743  0.27632496831288483  0.9244241665226834  1.0000
  N   N14       1.0  0.5040446572679683  0.3570447585070227  0.8385493639605525  1.0000
  N   N15       1.0  0.4271384192925111  0.2833622320982272  0.8133913801547477  1.0000
  N   N16       1.0  0.7137667045530519  0.6416956189313369  0.2675709942685883  1.0000
  N   N17       1.0  0.6434602643627443  0.5656292109360166  0.24049576467480444  1.0000
  N   N18       1.0  0.7186835928945995  0.6482199036270588  0.15664440135335406  1.0000
  O   O1        1.0  0.2435324588726075  0.036381323233271694  0.10179427095777527  1.0000
  O   O2        1.0  0.2899969663883154  0.9259942093602687  0.002359428777417332  1.0000
  O   O3        1.0  0.2726694433382093  0.9045966727797322  0.1292417862030887  1.0000
  O   O4        1.0  0.18095917697703356  0.12874991293143268  0.9116283190790779  1.0000
  O   O5        1.0  0.19177930933411597  0.8225778602985161  0.19125336940179224  1.0000
  O   O6        1.0  0.2702389003964285  0.05695415077325801  0.9767644231465764  1.0000
  O   O7        1.0  0.21894367472369675  0.8760880234192571  0.9523251174646671  1.0000
  O   O8        1.0  0.14017147480316078  0.8968070916314659  0.056172695641301014  1.0000
  O   O9        1.0  0.16266495741653128  0.9949346284510412  0.9449478765084718  1.0000
  O   O10       1.0  0.13146555096130189  0.9461171914985089  0.13994842605607238  1.0000
  O   O11       1.0  0.11596936907396577  0.0383525117475614  0.028059023187317695  1.0000
  O   O12       1.0  0.041942209548380995  0.16281705448398753  0.9315370870585721  1.0000
  O   O13       1.0  0.11928964465154476  0.7860828566880756  0.023612572220876836  1.0000
  O   O14       1.0  0.0228115919461302  0.9752984003301393  0.9587139156759932  1.0000
  O   O15       1.0  0.008983155434563593  0.8595543128734705  0.04492897691588373  1.0000
  O   O16       1.0  0.0011509670688454037  0.9381242963519794  0.10384487762248543  1.0000
  O   O17       1.0  0.9762219126908389  0.05210205897138559  0.009773336109738311  1.0000
  O   O18       1.0  0.09451535281322519  0.7614861311619094  0.1442615235931939  1.0000
  O   O19       1.0  0.9575430694746743  0.803756834329434  0.1735156701579327  1.0000
  O   O20       1.0  0.870891064935037  0.8668836171999957  0.09803482747584971  1.0000
  O   O21       1.0  0.12039083299200833  0.06783384004025808  0.14572212837983048  1.0000
  O   O22       1.0  0.8506829480794662  0.9943345720377362  0.07411712264584482  1.0000
  O   O23       1.0  0.055048136341881077  0.8484074053919172  0.23679837321584069  1.0000
  O   O24       1.0  0.024747792087111996  0.9660158526122161  0.2176084279452438  1.0000
  O   O25       1.0  0.02723086525175939  0.1362890794518705  0.05342716297809597  1.0000
  O   O26       1.0  0.922413427938707  0.03661956550687509  0.1309093112966053  1.0000
  O   O27       1.0  0.8700068803727347  0.8945479360297737  0.9752114919131855  1.0000
  O   O28       1.0  0.09494676232221619  0.08198448026660542  0.8366822119310197  1.0000
  O   O29       1.0  0.8714641123267624  0.0200758263484389  0.9400776733847563  1.0000
  O   O30       1.0  0.9563907849126491  0.0963814683573574  0.8750664396696448  1.0000
  O   O31       1.0  0.1162332636955412  0.9611307417690398  0.8544283555542123  1.0000
  O   O32       1.0  0.04042780867577989  0.8604303200179971  0.9142924775330241  1.0000
