data_image0
_chemical_formula_structural       Zn4H48C64N8O24
_chemical_formula_sum              "Zn4 H48 C64 N8 O24"
_cell_length_a       6.951329293
_cell_length_b       14.969108728968186
_cell_length_c       16.1364
_cell_angle_alpha    107.39206959185898
_cell_angle_beta     90.0
_cell_angle_gamma    90.0

_space_group_name_H-M_alt    "P 1"
_space_group_IT_number       1

loop_
  _space_group_symop_operation_xyz
  'x, y, z'

loop_
  _atom_site_type_symbol
  _atom_site_label
  _atom_site_symmetry_multiplicity
  _atom_site_fract_x
  _atom_site_fract_y
  _atom_site_fract_z
  _atom_site_occupancy
  Zn  Zn1       1.0  0.7339301283191304  0.9659408256932309  0.6797304685468433  1.0000
  Zn  Zn2       1.0  0.2339394281950646  0.534054272889783  0.8202678934864804  1.0000
  Zn  Zn3       1.0  0.266062780519178  0.0340524064583647  0.32026932805954533  1.0000
  Zn  Zn4       1.0  0.7660664278071891  0.4659424594988906  0.17972729623425474  1.0000
  H   H1        1.0  0.21758284440978307  0.1195274959092671  0.15574127247180058  1.0000
  H   H2        1.0  0.7175792988289373  0.3804785708066518  0.34426155621957827  1.0000
  H   H3        1.0  0.7824258887400147  0.8804797371906545  0.8442624064008513  1.0000
  H   H4        1.0  0.2824164871569153  0.6195293623406855  0.6557367393141647  1.0000
  H   H5        1.0  0.8555399621175752  0.1671195194412363  0.6925013681136605  1.0000
  H   H6        1.0  0.3555622091574548  0.3328718462789411  0.8075004827827141  1.0000
  H   H7        1.0  0.1444299295403866  0.8328800131371066  0.3075063726816794  1.0000
  H   H8        1.0  0.6444508397136558  0.6671227859674858  0.1924997020503056  1.0000
  H   H9        1.0  0.9003242022072371  0.2597931964712572  0.5894783160377413  1.0000
  H   H10       1.0  0.40033206350939565  0.2402002693911669  0.9105241171985694  1.0000
  H   H11       1.0  0.0996428123031805  0.7402112364389948  0.41053078355079003  1.0000
  H   H12       1.0  0.5996781082141709  0.7597964629975065  0.08947664997438658  1.0000
  H   H13       1.0  0.8334477847041626  0.17989118449943925  0.42886545798634046  1.0000
  H   H14       1.0  0.3334498917112398  0.32010508155264716  0.07113713198631191  1.0000
  H   H15       1.0  0.1665307383964247  0.8201139484582285  0.571143215998589  1.0000
  H   H16       1.0  0.6665530871434697  0.6798909507886108  0.9288597227718539  1.0000
  H   H17       1.0  0.7411604000961558  0.0120996195388088  0.38178518761096564  1.0000
  H   H18       1.0  0.2411610685294576  0.4878980466081089  0.11821221313608991  1.0000
  H   H19       1.0  0.2588397016110093  0.9879048133714434  0.6182201936760805  1.0000
  H   H20       1.0  0.7588433488990205  0.5120972856857335  0.8817869263764135  1.0000
  H   H21       1.0  0.6551782843299137  0.8723948895828215  0.35320710175533077  1.0000
  H   H22       1.0  0.1551890227796164  0.627600909047608  0.14679145439130536  1.0000
  H   H23       1.0  0.3448146245083947  0.1276088432800151  0.6467906488154469  1.0000
  H   H24       1.0  0.8448254646652628  0.3723972234358968  0.8532121798759248  1.0000
  H   H25       1.0  0.5774521434399844  0.7030450190740893  0.3306476366605935  1.0000
  H   H26       1.0  0.0774643204634629  0.796952879698587  0.1693484032414148  1.0000
  H   H27       1.0  0.422533572529467  0.2969601138835785  0.6693449246845872  1.0000
  H   H28       1.0  0.9225386583912467  0.2030473529271646  0.8306520950642806  1.0000
  H   H29       1.0  0.5849427970697079  0.6403739742006493  0.45702308997307023  1.0000
  H   H30       1.0  0.0849578512407234  0.8596190242401178  0.042969731985010626  1.0000
  H   H31       1.0  0.4150400417521993  0.3596234582354469  0.5429654769749348  1.0000
  H   H32       1.0  0.9150465661877547  0.1403735078640622  0.9570255324896805  1.0000
  H   H33       1.0  0.6569333443314989  0.7501652106476513  0.6046662804607124  1.0000
  H   H34       1.0  0.1569527142238343  0.7498242875560378  0.895328669515372  1.0000
  H   H35       1.0  0.3430509330641769  0.24982452126686638  0.39532324982541667  1.0000
  H   H36       1.0  0.8430632117948207  0.2501668444533109  0.10466930531725183  1.0000
  H   H37       1.0  0.4735770471001927  0.1319694386345205  0.971796290394259  1.0000
  H   H38       1.0  0.9735677472242583  0.3680352279865602  0.5282005726182675  1.0000
  H   H39       1.0  0.5264331246233738  0.8680370944179785  0.028196659177545852  1.0000
  H   H40       1.0  0.0264309159091383  0.6319664047340225  0.4717996941971378  1.0000
  H   H41       1.0  0.10971139013195598  0.9395364372550858  0.8982796048836689  1.0000
  H   H42       1.0  0.6097222302888241  0.5604698620865847  0.601723102396484  1.0000
  H   H43       1.0  0.890275764411264  0.060466595560335186  0.1017241487429246  1.0000
  H   H44       1.0  0.3902850642871982  0.4395359709184987  0.39827399108040135  1.0000
  H   H45       1.0  0.2563250746579158  0.8881354557324528  0.8063967563225347  1.0000
  H   H46       1.0  0.7563301605197026  0.611868743466971  0.6936084672022529  1.0000
  H   H47       1.0  0.743666395606617  0.1118675770829682  0.19360699730406583  1.0000
  H   H48       1.0  0.2436742569087755  0.38813428934845  0.30638784982138384  1.0000
  C   C1        1.0  0.8312295039480588  0.1359233064403043  0.6231870079179129  1.0000
  C   C2        1.0  0.3312316109551361  0.3640687593272887  0.8768119385072096  1.0000
  C   C3        1.0  0.1687562120213855  0.8640748260432005  0.3768184855000669  1.0000
  C   C4        1.0  0.6687699293258048  0.6359258729191379  0.12318576745815342  1.0000
  C   C5        1.0  0.8541948956409513  0.1869476624531146  0.5645384385635737  1.0000
  C   C6        1.0  0.35420419551687826  0.3130472035041478  0.9354637631824543  1.0000
  C   C7        1.0  0.1457922589022687  0.8130525701726439  0.43546639776051416  1.0000
  C   C8        1.0  0.6458059762066881  0.6869502289319485  0.06453533895307832  1.0000
  C   C9        1.0  0.8190505383960698  0.14207742327469924  0.47680714387769285  1.0000
  C   C10       1.0  0.3190483296818271  0.3579167426351404  0.023194863755016094  1.0000
  C   C11       1.0  0.1809366161471502  0.8579263095881373  0.5232005221636911  1.0000
  C   C12       1.0  0.6809503334515695  0.6420785896587019  0.9768042757574874  1.0000
  C   C13       1.0  0.7658765360693136  0.0478951440631121  0.45035769371796147  1.0000
  C   C14       1.0  0.2658786430763911  0.45209832179931186  0.04964164093377828  1.0000
  C   C15       1.0  0.2341149341952189  0.9521050885626393  0.5496465228892048  1.0000
  C   C16       1.0  0.7341286514996384  0.5478970104945304  0.9503581182956395  1.0000
  C   C17       1.0  0.7471477441343521  0.0007686520628097999  0.512940882382928  1.0000
  C   C18       1.0  0.2471714297480077  0.49922761398927656  0.9870592287220673  1.0000
  C   C19       1.0  0.2528322175400106  0.9992336807051956  0.4870645362810961  1.0000
  C   C20       1.0  0.7528473734181915  0.500769118399397  0.012942158167803149  1.0000
  C   C21       1.0  0.696148865350551  0.9003512831423206  0.4920043553852266  1.0000
  C   C22       1.0  0.19617686668551929  0.5996445154881087  0.007996679629066342  1.0000
  C   C23       1.0  0.303833973471356  0.0996475493885995  0.5079945152600159  1.0000
  C   C24       1.0  0.8038404979069114  0.4003515168531564  0.992006992015149  1.0000
  C   C25       1.0  0.6541741598372041  0.8437468491762772  0.4078610080757629  1.0000
  C   C26       1.0  0.1541949683033081  0.6562524496912373  0.0921409975050906  1.0000
  C   C27       1.0  0.34581587185356  0.1562575837339821  0.5921406549098049  1.0000
  C   C28       1.0  0.8458152034202584  0.3437449827448589  0.9078624426488345  1.0000
  C   C29       1.0  0.6111305940114062  0.7496947787840681  0.39489861859566827  1.0000
  C   C30       1.0  0.1111442096086606  0.7503024199411925  0.10509598775920645  1.0000
  C   C31       1.0  0.38885799910558205  0.2503089540787684  0.6050947939567166  1.0000
  C   C32       1.0  0.8888602078198247  0.2496943124474811  0.8949035399799286  1.0000
  C   C33       1.0  0.6123519431436577  0.713947557531476  0.4653556437356626  1.0000
  C   C34       1.0  0.1123727516097688  0.786046841004122  0.03463818616595663  1.0000
  C   C35       1.0  0.3876237028093854  0.2860498749046201  0.5346341626461637  1.0000
  C   C36       1.0  0.8876388586875734  0.2139477912423047  0.9653607592332349  1.0000
  C   C37       1.0  0.6545827147883898  0.7742608427076973  0.5472007629848505  1.0000
  C   C38       1.0  0.15460208468072517  0.7257328557804853  0.9527941122372781  1.0000
  C   C39       1.0  0.3453958083121975  0.2257316893964827  0.45279140290526937  1.0000
  C   C40       1.0  0.8454109641903855  0.2742617764659414  0.047203593728085004  1.0000
  C   C41       1.0  0.4602400296619038  0.047200697026404684  0.8057735713773082  1.0000
  C   C42       1.0  0.9602350455072892  0.45279696912051987  0.6942256885204825  1.0000
  C   C43       1.0  0.5397643877665743  0.9528002356467693  0.19422464217404212  1.0000
  C   C44       1.0  0.0397664947736516  0.5472011633629918  0.3057723682945337  1.0000
  C   C45       1.0  0.3295153924453871  0.0291576749254219  0.8741344422060279  1.0000
  C   C46       1.0  0.8295104082907656  0.4708441915059964  0.6258678415223854  1.0000
  C   C47       1.0  0.6704861478355539  0.9708404575580829  0.1258660934766453  1.0000
  C   C48       1.0  0.1704825005475428  0.5291595413568402  0.374133007632956  1.0000
  C   C49       1.0  0.3628672867706157  0.0779565802026454  0.957937872672282  1.0000
  C   C50       1.0  0.8628507940258243  0.4220494865132736  0.5420624771514397  1.0000
  C   C51       1.0  0.6371443235267263  0.9220520529921075  0.04206309584242259  1.0000
  C   C52       1.0  0.1371406762387153  0.5779500460650695  0.4579372073240293  1.0000
  C   C53       1.0  0.2694319202927176  0.0616902784435709  0.0344139211222512  1.0000
  C   C54       1.0  0.7694125504003821  0.4383129880826785  0.46559060998352914  1.0000
  C   C55       1.0  0.7305983914636585  0.9383127543718499  0.9655954099565632  1.0000
  C   C56       1.0  0.2305817970117019  0.5616879445904956  0.5344057444170858  1.0000
  C   C57       1.0  0.0338179922272914  0.9737855570373597  0.7826623766795109  1.0000
  C   C58       1.0  0.53381300807267  0.5262193422094796  0.7173393226571034  1.0000
  C   C59       1.0  0.9661806709061052  0.0262174757780613  0.21734075723016835  1.0000
  C   C60       1.0  0.466181339339407  0.4737864907956038  0.2826571511028746  1.0000
  C   C61       1.0  0.1830124780998474  0.9530732541390208  0.8432709965729615  1.0000
  C   C62       1.0  0.6830161253878584  0.5469330452026497  0.6567341895748484  1.0000
  C   C63       1.0  0.8169804307384608  0.0469332789134782  0.15673620648785655  1.0000
  C   C64       1.0  0.3169839763193067  0.4530706876601868  0.3432666595804932  1.0000
  N   N1        1.0  0.7782497090804981  0.0457501987803681  0.5981572440056195  1.0000
  N   N2        1.0  0.2782618861039765  0.4542446671768872  0.9018430985896656  1.0000
  N   N3        1.0  0.22173312974140194  0.954250733892799  0.4018484061486943  1.0000
  N   N4        1.0  0.7217468470458215  0.5457506651169552  0.09815604092283793  1.0000
  N   N5        1.0  0.6947189230213906  0.8651535991113163  0.5602222719071719  1.0000
  N   N6        1.0  0.194742608635039  0.6348393993294508  0.9397755077862155  1.0000
  N   N7        1.0  0.3052596000791965  0.1348396330402792  0.439775045831567  1.0000
  N   N8        1.0  0.8052661245147518  0.3651545328695676  0.0602244829334921  1.0000
  O   O1        1.0  0.4854668593240561  0.9732388200054345  0.7390518862023682  1.0000
  O   O2        1.0  0.9854805766284683  0.526756978624995  0.7609460502273606  1.0000
  O   O3        1.0  0.5145174180716197  0.0267537120987456  0.2609458571399728  1.0000
  O   O4        1.0  0.014522402226241099  0.4732453541430033  0.2390513121167928  1.0000
  O   O5        1.0  0.5408648967019971  0.1241618098034394  0.8161795214111649  1.0000
  O   O6        1.0  0.0408670037090673  0.3758351562960627  0.6838183049394928  1.0000
  O   O7        1.0  0.4591380821527125  0.8758321223955718  0.18381613129015054  1.0000
  O   O8        1.0  0.9591417294407236  0.6241678765193512  0.3161792515179727  1.0000
  O   O9        1.0  0.8931198247581023  0.9132468565931688  0.7594741699139786  1.0000
  O   O10       1.0  0.3931190546176282  0.5867580426536705  0.7405256702719001  1.0000
  O   O11       1.0  0.1068788383752945  0.08675617622225217  0.2405289639957076  1.0000
  O   O12       1.0  0.6068695384993603  0.41324779035142  0.2594670851865999  1.0000
  O   O13       1.0  0.0438549214330806  0.0436612572909141  0.7555258792939341  1.0000
  O   O14       1.0  0.5438499372784662  0.45633990909308847  0.744473111736596  1.0000
  O   O15       1.0  0.956143741700309  0.956338275287429  0.2444756643322705  1.0000
  O   O16       1.0  0.4561415329860736  0.5436645238171636  0.2555242132305793  1.0000
  O   O17       1.0  0.1927099038954978  0.9879153140826844  0.03541467226801836  1.0000
  O   O18       1.0  0.6926459382162378  0.5120888851167393  0.4645936498413334  1.0000
  O   O19       1.0  0.8073837051068294  0.0120877187327366  0.9646014756968453  1.0000
  O   O20       1.0  0.3073512863433834  0.4879141476986817  0.5354057657668676  1.0000
  O   O21       1.0  0.2801924521057231  0.1367108597833493  0.1060855371013361  1.0000
  O   O22       1.0  0.7801860293773328  0.3633008073118944  0.3939151261950542  1.0000
  O   O23       1.0  0.7198162810440749  0.8633005736010658  0.893918686734274  1.0000
  O   O24       1.0  0.2198011251658869  0.6367050256931888  0.6060801081310884  1.0000
