data_image0
_chemical_formula_structural       Cu6H72C48N18
_chemical_formula_sum              "Cu6 H72 C48 N18"
_cell_length_a       12.17180123688352
_cell_length_b       12.190677542710908
_cell_length_c       12.324
_cell_angle_alpha    106.27689660577917
_cell_angle_beta     106.30284262825575
_cell_angle_gamma    105.9111350853359

_space_group_name_H-M_alt    "P 1"
_space_group_IT_number       1

loop_
  _space_group_symop_operation_xyz
  'x, y, z'

loop_
  _atom_site_type_symbol
  _atom_site_label
  _atom_site_symmetry_multiplicity
  _atom_site_fract_x
  _atom_site_fract_y
  _atom_site_fract_z
  _atom_site_occupancy
  Cu  Cu1       1.0  0.978501459261075  0.6000912494999895  0.11250194650293113  1.0000
  Cu  Cu2       1.0  0.11155827514815543  0.9763077422044404  0.5988071665225831  1.0000
  Cu  Cu3       1.0  0.6002839437433494  0.1114239635932108  0.9786686843621906  1.0000
  Cu  Cu4       1.0  0.021504383451933493  0.3999103546668863  0.8874958987171054  1.0000
  Cu  Cu5       1.0  0.8884411584754021  0.023688311532112004  0.40118898579942897  1.0000
  Cu  Cu6       1.0  0.3997191847270757  0.8885794907170991  0.021332978412772364  1.0000
  H   H1        1.0  0.1611932862273235  0.8572491617066902  0.24084575930367436  1.0000
  H   H2        1.0  0.24175821751946103  0.1599634018093781  0.8564956205129163  1.0000
  H   H3        1.0  0.8572895122973633  0.2427767472487545  0.16236086461789503  1.0000
  H   H4        1.0  0.8388049988572989  0.1427505923167374  0.7591494776345227  1.0000
  H   H5        1.0  0.7582412161040892  0.8400326519271745  0.14350702320799508  1.0000
  H   H6        1.0  0.1427073940061661  0.7572350327070296  0.8376494955900071  1.0000
  H   H7        1.0  0.32160953943954956  0.91288297494296  0.2712230435450851  1.0000
  H   H8        1.0  0.27232436545689614  0.3202441032186911  0.9117346114250464  1.0000
  H   H9        1.0  0.9137459658914369  0.2730635953590905  0.32109540101194517  1.0000
  H   H10       1.0  0.6783913136128207  0.0871167790804677  0.7287802081796781  1.0000
  H   H11       1.0  0.7276779909916087  0.6797528755895783  0.08826423056667923  1.0000
  H   H12       1.0  0.0862535923471555  0.7269417090946604  0.678912276271589  1.0000
  H   H13       1.0  0.23489658453370052  0.0666412416316575  0.2302510664479058  1.0000
  H   H14       1.0  0.230702449887744  0.23492103820315446  0.06353634116240413  1.0000
  H   H15       1.0  0.06692541611906225  0.23055469968510786  0.2350876145893821  1.0000
  H   H16       1.0  0.7651073999259738  0.9333622126786523  0.7697557021971662  1.0000
  H   H17       1.0  0.7692979020325836  0.7650796408919973  0.9364637823991513  1.0000
  H   H18       1.0  0.9330742044270581  0.7694552301272354  0.7649148709392789  1.0000
  H   H19       1.0  0.12497266930515852  0.9538016723303926  0.08397639497938772  1.0000
  H   H20       1.0  0.08325346786372728  0.12483472831695511  0.9516427735006443  1.0000
  H   H21       1.0  0.9533837126017914  0.08375136816338372  0.12566553933977076  1.0000
  H   H22       1.0  0.8750294569011814  0.0462036321233583  0.9160238800183362  1.0000
  H   H23       1.0  0.9167468840566003  0.8751659507781895  0.048358161485772835  1.0000
  H   H24       1.0  0.0466109182836831  0.9162567115055255  0.874336672719579  1.0000
  H   H25       1.0  0.2859008845930759  0.007469954138393601  0.11316854823164846  1.0000
  H   H26       1.0  0.11179617677588992  0.2854928589880004  0.004766859794628441  1.0000
  H   H27       1.0  0.0076926541769281945  0.1119679057645229  0.2846840377756692  1.0000
  H   H28       1.0  0.7141041644382116  0.9925362753870745  0.8868368507103667  1.0000
  H   H29       1.0  0.8882041751444305  0.7145078201071513  0.9952332637669271  1.0000
  H   H30       1.0  0.9923074675012346  0.8880410989761032  0.7153191416416079  1.0000
  H   H31       1.0  0.27775038828366416  0.6280052886487155  0.8020849635821888  1.0000
  H   H32       1.0  0.7999248596788748  0.2793892357799379  0.6271380495009353  1.0000
  H   H33       1.0  0.6274185049346954  0.8011444869649794  0.27726570936058437  1.0000
  H   H34       1.0  0.7222587944190195  0.3720027910201936  0.19791884865848172  1.0000
  H   H35       1.0  0.2000740728126402  0.7206077430283386  0.3728622774816301  1.0000
  H   H36       1.0  0.3725846235357366  0.1988589673453305  0.7227383876889703  1.0000
  H   H37       1.0  0.2194726494150245  0.4834859592034775  0.8128942121850926  1.0000
  H   H38       1.0  0.811906750056771  0.2203641096184228  0.4844467738613574  1.0000
  H   H39       1.0  0.48291020887904784  0.8133434077356227  0.21956086181397452  1.0000
  H   H40       1.0  0.780526553966368  0.5165184201785493  0.18709688174402567  1.0000
  H   H41       1.0  0.18809546011689093  0.7796347193332878  0.5155533519486539  1.0000
  H   H42       1.0  0.5170886613049461  0.1866489457140474  0.7804341084002641  1.0000
  H   H43       1.0  0.44812139276236  0.5500781720339774  0.8611982533914783  1.0000
  H   H44       1.0  0.860929522914816  0.4489003028106566  0.5506844562405816  1.0000
  H   H45       1.0  0.5500223470659622  0.8602778465177254  0.44519005932623656  1.0000
  H   H46       1.0  0.5518788968504396  0.4499178817025752  0.1388005705260583  1.0000
  H   H47       1.0  0.13906684160895819  0.5510966759976128  0.44931597020404  1.0000
  H   H48       1.0  0.44997059350081514  0.13971913229054422  0.5548069835600629  1.0000
  H   H49       1.0  0.42037380056696355  0.5481706741474923  0.9953166011570855  1.0000
  H   H50       1.0  0.996478409844741  0.42009541959564  0.5494432038184057  1.0000
  H   H51       1.0  0.5480253538797514  0.9964798561291135  0.4190834028767512  1.0000
  H   H52       1.0  0.5796206433959483  0.451823529445619  0.004682523395075577  1.0000
  H   H53       1.0  0.003521232361173097  0.5799034093560707  0.4505578328785162  1.0000
  H   H54       1.0  0.4519673781046692  0.0035143474639909  0.5809120013340843  1.0000
  H   H55       1.0  0.47772934208602186  0.6909776958391447  0.9796492241541441  1.0000
  H   H56       1.0  0.9799643507683131  0.4782019495392689  0.6906240795784342  1.0000
  H   H57       1.0  0.6910680374973951  0.9797194067075239  0.4757185060509528  1.0000
  H   H58       1.0  0.5222697366803289  0.3090174328256836  0.020352253284727367  1.0000
  H   H59       1.0  0.02003620973437141  0.5218015047710409  0.3093784940834467  1.0000
  H   H60       1.0  0.3089214791123922  0.0202775721007526  0.5242783989764703  1.0000
  H   H61       1.0  0.23029760168666513  0.5681346469351851  0.197772030887613  1.0000
  H   H62       1.0  0.19814203435258554  0.2308322212010907  0.5680760148816546  1.0000
  H   H63       1.0  0.5681929403656767  0.1986721028579055  0.2315631055518779  1.0000
  H   H64       1.0  0.769702333068935  0.4318604817296432  0.8022296838721985  1.0000
  H   H65       1.0  0.8018669397677344  0.7691730832526603  0.4319269701084139  1.0000
  H   H66       1.0  0.43180534471894577  0.8013276511655223  0.7684369999354956  1.0000
  H   H67       1.0  0.46979034074611553  0.49172649808456736  0.31170640809800426  1.0000
  H   H68       1.0  0.31120328447826046  0.4688392986619122  0.49180612772077126  1.0000
  H   H69       1.0  0.49213048455322916  0.3110350142468405  0.46900073621669947  1.0000
  H   H70       1.0  0.5302062540198166  0.5082621550782208  0.6882917739157577  1.0000
  H   H71       1.0  0.6888043948282885  0.5311715562221551  0.5082053399523829  1.0000
  H   H72       1.0  0.5078729987744026  0.6889693651351935  0.5309996585657188  1.0000
  C   C1        1.0  0.20848765435726335  0.7632757510381438  0.10085607203761528  1.0000
  C   C2        1.0  0.1007553674721322  0.20768322648169152  0.7626389710631968  1.0000
  C   C3        1.0  0.7634500857004626  0.1019715807590202  0.20895098056938372  1.0000
  C   C4        1.0  0.7915154741131687  0.236727703272166  0.8991423450378945  1.0000
  C   C5        1.0  0.899245631855081  0.792314677398295  0.23736137399355794  1.0000
  C   C6        1.0  0.23655039083490695  0.8980383490533301  0.7910582336791094  1.0000
  C   C7        1.0  0.22857183270764383  0.879771882871701  0.1992224682771635  1.0000
  C   C8        1.0  0.1995403871255874  0.22756671802975603  0.8785142104663776  1.0000
  C   C9        1.0  0.8801215540744141  0.2005379725169973  0.2289367404899353  1.0000
  C   C10       1.0  0.7714288740698835  0.12022972129517481  0.8007763872918473  1.0000
  C   C11       1.0  0.8004607584764614  0.7724293357067965  0.1214856621969531  1.0000
  C   C12       1.0  0.1198735779431033  0.7994691820801948  0.7710677883077607  1.0000
  C   C13       1.0  0.2177046566025496  0.9828489243360252  0.15395166137596306  1.0000
  C   C14       1.0  0.1534692588976796  0.2173687273893066  0.9804129228097551  1.0000
  C   C15       1.0  0.982950695131649  0.1538847555377529  0.2177432839185158  1.0000
  C   C16       1.0  0.7823019581323865  0.0171591553328838  0.8460530617516255  1.0000
  C   C17       1.0  0.8465303833082346  0.7826301015624041  0.019585679612589533  1.0000
  C   C18       1.0  0.0170475059856585  0.846121473987715  0.7822585936063006  1.0000
  C   C19       1.0  0.2310275459580211  0.6343059521331185  0.9566277694696764  1.0000
  C   C20       1.0  0.9561874407302683  0.23151769934555233  0.6344684952049632  1.0000
  C   C21       1.0  0.6340616729336618  0.9575898410234842  0.23144866124937388  1.0000
  C   C22       1.0  0.7689738705339125  0.3656975021771914  0.0433701729639679  1.0000
  C   C23       1.0  0.043811846618446365  0.7684802045344412  0.3655321866347876  1.0000
  C   C24       1.0  0.36594039096515735  0.0424108380716675  0.7685543712286387  1.0000
  C   C25       1.0  0.2813145110627033  0.5809922187704188  0.8667752979703919  1.0000
  C   C26       1.0  0.8658467479568372  0.2822689840440589  0.5812107014755696  1.0000
  C   C27       1.0  0.5806477229883455  0.8670743484440138  0.2809944276166831  1.0000
  C   C28       1.0  0.7186859871324672  0.41900661018129176  0.1332227303480238  1.0000
  C   C29       1.0  0.1341535416559623  0.7177270696924865  0.41879055671655147  1.0000
  C   C30       1.0  0.4193522740747753  0.1329254055794209  0.7190053410876942  1.0000
  C   C31       1.0  0.41477621918770785  0.5931652375329081  0.9292740474993124  1.0000
  C   C32       1.0  0.9294093666950047  0.4151980899103621  0.5936257232328543  1.0000
  C   C33       1.0  0.5930927080688592  0.9294944878176494  0.41303752096055035  1.0000
  C   C34       1.0  0.5852223584466075  0.4068308162036374  0.07072430177635171  1.0000
  C   C35       1.0  0.07059083895047992  0.5848044393282308  0.40637811842157134  1.0000
  C   C36       1.0  0.4069030090480226  0.0705052662057781  0.586960249714295  1.0000
  C   C37       1.0  0.3068973908099366  0.5443603037331215  0.2362825737956058  1.0000
  C   C38       1.0  0.2363772954464238  0.3070544306360006  0.544460157274159  1.0000
  C   C39       1.0  0.5445984247808511  0.23670735169432797  0.3075709831024512  1.0000
  C   C40       1.0  0.6931002062200875  0.45562649928622534  0.7637202416948482  1.0000
  C   C41       1.0  0.763634352268767  0.6929332974550705  0.45552490173715654  1.0000
  C   C42       1.0  0.4553995894138936  0.7632850017553424  0.6924253726405708  1.0000
  C   C43       1.0  0.39319101324608857  0.5166534806496585  0.2770160464864091  1.0000
  C   C44       1.0  0.2767008028986595  0.3926411410917154  0.51655281441775  1.0000
  C   C45       1.0  0.5169502089868417  0.2769100435705383  0.39306076899365655  1.0000
  C   C46       1.0  0.6068045792557513  0.4833370226565705  0.7229848048744285  1.0000
  C   C47       1.0  0.72331767107071  0.6073576878599951  0.48344208339167954  1.0000
  C   C48       1.0  0.48305241835154084  0.7230943358114956  0.6069401998926908  1.0000
  N   N1        1.0  0.12012020055752261  0.6522708449340584  0.06802782796531667  1.0000
  N   N2        1.0  0.06795849763148  0.1193203757944872  0.6524419236808612  1.0000
  N   N3        1.0  0.6525075293644065  0.06822866470304231  0.12019236507249792  1.0000
  N   N4        1.0  0.8798787942415133  0.3477307592328103  0.9319681186872373  1.0000
  N   N5        1.0  0.9320428565529328  0.8806784531572235  0.34755715338334897  1.0000
  N   N6        1.0  0.3474920288741856  0.9317766397507016  0.8798136893613132  1.0000
  N   N7        1.0  0.13502049809022762  0.5694547242795239  0.9753700288313638  1.0000
  N   N8        1.0  0.9751301342447578  0.1351085748384406  0.5701689801165842  1.0000
  N   N9        1.0  0.5694374818988807  0.9755029298081014  0.13505768044304042  1.0000
  N   N10       1.0  0.8649827766550405  0.4305468798873521  0.0246279158507293  1.0000
  N   N11       1.0  0.024869654235999444  0.8648884039698289  0.429831584186921  1.0000
  N   N12       1.0  0.4305620763397116  0.0245023746456425  0.8649483739907778  1.0000
  N   N13       1.0  0.2786617917453782  0.7556735116437991  0.032627055362290526  1.0000
  N   N14       1.0  0.032324085978224594  0.278719483854708  0.7549264328433622  1.0000
  N   N15       1.0  0.755521641606592  0.0344043423357192  0.2794935339182132  1.0000
  N   N16       1.0  0.7213369944712938  0.24432531730791143  0.9673672526148067  1.0000
  N   N17       1.0  0.9676764122169388  0.7212793450970025  0.24507321832477663  1.0000
  N   N18       1.0  0.2444792737532993  0.9656000370463076  0.7205085831759844  1.0000
