data_image0
_chemical_formula_structural       Zn2H14C32N6Cl2O8
_chemical_formula_sum              "Zn2 H14 C32 N6 Cl2 O8"
_cell_length_a       14.498250290327702
_cell_length_b       15.93087238542369
_cell_length_c       17.221816364194783
_cell_angle_alpha    86.29620577598604
_cell_angle_beta     89.40852651072865
_cell_angle_gamma    87.9318110029146

_space_group_name_H-M_alt    "P 1"
_space_group_IT_number       1

loop_
  _space_group_symop_operation_xyz
  'x, y, z'

loop_
  _atom_site_type_symbol
  _atom_site_label
  _atom_site_symmetry_multiplicity
  _atom_site_fract_x
  _atom_site_fract_y
  _atom_site_fract_z
  _atom_site_occupancy
  Zn  Zn1       1.0  0.49647282805069176  0.5886938786190044  0.5045253081619805  1.0000
  Zn  Zn2       1.0  0.5035320052840645  0.4113107638262079  0.49547257832556135  1.0000
  H   H1        1.0  0.4104850056654214  0.5806710390565114  0.7446534998439208  1.0000
  H   H2        1.0  0.5896026856317247  0.41936255868856886  0.25537360705759954  1.0000
  H   H3        1.0  0.4135109139087945  0.5816529392795006  0.8902545617677406  1.0000
  H   H4        1.0  0.5867089549998353  0.41840528799281884  0.10976459139106966  1.0000
  H   H5        1.0  0.5809508698127104  0.7309062593981038  0.41670766097880846  1.0000
  H   H6        1.0  0.4190298766946227  0.2690977493596236  0.5832840043216266  1.0000
  H   H7        1.0  0.5789568215196255  0.8896616434650751  0.41745231135376326  1.0000
  H   H8        1.0  0.42103152372946795  0.1103417359328631  0.5825422533003961  1.0000
  H   H9        1.0  0.6127762696794645  0.1304339040897702  0.3894314031041547  1.0000
  H   H10       1.0  0.3872588918540741  0.8695675633191441  0.6105978621400042  1.0000
  H   H11       1.0  0.6019472266237498  0.2889068867465738  0.3976973693563651  1.0000
  H   H12       1.0  0.398078972839471  0.7110952142296014  0.6023255196121229  1.0000
  H   H13       1.0  0.40622742394234007  0.638962737415291  0.10226994009835984  1.0000
  H   H14       1.0  0.5939442837009422  0.36106534372176213  0.8976856170679499  1.0000
  C   C1        1.0  0.5037648763620481  0.5209519187111341  0.3483819952618888  1.0000
  C   C2        1.0  0.4962495522522801  0.47905462149557826  0.6516128256254989  1.0000
  C   C3        1.0  0.44717740084583096  0.5914434121720545  0.13627896970982795  1.0000
  C   C4        1.0  0.5529761514702187  0.40858777630140247  0.8636974071604303  1.0000
  C   C5        1.0  0.45026714516474425  0.5923047011606001  0.2172332940971985  1.0000
  C   C6        1.0  0.5498082129488395  0.40771511082014916  0.7827464890570044  1.0000
  C   C7        1.0  0.4600745307861231  0.2351190380460437  0.5412887804873281  1.0000
  C   C8        1.0  0.5399192280649315  0.7648862235605166  0.45871203251044806  1.0000
  C   C9        1.0  0.4615282619520754  0.148093761709795  0.5408340549867463  1.0000
  C   C10       1.0  0.5384683475221336  0.851908981252514  0.4591686318426299  1.0000
  C   C11       1.0  0.5170080478374998  0.10954553977310161  0.48506863457887334  1.0000
  C   C12       1.0  0.483005707115268  0.8904584566745797  0.5149443390856235  1.0000
  C   C13       1.0  0.5689851552182857  0.1597067254209534  0.4325756098438307  1.0000
  C   C14       1.0  0.4310431054187021  0.8402953742161188  0.5674490101470584  1.0000
  C   C15       1.0  0.5632113092773706  0.24660066419485824  0.43697367532821846  1.0000
  C   C16       1.0  0.43680796706245667  0.7534026992600289  0.563043951028128  1.0000
  C   C17       1.0  0.6806467558554772  0.5001811431269587  0.5018820803747703  1.0000
  C   C18       1.0  0.3193604693587986  0.4998140433921634  0.4981273782450446  1.0000
  C   C19       1.0  0.780285479773184  0.4999248864493068  0.5013026150176929  1.0000
  C   C20       1.0  0.21972235298667186  0.5000715493516595  0.4987137353396209  1.0000
  C   C21       1.0  0.864945745461327  0.4998492028541717  0.5007615279064555  1.0000
  C   C22       1.0  0.13505861296609817  0.500130870656406  0.49925231284125016  1.0000
  C   C23       1.0  0.9574436022344839  0.4999112037701465  0.5002406507083635  1.0000
  C   C24       1.0  0.04256706368028772  0.5000663554938142  0.49977330309424434  1.0000
  C   C25       1.0  0.5010292900067056  0.5292234306822791  0.2610624431840024  1.0000
  C   C26       1.0  0.4990268121717703  0.47079320276708353  0.7389321454396696  1.0000
  C   C27       1.0  0.5502446921370421  0.46749737024979504  0.22068542737363128  1.0000
  C   C28       1.0  0.4498625198604529  0.5325337536601255  0.7793184928462369  1.0000
  C   C29       1.0  0.5486212807358299  0.46637586918369317  0.14048808027882842  1.0000
  C   C30       1.0  0.4515556267910694  0.5336722922566111  0.8595115678726872  1.0000
  C   C31       1.0  0.49480974656107424  0.5281145569327776  0.09777392457124996  1.0000
  C   C32       1.0  0.5053947930002565  0.47193490681929967  0.9022057568349455  1.0000
  N   N1        1.0  0.48330298082829865  0.5317822888567604  0.01625583155904311  1.0000
  N   N2        1.0  0.516930312862165  0.46827222135554075  0.9837268849406303  1.0000
  N   N3        1.0  0.509723753791306  0.2832831002037893  0.49017505785280263  1.0000
  N   N4        1.0  0.49028034394275  0.7167215277714618  0.5098327047088207  1.0000
  N   N5        1.0  0.5259581575773992  0.021414360421793798  0.4773817710958641  1.0000
  N   N6        1.0  0.4740570213385382  0.978588376289423  0.5226324298478107  1.0000
  Cl  Cl1       1.0  0.3857374336612479  0.6706655985111567  0.2599631469587537  1.0000
  Cl  Cl2       1.0  0.6142925994810681  0.3293347114097571  0.7399930497331229  1.0000
  O   O1        1.0  0.5033682023814237  0.5874767461292549  0.3851552062460471  1.0000
  O   O2        1.0  0.49665209114031217  0.4125379742018183  0.614843170037439  1.0000
  O   O3        1.0  0.5070181399254565  0.4456429657688973  0.3784154839707768  1.0000
  O   O4        1.0  0.49297307815640307  0.5543748914149305  0.6215788002748897  1.0000
  O   O5        1.0  0.6391507060509624  0.5715512744274065  0.5058756265970674  1.0000
  O   O6        1.0  0.36085908074984013  0.4284470383558556  0.49414931360730935  1.0000
  O   O7        1.0  0.6444166372576632  0.42889754455176643  0.4983343363683306  1.0000
  O   O8        1.0  0.3555882001661884  0.571108373310885  0.5016518623199177  1.0000
