data_image0
_chemical_formula_structural       Hg2H52C32S4Br4
_chemical_formula_sum              "Hg2 H52 C32 S4 Br4"
_cell_length_a       9.054792210388577
_cell_length_b       9.054786363592564
_cell_length_c       12.810389991426085
_cell_angle_alpha    93.53622495476766
_cell_angle_beta     93.53627194580875
_cell_angle_gamma    90.97528503091148

_space_group_name_H-M_alt    "P 1"
_space_group_IT_number       1

loop_
  _space_group_symop_operation_xyz
  'x, y, z'

loop_
  _atom_site_type_symbol
  _atom_site_label
  _atom_site_symmetry_multiplicity
  _atom_site_fract_x
  _atom_site_fract_y
  _atom_site_fract_z
  _atom_site_occupancy
  Hg  Hg1       1.0  0.21698327109047708  0.7830119045545485  0.74999870625318  1.0000
  Hg  Hg2       1.0  0.7830137482186784  0.2169736576051235  0.2499970587840039  1.0000
  H   H1        1.0  0.6490239560349665  0.8363961161939242  0.9388619320928981  1.0000
  H   H2        1.0  0.1636227661032166  0.3509643648220403  0.5611378798761848  1.0000
  H   H3        1.0  0.35096206981287986  0.16362720103398226  0.0611381074221242  1.0000
  H   H4        1.0  0.8363964151719185  0.6490220812324807  0.43886199969603723  1.0000
  H   H5        1.0  0.45471194299007317  0.8673487467633405  0.9469650811219594  1.0000
  H   H6        1.0  0.1326590373700753  0.5452721426387868  0.5530316618302535  1.0000
  H   H7        1.0  0.5452694098775908  0.13266686192879718  0.053028180466640214  1.0000
  H   H8        1.0  0.8673378821219655  0.4547101030078053  0.4469670786106407  1.0000
  H   H9        1.0  0.3155064564198895  0.6947463077642198  0.033243887402761615  1.0000
  H   H10       1.0  0.3052606705235945  0.6844873822927865  0.4667518486638044  1.0000
  H   H11       1.0  0.6844849679243836  0.30527253145669425  0.9667608754394763  1.0000
  H   H12       1.0  0.6947367895513069  0.3155125596440555  0.5332383094224582  1.0000
  H   H13       1.0  0.7127592512962836  0.551766487264231  0.8935477228480124  1.0000
  H   H14       1.0  0.4482487846034644  0.2872402316032066  0.6064525179683358  1.0000
  H   H15       1.0  0.28723331369503313  0.4482534473200486  0.10645713624867881  1.0000
  H   H16       1.0  0.551754172022491  0.712758547078181  0.3935378266560434  1.0000
  H   H17       1.0  0.6127550457219326  0.0419710813171719  0.5857391457104413  1.0000
  H   H18       1.0  0.9580299872027354  0.38724664958490246  0.9142607009945892  1.0000
  H   H19       1.0  0.3872489923500026  0.9580265890586048  0.4142597845433115  1.0000
  H   H20       1.0  0.0419764743589326  0.6127576426363106  0.0857425217209666  1.0000
  H   H21       1.0  0.44023914055330227  0.9471074941204658  0.5969374246395631  1.0000
  H   H22       1.0  0.05289801443682758  0.5597601851776374  0.9030621901797532  1.0000
  H   H23       1.0  0.5597617546813466  0.0528957471179936  0.4030647326004626  1.0000
  H   H24       1.0  0.9471127959789243  0.440241841378608  0.0969348772779242  1.0000
  H   H25       1.0  0.6043479997479435  0.8460272757771461  0.5762392037608279  1.0000
  H   H26       1.0  0.1539734802904817  0.39564743585842166  0.9237601180116641  1.0000
  H   H27       1.0  0.3956494373357414  0.1539715709309561  0.4237610542081001  1.0000
  H   H28       1.0  0.8460327692995762  0.6043502110058868  0.07623812581358892  1.0000
  H   H29       1.0  0.8144832476660182  0.03789220509128909  0.7228954645907493  1.0000
  H   H30       1.0  0.9621045398144047  0.18551447146782607  0.7771072086038231  1.0000
  H   H31       1.0  0.18552172965624433  0.9620999258601586  0.2771079513394881  1.0000
  H   H32       1.0  0.037890691038605005  0.8144844040363424  0.2228984199497788  1.0000
  H   H33       1.0  0.8099594273693  0.8432493252413876  0.7214170495591858  1.0000
  H   H34       1.0  0.15674571207417637  0.19003290328458886  0.7785842963016094  1.0000
  H   H35       1.0  0.19003777034534144  0.15674177647724005  0.2785844259386394  1.0000
  H   H36       1.0  0.8432470299193396  0.8099571405397794  0.22142006431625558  1.0000
  H   H37       1.0  0.7957384331851214  0.9510457093758401  0.8418976298500738  1.0000
  H   H38       1.0  0.048948661955286396  0.20425398657520327  0.6581036548305619  1.0000
  H   H39       1.0  0.20425987161044654  0.0489453819082044  0.1581046734725433  1.0000
  H   H40       1.0  0.9510440447096257  0.7957349496896808  0.3418998759722527  1.0000
  H   H41       1.0  0.5773970193242093  0.18370812803782138  0.7629752936296441  1.0000
  H   H42       1.0  0.8162949513901976  0.4226028576612606  0.7370237279957905  1.0000
  H   H43       1.0  0.4226070876424472  0.8162917556953815  0.2370237348688278  1.0000
  H   H44       1.0  0.18370808470537978  0.5773981449467698  0.2629760831856345  1.0000
  H   H45       1.0  0.5512698421455083  0.08436041529986937  0.8751925985695692  1.0000
  H   H46       1.0  0.9156419303123613  0.4487298134510668  0.6248064037478898  1.0000
  H   H47       1.0  0.44873540634942793  0.9156405646774745  0.12480730687605052  1.0000
  H   H48       1.0  0.08436096799377418  0.551266762442104  0.37519321094410424  1.0000
  H   H49       1.0  0.40800789241392  0.08434518338517451  0.7733532466473747  1.0000
  H   H50       1.0  0.9156589833394335  0.5919899865847071  0.7266464955328829  1.0000
  H   H51       1.0  0.5919951445628939  0.9156558201036235  0.2266473452267448  1.0000
  H   H52       1.0  0.08434833976543389  0.40800654404707604  0.2733533076875005  1.0000
  C   C1        1.0  0.5372358054932532  0.790258715175696  0.917857191275651  1.0000
  C   C2        1.0  0.2097511846200248  0.46275390953663037  0.5821407132440868  1.0000
  C   C3        1.0  0.46275433512708725  0.20975459668237303  0.08214259466654991  1.0000
  C   C4        1.0  0.7902558593809985  0.5372337641423498  0.4178555742266711  1.0000
  C   C5        1.0  0.5173885082153262  0.6403792191514414  0.9599975254803113  1.0000
  C   C6        1.0  0.35963423908971487  0.48260537526110164  0.5400069953311616  1.0000
  C   C7        1.0  0.4826063089101637  0.35964180476546664  0.0400121611590905  1.0000
  C   C8        1.0  0.6403664768582046  0.5173923255376351  0.4599886707555356  1.0000
  C   C9        1.0  0.3972729623168475  0.6096517632978901  0.019676380964682504  1.0000
  C   C10       1.0  0.3903581627756409  0.6027237503021536  0.48032355849998254  1.0000
  C   C11       1.0  0.6027251036317267  0.3903670124347798  0.9803325681335906  1.0000
  C   C12       1.0  0.6096502568352519  0.3972727593258297  0.5196677042328588  1.0000
  C   C13       1.0  0.6192838010102263  0.528949639627342  0.9404385997699904  1.0000
  C   C14       1.0  0.47105274377867073  0.38071556658555744  0.5595657439191513  1.0000
  C   C15       1.0  0.3807131260537843  0.47106804250349643  0.0595718144592254  1.0000
  C   C16       1.0  0.5289435791741538  0.619283283510981  0.4404274406834361  1.0000
  C   C17       1.0  0.5959337937054058  0.947826045770505  0.7344996714359268  1.0000
  C   C18       1.0  0.0521753555006654  0.40406066195356527  0.7655019449468768  1.0000
  C   C19       1.0  0.4040658566588816  0.0521727791876714  0.26550146148989034  1.0000
  C   C20       1.0  0.9478264030396698  0.5959348194569999  0.2344983541833656  1.0000
  C   C21       1.0  0.5600239028961767  0.9446996734022051  0.6163566879190014  1.0000
  C   C22       1.0  0.05530284390092529  0.43997387101665447  0.8836412064980835  1.0000
  C   C23       1.0  0.43997802611846737  0.05530133964040828  0.3836422954376388  1.0000
  C   C24       1.0  0.9447034401364931  0.5600248825263703  0.1163570864495256  1.0000
  C   C25       1.0  0.7632597496767985  0.9434461945730985  0.7577400056097545  1.0000
  C   C26       1.0  0.0565508819130329  0.2367360847105928  0.7422623157172552  1.0000
  C   C27       1.0  0.23674086909773703  0.056548192354867396  0.242260977958729  1.0000
  C   C28       1.0  0.9434452122456489  0.7632550309656878  0.2577414547265562  1.0000
  C   C29       1.0  0.5284048006065587  0.08189810405189489  0.7900712573126755  1.0000
  C   C30       1.0  0.9181020118079316  0.47159309536604616  0.7099283478116264  1.0000
  C   C31       1.0  0.4715993081225775  0.91810178144285  0.2099293325711855  1.0000
  C   C32       1.0  0.08189978117975731  0.5284034927232356  0.290072000440972  1.0000
  S   S1        1.0  0.5153382744149013  0.7721895476284502  0.7748052678204047  1.0000
  S   S2        1.0  0.22781317733070944  0.484655002057103  0.7251948218606047  1.0000
  S   S3        1.0  0.4846592324447412  0.2278115133178531  0.2251958690859297  1.0000
  S   S4        1.0  0.7721905842811052  0.5153338140081728  0.2748029347216132  1.0000
  Br  Br1       1.0  0.0986376016411512  0.8599291885996365  0.5725913345013183  1.0000
  Br  Br2       1.0  0.1400709732118983  0.9013618344016621  0.9274071984969936  1.0000
  Br  Br3       1.0  0.9013619763034482  0.1400674194780365  0.427406577409002  1.0000
  Br  Br4       1.0  0.8599241746465225  0.09863481365279367  0.0725858407287845  1.0000
