data_image0
_chemical_formula_structural       Al2H24C48O12
_chemical_formula_sum              "Al2 H24 C48 O12"
_cell_length_a       3.9643756683387075
_cell_length_b       29.02130198522325
_cell_length_c       29.020745753516337
_cell_angle_alpha    119.9957313704402
_cell_angle_beta     90.00274524163986
_cell_angle_gamma    89.99261324389234

_space_group_name_H-M_alt    "P 1"
_space_group_IT_number       1

loop_
  _space_group_symop_operation_xyz
  'x, y, z'

loop_
  _atom_site_type_symbol
  _atom_site_label
  _atom_site_symmetry_multiplicity
  _atom_site_fract_x
  _atom_site_fract_y
  _atom_site_fract_z
  _atom_site_occupancy
  Al  Al1       1.0  0.004214190895496  0.5000287599574732  0.5000044181027334  1.0000
  Al  Al2       1.0  0.9951223609651125  0.1666463618243198  0.8333416698265238  1.0000
  H   H1        1.0  0.2899444680733296  0.17173575902585714  0.6915992299290536  1.0000
  H   H2        1.0  0.3092089367288011  0.22022154181000533  0.6406699736488761  1.0000
  H   H3        1.0  0.6897361378228625  0.3592940256643402  0.7798246041998809  1.0000
  H   H4        1.0  0.7046518663788605  0.30848745294131424  0.8284593605146426  1.0000
  H   H5        1.0  0.6905305485457875  0.30730489768847485  0.5535258897556901  1.0000
  H   H6        1.0  0.7094006864969133  0.3582211400653747  0.5050237205222814  1.0000
  H   H7        1.0  0.29520825041554843  0.4951184637946752  0.6418204010086725  1.0000
  H   H8        1.0  0.3105016103531497  0.4464875531654257  0.6926346754495825  1.0000
  H   H9        1.0  0.2901305615257215  0.01984187164070049  0.8282617599135591  1.0000
  H   H10       1.0  0.3093024828651636  0.9204273634311588  0.7797739783894355  1.0000
  H   H11       1.0  0.6896048755442764  0.9204977986154075  0.6406768856882934  1.0000
  H   H12       1.0  0.704590014503907  0.019939836428655277  0.69148484191998  1.0000
  H   H13       1.0  0.6904721834615231  0.7462341609840802  0.6927011886163824  1.0000
  H   H14       1.0  0.7092985191255539  0.6468203414741537  0.6417908133011565  1.0000
  H   H15       1.0  0.2950701836197141  0.6467303473073753  0.5049009995789149  1.0000
  H   H16       1.0  0.3103648569306543  0.7461693149289558  0.5535233183196056  1.0000
  H   H17       1.0  0.2902452456562584  0.3083936855868217  0.9801290239782289  1.0000
  H   H18       1.0  0.3093799773569827  0.3593471873226832  0.07954404749150261  1.0000
  H   H19       1.0  0.6896506297723165  0.22019233724740422  0.0795166083989898  1.0000
  H   H20       1.0  0.7046941527866936  0.17153076941475837  0.9800741995697493  1.0000
  H   H21       1.0  0.6905365939995249  0.44644812165556397  0.2537562628340878  1.0000
  H   H22       1.0  0.7094770204991081  0.4949713348192049  0.35316743294198727  1.0000
  H   H23       1.0  0.2952531798775837  0.3582089629729381  0.35331281320177516  1.0000
  H   H24       1.0  0.3104706100808272  0.30736747572222356  0.2538733955181627  1.0000
  C   C1        1.0  0.5040178228481764  0.45896778723536596  0.41808626349907024  1.0000
  C   C2        1.0  0.5039995841329771  0.4591602889874763  0.5410627966119037  1.0000
  C   C3        1.0  0.5039230496884742  0.5819371921839787  0.5408613860733238  1.0000
  C   C4        1.0  0.4953469750112305  0.20775884682463883  0.7925292359662136  1.0000
  C   C5        1.0  0.4954058980919953  0.08472944540270086  0.7922291579759886  1.0000
  C   C6        1.0  0.49541470885576194  0.20745449351033327  0.9152584829180911  1.0000
  C   C7        1.0  0.4970352082540047  0.23723696425840754  0.7629207117223089  1.0000
  C   C8        1.0  0.3815404619782117  0.21256096921811005  0.7102235577133341  1.0000
  C   C9        1.0  0.39036115045111325  0.23961055903284037  0.6820637466249764  1.0000
  C   C10       1.0  0.4994880306147139  0.29303885457141365  0.7069756625235896  1.0000
  C   C11       1.0  0.6076726817080883  0.3179474182289893  0.7604562866719887  1.0000
  C   C12       1.0  0.6140451601244836  0.28984799950480755  0.787577780896285  1.0000
  C   C13       1.0  0.5000168251711729  0.3211876984004859  0.6788091647421338  1.0000
  C   C14       1.0  0.5001117883603926  0.3454645805171096  0.6545128985330848  1.0000
  C   C15       1.0  0.5005018424830112  0.3736271168357205  0.6263588953185745  1.0000
  C   C16       1.0  0.6093980475778408  0.34869809345946123  0.5729132386769038  1.0000
  C   C17       1.0  0.6180039488167284  0.3768590635308584  0.5458637431760137  1.0000
  C   C18       1.0  0.5025207572458825  0.429558565695757  0.5705461549979773  1.0000
  C   C19       1.0  0.3857645484740786  0.45422963977251374  0.6231752881438553  1.0000
  C   C20       1.0  0.3923662388822819  0.4271085298828936  0.6512748577307548  1.0000
  C   C21       1.0  0.4971031007381086  0.025649507508354888  0.7627459931768286  1.0000
  C   C22       1.0  0.3816371701880712  0.9976346106379451  0.7874298908872247  1.0000
  C   C23       1.0  0.3903982502699321  0.9424321977098769  0.7603835736781547  1.0000
  C   C24       1.0  0.4994349818063739  0.9139234927294524  0.7069480560328004  1.0000
  C   C25       1.0  0.6076052518775583  0.9424848686443994  0.6820310767426038  1.0000
  C   C26       1.0  0.6140447103127116  0.9976985342989975  0.7101283325871961  1.0000
  C   C27       1.0  0.4999530220555075  0.8576158420198892  0.6788046586909359  1.0000
  C   C28       1.0  0.5000642182129766  0.8090486487934213  0.6545280277694586  1.0000
  C   C29       1.0  0.5004662223936265  0.7527430288023709  0.6263743265509376  1.0000
  C   C30       1.0  0.609359114178865  0.7242290658418254  0.6513066036863293  1.0000
  C   C31       1.0  0.6179535348683487  0.6690255382947469  0.6231535599128861  1.0000
  C   C32       1.0  0.5024604552458598  0.6410150430125156  0.5704562497934588  1.0000
  C   C33       1.0  0.3856650002902029  0.6689712850212359  0.545785088213833  1.0000
  C   C34       1.0  0.392273306507093  0.7241838809291465  0.572896211999563  1.0000
  C   C35       1.0  0.49716500335983244  0.2370710113528034  0.974340239958586  1.0000
  C   C36       1.0  0.38173912576337454  0.2897731647034405  0.002341943435631316  1.0000
  C   C37       1.0  0.3904918818877264  0.3179525622099674  0.0575501811906776  1.0000
  C   C38       1.0  0.49950210712757587  0.2930352237170765  0.0860746381362603  1.0000
  C   C39       1.0  0.6076774865450718  0.23955720437771785  0.0575249711136792  1.0000
  C   C40       1.0  0.6141346755860013  0.21241553660725995  0.0023052166368700056  1.0000
  C   C41       1.0  0.4999788367477578  0.3212038528696652  0.14238640829630356  1.0000
  C   C42       1.0  0.5000854722692338  0.34547541780765556  0.19095807140637794  1.0000
  C   C43       1.0  0.5005041924887905  0.3736293071193586  0.24726942722797665  1.0000
  C   C44       1.0  0.6094172325410555  0.4270678444458937  0.2757690018489782  1.0000
  C   C45       1.0  0.6180646006100616  0.4541361182520943  0.330977960865745  1.0000
  C   C46       1.0  0.5025726885437578  0.4294677185174648  0.35900515712816616  1.0000
  C   C47       1.0  0.3857968070289104  0.37684232537371537  0.33106305266797154  1.0000
  C   C48       1.0  0.3923579058158709  0.34872320319968253  0.2758439823774665  1.0000
  O   O1        1.0  0.7392572198631411  0.5585305030558415  0.5513764695820953  1.0000
  O   O2        1.0  0.7392799982634416  0.49289086314422537  0.44149356759921676  1.0000
  O   O3        1.0  0.7393277605913298  0.448648197271531  0.507143908819927  1.0000
  O   O4        1.0  0.26967308346226565  0.5583344001578681  0.5067863705547779  1.0000
  O   O5        1.0  0.26974557639172764  0.4932409227321984  0.5515280554986006  1.0000
  O   O6        1.0  0.26975286837090806  0.44850786564499856  0.44169645420480913  1.0000
  O   O7        1.0  0.7295505807408986  0.17335851661930224  0.8916171752909392  1.0000
  O   O8        1.0  0.729495053635212  0.2182052668126674  0.8266197079679714  1.0000
  O   O9        1.0  0.7295553864469042  0.10836532652520249  0.7817822088272377  1.0000
  O   O10       1.0  0.2599461818252848  0.21797957632472267  0.8918812016706353  1.0000
  O   O11       1.0  0.2599905704531976  0.1081086553365722  0.8261421850360691  1.0000
  O   O12       1.0  0.2599506406283965  0.17385336188328182  0.7820034336217673  1.0000
