data_image0
_chemical_formula_structural       Co2H40C50N8O8
_chemical_formula_sum              "Co2 H40 C50 N8 O8"
_cell_length_a       9.9405007510086
_cell_length_b       10.976265583163944
_cell_length_c       14.149162764524537
_cell_angle_alpha    73.71133555109685
_cell_angle_beta     78.58651976629265
_cell_angle_gamma    81.01248307577431

_space_group_name_H-M_alt    "P 1"
_space_group_IT_number       1

loop_
  _space_group_symop_operation_xyz
  'x, y, z'

loop_
  _atom_site_type_symbol
  _atom_site_label
  _atom_site_symmetry_multiplicity
  _atom_site_fract_x
  _atom_site_fract_y
  _atom_site_fract_z
  _atom_site_occupancy
  Co  Co1       1.0  0.44079177832549016  0.80210069950963  0.19274471273929092  1.0000
  Co  Co2       1.0  0.5592087473619217  0.19790297414498786  0.8072504576600182  1.0000
  H   H1        1.0  0.0586834654116046  0.6746777353014579  0.9933207028353909  1.0000
  H   H2        1.0  0.9413164945576327  0.3253230754286847  0.006671618277621894  1.0000
  H   H3        1.0  0.11991072989806643  0.6063432393028094  0.16392033666214456  1.0000
  H   H4        1.0  0.8800847819840243  0.3936509466059518  0.8360739392325204  1.0000
  H   H5        1.0  0.9472058078358288  0.6214163894561864  0.3120144686124676  1.0000
  H   H6        1.0  0.052790019454285214  0.3785653942243171  0.6879810432491809  1.0000
  H   H7        1.0  0.701659731224595  0.7132618410139244  0.29471748307528856  1.0000
  H   H8        1.0  0.2983288470119447  0.28670000386539124  0.7052846095135409  1.0000
  H   H9        1.0  0.5677641883676898  0.8671336611703709  0.9547484969309824  1.0000
  H   H10       1.0  0.4322348323946059  0.1328576182125971  0.04524317041131811  1.0000
  H   H11       1.0  0.9426880662562384  0.8068357203756165  0.8532216776389063  1.0000
  H   H12       1.0  0.05731758406444241  0.193159307904395  0.14677193889012594  1.0000
  H   H13       1.0  0.7811695576817855  0.8816698749633999  0.8201077087394214  1.0000
  H   H14       1.0  0.21883956813970687  0.1183222489206628  0.17988400979987776  1.0000
  H   H15       1.0  0.8732907477365259  0.6872421494718282  0.7537344706334326  1.0000
  H   H16       1.0  0.1267128132041435  0.31275195562384545  0.2462624184169684  1.0000
  H   H17       1.0  0.8638274696428498  0.5900912223370015  0.8768523720875411  1.0000
  H   H18       1.0  0.136182447505611  0.4098999568434608  0.12314652997733329  1.0000
  H   H19       1.0  0.6076920269422317  0.6395467734953756  0.9072226252968535  1.0000
  H   H20       1.0  0.39231864183832943  0.3604367712602539  0.09277855018298453  1.0000
  H   H21       1.0  0.6125434323640278  0.7561188563803967  0.7919114878978564  1.0000
  H   H22       1.0  0.3874638693810937  0.2438752264124773  0.20809274751268714  1.0000
  H   H23       1.0  0.6452569149515738  0.33851356823061723  0.573496514590474  1.0000
  H   H24       1.0  0.35476025097021596  0.6614937024392802  0.4264832049407803  1.0000
  H   H25       1.0  0.7405944274761537  0.5053110943561168  0.4235308876734224  1.0000
  H   H26       1.0  0.2594302971522708  0.4947047156591183  0.5764630700372919  1.0000
  H   H27       1.0  0.7946245955423166  0.7098593534721048  0.44139688400029115  1.0000
  H   H28       1.0  0.2053674658205722  0.29016065692517395  0.5586091707705878  1.0000
  H   H29       1.0  0.7570672254846685  0.7562816720817908  0.6070963626446189  1.0000
  H   H30       1.0  0.2429151880718124  0.24373272309756538  0.3929113282746003  1.0000
  H   H31       1.0  0.5745775042449566  0.41735102530132206  0.9113050147896617  1.0000
  H   H32       1.0  0.42541995517238024  0.5826364522803331  0.08868553720528645  1.0000
  H   H33       1.0  0.016923810866728693  0.9498337315702516  0.18014320736211434  1.0000
  H   H34       1.0  0.9830638884650185  0.0501730103576534  0.8198789598133873  1.0000
  H   H35       1.0  0.20552101311005086  0.9445606661339739  0.8807861310711477  1.0000
  H   H36       1.0  0.7944727874647768  0.0554488559962039  0.11922977135336056  1.0000
  H   H37       1.0  0.5407121833162593  0.1662664166533006  0.33994409980194024  1.0000
  H   H38       1.0  0.45928088637492687  0.8337373540696973  0.660057577298524  1.0000
  H   H39       1.0  0.442965610576735  0.7878903067444296  0.4991261065863314  1.0000
  H   H40       1.0  0.5570204330268353  0.21211163699931027  0.5008774939900251  1.0000
  C   C1        1.0  0.744644036740979  0.7426449822279012  0.1344313609219085  1.0000
  C   C2        1.0  0.25536064099336636  0.25734051683478754  0.8655623123990426  1.0000
  C   C3        1.0  0.8442228810285357  0.7311694397865974  0.04980790217054226  1.0000
  C   C4        1.0  0.15576854154193143  0.26884102009483263  0.9501911037660522  1.0000
  C   C5        1.0  0.9804457623355276  0.6802778461995017  0.058238027455331624  1.0000
  C   C6        1.0  0.01954451041270029  0.31971450690323877  0.9417636215018492  1.0000
  C   C7        1.0  0.013751123035042716  0.6422016014676969  0.15418354264721762  1.0000
  C   C8        1.0  0.986248127639769  0.35779161395849707  0.8458204066519885  1.0000
  C   C9        1.0  0.9150835373203423  0.6524986615795711  0.23879198321473186  1.0000
  C   C10       1.0  0.08490560197980558  0.3474870174944443  0.7612062942142473  1.0000
  C   C11       1.0  0.7790612772281306  0.702699321312899  0.23037145020413874  1.0000
  C   C12       1.0  0.22093766643644133  0.29728337411914657  0.7696206716789791  1.0000
  C   C13       1.0  0.6436766324688321  0.822957058554792  0.003393594821410747  1.0000
  C   C14       1.0  0.3563217014084045  0.17704090281351637  0.9965967050250913  1.0000
  C   C15       1.0  0.8330422159054793  0.7939132154256541  0.863381215041727  1.0000
  C   C16       1.0  0.16696705377251664  0.20608748814962752  0.13660862783151373  1.0000
  C   C17       1.0  0.815932711243086  0.6772042688763448  0.8299663356064358  1.0000
  C   C18       1.0  0.1840706160418364  0.3227898511282988  0.1700355273823035  1.0000
  C   C19       1.0  0.6643378243371459  0.6645978385239175  0.8306617222059318  1.0000
  C   C20       1.0  0.33566863833921456  0.33538670653223335  0.16933972774604206  1.0000
  C   C21       1.0  0.6828568786256639  0.5711453504263133  0.6826686195987224  1.0000
  C   C22       1.0  0.31715500271243974  0.42885440048875273  0.3173331458240938  1.0000
  C   C23       1.0  0.6515626658908433  0.4539021151874322  0.6732778532614887  1.0000
  C   C24       1.0  0.34843735882544286  0.5460977431032249  0.32671537377068205  1.0000
  C   C25       1.0  0.6715100501618848  0.42828968749349633  0.5797725902706079  1.0000
  C   C26       1.0  0.32850303110283374  0.5717128858788386  0.4202185237487229  1.0000
  C   C27       1.0  0.7240331728906712  0.5219195747396198  0.4975997561762568  1.0000
  C   C28       1.0  0.27597991267777644  0.47808874230401704  0.5023993055607081  1.0000
  C   C29       1.0  0.7554217305865907  0.6381541292221585  0.5076597976410043  1.0000
  C   C30       1.0  0.2445849967623275  0.3618561655569152  0.49233957812589324  1.0000
  C   C31       1.0  0.7353701591064808  0.6652088065057172  0.6002530876581958  1.0000
  C   C32       1.0  0.2646283816428151  0.3347996812463023  0.39975117129225185  1.0000
  C   C33       1.0  0.6027450543647532  0.4500634330270542  0.830913462611534  1.0000
  C   C34       1.0  0.3972643448073401  0.5499353656692706  0.16907819210002367  1.0000
  C   C35       1.0  0.2542134583463209  0.8784068602771669  0.06915087198957084  1.0000
  C   C36       1.0  0.7457828364649473  0.12160930315041439  0.9308611788797595  1.0000
  C   C37       1.0  0.12313899960835775  0.9420912064501935  0.03359618747701626  1.0000
  C   C38       1.0  0.8768499727242445  0.057925045526360505  0.9664195278429946  1.0000
  C   C39       1.0  0.00840224662072591  0.9734824767944231  0.10129548724465569  1.0000
  C   C40       1.0  0.9915986114093653  0.026527922005378513  0.8987201081857352  1.0000
  C   C41       1.0  0.1144300665648501  0.9688325758865588  0.9320583471294488  1.0000
  C   C42       1.0  0.8855502912712582  0.0311847412903603  0.06796450755496154  1.0000
  C   C43       1.0  0.47525014709609786  0.9513011820117045  0.3127497404760647  1.0000
  C   C44       1.0  0.5247462352224161  0.048701591324167716  0.6872489373589519  1.0000
  C   C45       1.0  0.48923710272338644  0.9751344233188703  0.4096569024124366  1.0000
  C   C46       1.0  0.5107542136736926  0.024873198412784295  0.5903512163452264  1.0000
  C   C47       1.0  0.5229967377990336  0.0940700574945481  0.410620778523061  1.0000
  C   C48       1.0  0.4769889426547067  0.9059338060371189  0.5893859841533172  1.0000
  C   C49       1.0  0.466858472615769  0.8810176348555173  0.5000308602947714  1.0000
  C   C50       1.0  0.5331306913857361  0.1189871169993211  0.49996469621424927  1.0000
  N   N1        1.0  0.6201254190060085  0.7992115258839335  0.10250646232987036  1.0000
  N   N2        1.0  0.37986867337589564  0.20078648973496632  0.8974871495957901  1.0000
  N   N3        1.0  0.7762483070843229  0.7834195869378676  0.9682527230927889  1.0000
  N   N4        1.0  0.2237523794648341  0.21658123152815287  0.03174587562663329  1.0000
  N   N5        1.0  0.6494499024162367  0.5655930529685734  0.783925059258678  1.0000
  N   N6        1.0  0.3505553390245383  0.4343943608388159  0.21607379039296862  1.0000
  N   N7        1.0  0.6019197731536678  0.38023029692960353  0.7678588429754643  1.0000
  N   N8        1.0  0.39809045044452074  0.6197637076215159  0.2321266828926127  1.0000
  O   O1        1.0  0.4643850314021451  0.832801844608255  0.31701640502323164  1.0000
  O   O2        1.0  0.5356264177353509  0.16719503486292103  0.6829796688627996  1.0000
  O   O3        1.0  0.47341834236947733  0.0407182935630104  0.2351612601915464  1.0000
  O   O4        1.0  0.5265873142666707  0.9592834265680775  0.7648379770107214  1.0000
  O   O5        1.0  0.27647133664159906  0.9033372321958948  0.14922059015423642  1.0000
  O   O6        1.0  0.7235209966912279  0.09666563720408305  0.8507990463682734  1.0000
  O   O7        1.0  0.3361220430692669  0.8063354753551975  0.02395210356889523  1.0000
  O   O8        1.0  0.6638954588678416  0.19370713176096643  0.9760446701761157  1.0000
