data_image0
_chemical_formula_structural       Er4H40C56N4O34
_chemical_formula_sum              "Er4 H40 C56 N4 O34"
_cell_length_a       10.2255689296967
_cell_length_b       12.023306984706606
_cell_length_c       12.9701
_cell_angle_alpha    74.71491327104248
_cell_angle_beta     76.27356011587136
_cell_angle_gamma    71.31151314153611

_space_group_name_H-M_alt    "P 1"
_space_group_IT_number       1

loop_
  _space_group_symop_operation_xyz
  'x, y, z'

loop_
  _atom_site_type_symbol
  _atom_site_label
  _atom_site_symmetry_multiplicity
  _atom_site_fract_x
  _atom_site_fract_y
  _atom_site_fract_z
  _atom_site_occupancy
  Er  Er1       1.0  0.8034259772602397  0.2800107768840334  0.9486674465087861  1.0000
  Er  Er2       1.0  0.19657299012524024  0.7199888914631244  0.05133228801399532  1.0000
  Er  Er3       1.0  0.2081568189662306  0.2193670961157181  0.10654835979677557  1.0000
  Er  Er4       1.0  0.7918438736523895  0.7806334690752408  0.8934508328080569  1.0000
  H   H1        1.0  0.6827669548889972  0.45956069890562645  0.7705356553424423  1.0000
  H   H2        1.0  0.31723373772963004  0.5404398662853325  0.22946430826647912  1.0000
  H   H3        1.0  0.6888878910355061  0.532382621605251  0.8579637614557569  1.0000
  H   H4        1.0  0.311114384577337  0.4676161498981131  0.14203711535559194  1.0000
  H   H5        1.0  0.8902424092751602  0.420808078399574  0.07058996916302357  1.0000
  H   H6        1.0  0.10975655811031969  0.579191589947591  0.9294097653597647  1.0000
  H   H7        1.0  0.739737242793986  0.4944631689874157  0.04904937317881054  1.0000
  H   H8        1.0  0.2602627312835963  0.5055364993597422  0.9509501730164658  1.0000
  H   H9        1.0  0.125242604011703  0.0382754996055894  0.039821928399994995  1.0000
  H   H10       1.0  0.8747570819148153  0.9617250655853765  0.9601774525323491  1.0000
  H   H11       1.0  0.2848199693742473  0.9919747100438059  0.0316755447203505  1.0000
  H   H12       1.0  0.7151792861622895  0.0080240614595652  0.9683251260694379  1.0000
  H   H13       1.0  0.025879293143155742  0.7462735894911602  0.4113709245379553  1.0000
  H   H14       1.0  0.9741211113244079  0.2537278725435925  0.5886311868202655  1.0000
  H   H15       1.0  0.857353488059097  0.8185044921279855  0.5733493605428635  1.0000
  H   H16       1.0  0.14264691640846647  0.1814969699067746  0.4266504378031258  1.0000
  H   H17       1.0  0.697704403403101  0.0264622731000159  0.5447091909711689  1.0000
  H   H18       1.0  0.30229269283710636  0.973540085778545  0.45528946508625984  1.0000
  H   H19       1.0  0.3598104366031762  0.321277250555525  0.3124191001582163  1.0000
  H   H20       1.0  0.6401885307823035  0.67872241779164  0.6875814053686541  1.0000
  H   H21       1.0  0.5336871061349912  0.1212927425994152  0.3410040808434118  1.0000
  H   H22       1.0  0.466312867942591  0.8787069257477498  0.6589939233437079  1.0000
  H   H23       1.0  0.8335500720045843  0.2638155715820645  0.38349676009651296  1.0000
  H   H24       1.0  0.16645019022405452  0.7361831999213065  0.616502180357614  1.0000
  H   H25       1.0  0.6706098008815999  0.4704654226439544  0.3620796129955082  1.0000
  H   H26       1.0  0.32939074949809577  0.5295324520156086  0.637923347741939  1.0000
  H   H27       1.0  0.9908518370939845  0.6333430184631084  0.5686354695631124  1.0000
  H   H28       1.0  0.009149143675692532  0.3666566498840567  0.4313623462964955  1.0000
  H   H29       1.0  0.17418301086777183  0.5142547179188597  0.44190009255828494  1.0000
  H   H30       1.0  0.8258199832861095  0.4857449504283053  0.5580996596585379  1.0000
  H   H31       1.0  0.3410509818289285  0.3255157343442718  0.5208672541882963  1.0000
  H   H32       1.0  0.6589510056328579  0.6744839340028932  0.4791349993682772  1.0000
  H   H33       1.0  0.400726205629006  0.9393371538590926  0.8251325575809787  1.0000
  H   H34       1.0  0.5992724736054171  0.0606634113318663  0.17486855368704107  1.0000
  H   H35       1.0  0.21567277754294173  0.1272029432273953  0.7888243327725492  1.0000
  H   H36       1.0  0.7843259016914814  0.8727976219635707  0.2111783205036204  1.0000
  H   H37       1.0  0.5062808866131547  0.3285533442876627  0.6727157321324171  1.0000
  H   H38       1.0  0.4937203823075862  0.6714454272157013  0.3272845620023547  1.0000
  H   H39       1.0  0.7044264110648158  0.1473290148954405  0.7041250476587065  1.0000
  H   H40       1.0  0.29557385116382306  0.8526697566079235  0.2958738927954272  1.0000
  C   C1        1.0  0.9016532575023606  0.1239025580512276  0.1829134636558293  1.0000
  C   C2        1.0  0.09834642842416493  0.8760980071397383  0.8170836042642834  1.0000
  C   C3        1.0  0.05932593051309003  0.8573521780766171  0.209067153864595  1.0000
  C   C4        1.0  0.9406743317155489  0.142646593426754  0.7909333285976887  1.0000
  C   C5        1.0  0.8833058852828302  0.0324289748872602  0.28707251124355804  1.0000
  C   C6        1.0  0.11669380064369513  0.9675715903037058  0.7129276406928682  1.0000
  C   C7        1.0  0.9680255689110594  0.9129798114834317  0.30176369446334667  1.0000
  C   C8        1.0  0.03197641855072671  0.0870198568637335  0.698237017085063  1.0000
  C   C9        1.0  0.9578666990785792  0.8376108523978516  0.404545432898928  1.0000
  C   C10       1.0  0.04213226830690082  0.1623888159493134  0.5954573856401737  1.0000
  C   C11       1.0  0.8634811326539948  0.8769114444644046  0.49309977165594887  1.0000
  C   C12       1.0  0.1365182651214738  0.1230900175703553  0.506900215017545  1.0000
  C   C13       1.0  0.7742961979139764  0.9930419541632743  0.4777590381252423  1.0000
  C   C14       1.0  0.22570348801254886  0.0069586110276916  0.522239571803027  1.0000
  C   C15       1.0  0.7846780003386588  0.0684901671559004  0.37583665119757376  1.0000
  C   C16       1.0  0.21532168558786685  0.9315103980350656  0.6241619587306956  1.0000
  C   C17       1.0  0.46287505573705084  0.3133141744742218  0.3282674722984638  1.0000
  C   C18       1.0  0.5371226168052701  0.6866863907167442  0.671732285288897  1.0000
  C   C19       1.0  0.5568633008095817  0.2026750393497281  0.3434809744172185  1.0000
  C   C20       1.0  0.44313667326800055  0.797324628997437  0.656518571778058  1.0000
  C   C21       1.0  0.7273478917434346  0.2835586909484178  0.3684166799794043  1.0000
  C   C22       1.0  0.2726513637931092  0.7164400805549462  0.631583990810384  1.0000
  C   C23       1.0  0.6371262693726863  0.39589734506987634  0.3557177227832327  1.0000
  C   C24       1.0  0.36287269801279365  0.6041023232772815  0.6442835537477124  1.0000
  C   C25       1.0  0.4995514261502906  0.4185327856843771  0.33163191100200606  1.0000
  C   C26       1.0  0.5004495546193938  0.581466882662788  0.6683682178698404  1.0000
  C   C27       1.0  0.523610885638668  0.1991262284415427  0.9947960478429536  1.0000
  C   C28       1.0  0.4763915322131  0.8008752335932171  0.0052033738480118975  1.0000
  C   C29       1.0  0.4827785590695298  0.3105249902628344  0.04537273586948491  1.0000
  C   C30       1.0  0.5172231402411924  0.6894755749281245  0.9546262684078428  1.0000
  C   C31       1.0  0.12446177701293953  0.345381721310936  0.876112955676092  1.0000
  C   C32       1.0  0.8755346006862297  0.6546197407238239  0.12388605397178055  1.0000
  C   C33       1.0  0.9547007428115253  0.5987921111500825  0.7797162977549945  1.0000
  C   C34       1.0  0.045296641579739116  0.4012093508846775  0.2202825235653592  1.0000
  C   C35       1.0  0.14126542251364071  0.4015232462139338  0.7569697873838237  1.0000
  C   C36       1.0  0.8587332567207826  0.5984773189770323  0.24303132388419615  1.0000
  C   C37       1.0  0.05163345107008152  0.5113749524838909  0.7122982106459403  1.0000
  C   C38       1.0  0.9483652281643418  0.48862561270706806  0.2877005876098338  1.0000
  C   C39       1.0  0.06313429776138696  0.5490414951507248  0.599608740027243  1.0000
  C   C40       1.0  0.936865388165131  0.4509590700402413  0.4003898699010263  1.0000
  C   C41       1.0  0.1643997407975704  0.4829512819979342  0.5295067910266696  1.0000
  C   C42       1.0  0.8356022466642091  0.5170483863492308  0.4704931495176652  1.0000
  C   C43       1.0  0.2580077798079188  0.3779039679531735  0.573147880209369  1.0000
  C   C44       1.0  0.7419939195028036  0.6220965972377925  0.4268526660761154  1.0000
  C   C45       1.0  0.24691954073543343  0.3387495614256721  0.6854021034982907  1.0000
  C   C46       1.0  0.7530808637321299  0.6612519006090878  0.31460000785993003  1.0000
  C   C47       1.0  0.4305421805982448  0.0219448708901311  0.7884087671357989  1.0000
  C   C48       1.0  0.5694562104851144  0.9780565911446287  0.21159217886928153  1.0000
  C   C49       1.0  0.3255689765128267  0.1255904180788221  0.7689871799586783  1.0000
  C   C50       1.0  0.6744307094136986  0.8744101471121439  0.23101451398590464  1.0000
  C   C51       1.0  0.49001109938302545  0.2391891377362896  0.7015085970113618  1.0000
  C   C52       1.0  0.5099901695377156  0.7608096337670744  0.29849169712340984  1.0000
  C   C53       1.0  0.5986068926874425  0.1381112543409131  0.7196851438007456  1.0000
  C   C54       1.0  0.40139379993118507  0.8618893108500528  0.2803132778000119  1.0000
  C   C55       1.0  0.5745096572102852  0.0224228886343951  0.7618903724838264  1.0000
  C   C56       1.0  0.42549132355939195  0.9775767797127627  0.2381097563880203  1.0000
  N   N1        1.0  0.6886036997872154  0.1870726477981464  0.3619843020820852  1.0000
  N   N2        1.0  0.31139656244142344  0.8129261237052248  0.6380146383720487  1.0000
  N   N3        1.0  0.3541949779882927  0.2330143681879449  0.7234918000655739  1.0000
  N   N4        1.0  0.6458044197871758  0.7669870938468151  0.27650895761200195  1.0000
  O   O1        1.0  0.8170589788345171  0.1508168404253638  0.11749152415615777  1.0000
  O   O2        1.0  0.1829440153193644  0.8491828279217941  0.882508999064747  1.0000
  O   O3        1.0  0.00013307341789210465  0.1705007681010642  0.1730269245066225  1.0000
  O   O4        1.0  0.9998692021949509  0.8294980034022998  0.8269731813006375  1.0000
  O   O5        1.0  0.045455581131989185  0.9097090221525903  0.11098110914069538  1.0000
  O   O6        1.0  0.9545461181787331  0.0902915430383686  0.8890186661407145  1.0000
  O   O7        1.0  0.14290890248265242  0.7532806300839353  0.23107170335270402  1.0000
  O   O8        1.0  0.8570899226639028  0.2467163477318337  0.7689287152863784  1.0000
  O   O9        1.0  0.41671130338627194  0.5239863699695704  0.31552762793975125  1.0000
  O   O10       1.0  0.5832901077733935  0.4760150920651895  0.6844712110746443  1.0000
  O   O11       1.0  0.6507239823786932  0.167987811779426  0.9484649289520989  1.0000
  O   O12       1.0  0.34927369016362775  0.8320127534115328  0.05153637064342576  1.0000
  O   O13       1.0  0.43205727434155966  0.1462779139643331  0.005762279075952358  1.0000
  O   O14       1.0  0.5679396796597159  0.8537217543828248  0.9942378321018595  1.0000
  O   O15       1.0  0.5761272137510859  0.36023345460369427  0.03809472759456159  1.0000
  O   O16       1.0  0.4238717536343942  0.6397662137434637  0.9619042359241448  1.0000
  O   O17       1.0  0.35611523268102024  0.3413037725620072  0.09330357890437568  1.0000
  O   O18       1.0  0.6438844532455049  0.6586967926289518  0.9066965730320504  1.0000
  O   O19       1.0  0.2171986463885673  0.3375818708008396  0.928944217488116  1.0000
  O   O20       1.0  0.782802046230053  0.6624186943901194  0.07105574612080554  1.0000
  O   O21       1.0  0.022857151712614196  0.299511748424969  0.9143210017356367  1.0000
  O   O22       1.0  0.9771429646038925  0.700490610453592  0.08567940235149506  1.0000
  O   O23       1.0  0.9634880154529953  0.5837968828496614  0.879578107140091  1.0000
  O   O24       1.0  0.03651095193248469  0.4162027854975037  0.1204208563786153  1.0000
  O   O25       1.0  0.8695933992337431  0.6919670069986168  0.7346014279387062  1.0000
  O   O26       1.0  0.13040499184962331  0.3080344550361431  0.2653972050541427  1.0000
  O   O27       1.0  0.6764027344153334  0.926171486906334  0.7737984511587825  1.0000
  O   O28       1.0  0.3235959448190897  0.073829078284632  0.22620266010923024  1.0000
  O   O29       1.0  0.7311524596409101  0.4556289356957564  0.8317449052044026  1.0000
  O   O30       1.0  0.26884621959351307  0.5443716294952026  0.16825543505953533  1.0000
  O   O31       1.0  0.8034745040345967  0.4138620231850537  0.054360253355518834  1.0000
  O   O32       1.0  0.19652446335088314  0.5861376451621112  0.9456402521713443  1.0000
  O   O33       1.0  0.2085960373758553  0.067936814532608  0.024326088359423202  1.0000
  O   O34       1.0  0.7914052315448855  0.932061956970756  0.9756734347712737  1.0000
