data_image0
_chemical_formula_structural       Tb4H112C114N4O34
_chemical_formula_sum              "Tb4 H112 C114 N4 O34"
_cell_length_a       12.648921730799096
_cell_length_b       13.046609956172844
_cell_length_c       25.948527063693202
_cell_angle_alpha    83.98821393772553
_cell_angle_beta     87.24093656782945
_cell_angle_gamma    66.96014499268223

_space_group_name_H-M_alt    "P 1"
_space_group_IT_number       1

loop_
  _space_group_symop_operation_xyz
  'x, y, z'

loop_
  _atom_site_type_symbol
  _atom_site_label
  _atom_site_symmetry_multiplicity
  _atom_site_fract_x
  _atom_site_fract_y
  _atom_site_fract_z
  _atom_site_occupancy
  Tb  Tb1       1.0  0.6362683486299969  0.3106088797242279  0.5035491745875476  1.0000
  Tb  Tb2       1.0  0.36373635086315675  0.6893924774259473  0.4964508627928409  1.0000
  Tb  Tb3       1.0  0.8436945443212802  0.6334226298805204  0.042032065822589004  1.0000
  Tb  Tb4       1.0  0.15631036754956545  0.36658208889500066  0.9579685596946419  1.0000
  H   H1        1.0  0.8328281450499233  0.8882798964717367  0.16447560959809943  1.0000
  H   H2        1.0  0.16717012411891113  0.1117197470628994  0.8355246478789906  1.0000
  H   H3        1.0  0.7522202819615983  0.6110793406635224  0.22960586886542694  1.0000
  H   H4        1.0  0.24777884249704127  0.38892200728704995  0.7703969787226368  1.0000
  H   H5        1.0  0.6967787330221851  0.6955235496410737  0.31460021025122836  1.0000
  H   H6        1.0  0.3032257926641931  0.30447615853790205  0.6854033866333111  1.0000
  H   H7        1.0  0.7445473280733451  0.09532282447985808  0.18467302680297584  1.0000
  H   H8        1.0  0.25544875741088163  0.9046801799215914  0.8153294085429221  1.0000
  H   H9        1.0  0.7143625692860309  0.17931495224841143  0.23762324370989057  1.0000
  H   H10       1.0  0.2856364963163074  0.8206846926004513  0.762376612308955  1.0000
  H   H11       1.0  0.6216501098915115  0.11179403738800889  0.22454927313094686  1.0000
  H   H12       1.0  0.3783504023096144  0.8882098178321768  0.7754514865861067  1.0000
  H   H13       1.0  0.9631998847040036  0.9181136765555281  0.28587015470638727  1.0000
  H   H14       1.0  0.03679430914066731  0.08187840377634358  0.7141313567393934  1.0000
  H   H15       1.0  0.9120761984856002  0.06647907081811157  0.2735168835833547  1.0000
  H   H16       1.0  0.08793118035327299  0.9335097370973953  0.726485307437919  1.0000
  H   H17       1.0  0.9464166613927104  0.9810791758487337  0.22096859442486755  1.0000
  H   H18       1.0  0.05358306015392599  0.0189129359717697  0.7790328043140419  1.0000
  H   H19       1.0  0.629322903721757  0.8288044631028342  0.38782667850064456  1.0000
  H   H20       1.0  0.37069695634307454  0.1711827582630576  0.6121776583372878  1.0000
  H   H21       1.0  0.5910329366105884  0.9774125241357083  0.44875051742098276  1.0000
  H   H22       1.0  0.4089769174322625  0.022577978087611  0.5512519193657608  1.0000
  H   H23       1.0  0.7454216115278667  0.1527115278762139  0.34092138758225576  1.0000
  H   H24       1.0  0.2545677458422657  0.8472905803698795  0.6590789181228729  1.0000
  H   H25       1.0  0.49424566573759393  0.18340430266556504  0.7140589597345154  1.0000
  H   H26       1.0  0.5057681125992416  0.8165962419284936  0.28593785527094434  1.0000
  H   H27       1.0  0.8103187176728354  0.0741338460451928  0.6273668529004935  1.0000
  H   H28       1.0  0.1896921992755552  0.9258599936445149  0.37263268770680463  1.0000
  H   H29       1.0  0.9177678402372745  0.9594428488362822  0.7061886826242797  1.0000
  H   H30       1.0  0.08224420523474409  0.0405560282373827  0.29381056801552313  1.0000
  H   H31       1.0  0.5557927578692983  0.9161584514764555  0.7877012221080901  1.0000
  H   H32       1.0  0.44420685170948093  0.0838437216168302  0.21229964499877949  1.0000
  H   H33       1.0  0.4380638210708199  0.048671770587453984  0.7844513308167648  1.0000
  H   H34       1.0  0.5619391730960712  0.951333775756389  0.21554928930850534  1.0000
  H   H35       1.0  0.4846327101196051  0.9724659518185987  0.8456744226411812  1.0000
  H   H36       1.0  0.5153709477361587  0.027543797214043795  0.15432673192602656  1.0000
  H   H37       1.0  0.5060346614467689  0.1425905979730757  0.8759048211085199  1.0000
  H   H38       1.0  0.49397160008703617  0.8574207848685588  0.12408925743628166  1.0000
  H   H39       1.0  0.4633805749903316  0.21835113214590504  0.8142862979949967  1.0000
  H   H40       1.0  0.5366306359686489  0.7816519004100256  0.18570889500162482  1.0000
  H   H41       1.0  0.5968903206128005  0.20208508937907507  0.8413279321242226  1.0000
  H   H42       1.0  0.40311627202835604  0.7979195906309825  0.15866688083220024  1.0000
  H   H43       1.0  0.9881601046087665  0.8628941223336639  0.7982559331006553  1.0000
  H   H44       1.0  0.011843128000215619  0.13710303399762575  0.20174435665330037  1.0000
  H   H45       1.0  0.6451615638298094  0.9355899804829447  0.9154517754073266  1.0000
  H   H46       1.0  0.3548444375023648  0.0644121935717266  0.08454472396186927  1.0000
  H   H47       1.0  0.00911509172425437  0.7760009153540323  0.8894279161854113  1.0000
  H   H48       1.0  0.9908853408438034  0.22399537686624166  0.11057131949463178  1.0000
  H   H49       1.0  0.911981325897102  0.3666726929998703  0.8538633215275693  1.0000
  H   H50       1.0  0.08802351110264073  0.6333261913506262  0.14614185437992686  1.0000
  H   H51       1.0  0.6850819588682384  0.6883437247652678  0.8987746648310873  1.0000
  H   H52       1.0  0.31493169348575367  0.31166101801920826  0.10122270071729389  1.0000
  H   H53       1.0  0.5786969585045083  0.7310449186729356  0.8151081810132509  1.0000
  H   H54       1.0  0.4213113577484506  0.2689572943500451  0.18489135291104464  1.0000
  H   H55       1.0  0.9308553222931193  0.43549724679834156  0.7166763110044839  1.0000
  H   H56       1.0  0.06913343024444883  0.5645023618606613  0.283326451827932  1.0000
  H   H57       1.0  0.9227691259747743  0.31172957484540126  0.6971923528822473  1.0000
  H   H58       1.0  0.07722569824119328  0.6882725935466565  0.3028113083313144  1.0000
  H   H59       1.0  0.9816937052857213  0.30917926270171847  0.7584273774656936  1.0000
  H   H60       1.0  0.01830307720495483  0.6908220590171367  0.2415739769962926  1.0000
  H   H61       1.0  0.838197478821506  0.23290772070471633  0.8037800455399376  1.0000
  H   H62       1.0  0.16180194293552566  0.7670869403350196  0.19622546324603005  1.0000
  H   H63       1.0  0.7841106342322701  0.23295091727700876  0.741689086131373  1.0000
  H   H64       1.0  0.21588770006326993  0.7670445567245353  0.25831408901810693  1.0000
  H   H65       1.0  0.6885466559257691  0.3036319795454645  0.7904595227935827  1.0000
  H   H66       1.0  0.31145238213801446  0.6963618085893373  0.20954218611472433  1.0000
  H   H67       1.0  0.4959625280776549  0.7328110035603713  0.72486019175043  1.0000
  H   H68       1.0  0.5040380034260749  0.2671811032060702  0.2751400348157275  1.0000
  H   H69       1.0  0.448370020424797  0.692676482728167  0.6389276054462483  1.0000
  H   H70       1.0  0.5516371532895618  0.30731482982849906  0.3610733006204966  1.0000
  H   H71       1.0  0.7214914501138026  0.36684831046689936  0.6530816600657727  1.0000
  H   H72       1.0  0.2785048400035564  0.6331463198427372  0.3469223716950934  1.0000
  H   H73       1.0  0.44765987866713886  0.3167107243123226  0.5710404538139571  1.0000
  H   H74       1.0  0.5523436454612277  0.6832914871935859  0.4289622595742841  1.0000
  H   H75       1.0  0.41957516873170414  0.2993438806407838  0.5118425621758717  1.0000
  H   H76       1.0  0.5804250837591738  0.7006566352430852  0.4881603069051365  1.0000
  H   H77       1.0  0.6717432527067968  0.5187546314205491  0.4698356728379806  1.0000
  H   H78       1.0  0.3282557139598693  0.48124919888214635  0.5301631922947577  1.0000
  H   H79       1.0  0.7790436531659919  0.4347030098750224  0.5016889913446717  1.0000
  H   H80       1.0  0.22095395280535254  0.5652983004214674  0.498310420230055  1.0000
  H   H81       1.0  0.9495232744294951  0.37609777430574104  0.0552826130221717  1.0000
  H   H82       1.0  0.050473097812151514  0.6239085566954259  0.9447161715307502  1.0000
  H   H83       1.0  0.9027125000871266  0.43576579261561915  0.10701178702065306  1.0000
  H   H84       1.0  0.09727693166271927  0.5642362806048524  0.8929842797546497  1.0000
  H   H85       1.0  0.9222047763673656  0.1904267830091868  0.46049102746454906  1.0000
  H   H86       1.0  0.07779066571336556  0.8095720091510188  0.5395097173676502  1.0000
  H   H87       1.0  0.959899106557081  0.1524156540783181  0.5985451577409577  1.0000
  H   H88       1.0  0.04009100618441165  0.8475806051362438  0.40145737010990956  1.0000
  H   H89       1.0  0.1068924803943716  0.13834303289947766  0.591145559453892  1.0000
  H   H90       1.0  0.8930994100532599  0.861650733854823  0.4088586065067971  1.0000
  H   H91       1.0  0.07383278430618387  0.0176353430029295  0.5926620412477773  1.0000
  H   H92       1.0  0.9261581383924025  0.9823609111575634  0.4073393144303309  1.0000
  H   H93       1.0  0.1031832283074152  0.09266428146644756  0.45065136558544333  1.0000
  H   H94       1.0  0.8967934875535727  0.9073377579897722  0.5493495830926562  1.0000
  H   H95       1.0  0.1645908556015668  0.982629815939589  0.5008963508280644  1.0000
  H   H96       1.0  0.8353964122576726  0.0173697391445913  0.499101049204718  1.0000
  H   H97       1.0  0.19405572057124226  0.1058320018101213  0.4981309066518732  1.0000
  H   H98       1.0  0.8059332458524577  0.8941633672645395  0.5018662959932881  1.0000
  H   H99       1.0  0.6536639465541184  0.5632674601240379  0.12325390718515188  1.0000
  H   H100      1.0  0.34632760126241635  0.4367312840711007  0.8767438352939078  1.0000
  H   H101      1.0  0.37823151120932824  0.729742311906229  0.03952040193524199  1.0000
  H   H102      1.0  0.6217602442229406  0.2702580653393625  0.9604718542533843  1.0000
  H   H103      1.0  0.3919235874824593  0.5928928728892727  0.027062904746706792  1.0000
  H   H104      1.0  0.6080750288085355  0.4071041991371018  0.972930545182521  1.0000
  H   H105      1.0  0.49749070978050725  0.6468375559347166  0.0022376824620238024  1.0000
  H   H106      1.0  0.5025074687228963  0.3531586686599155  0.9977550504476083  1.0000
  H   H107      1.0  0.5191577998951332  0.512425512411184  0.1559137869854652  1.0000
  H   H108      1.0  0.4808343600071439  0.48758159763755055  0.8440808015486139  1.0000
  H   H109      1.0  0.44736033311405526  0.4702893884306149  0.10971001557228276  1.0000
  H   H110      1.0  0.5526329277732954  0.5297169022880085  0.8902861358837695  1.0000
  H   H111      1.0  0.3767989748418329  0.6010027674954871  0.13580762455651293  1.0000
  H   H112      1.0  0.6231950100991381  0.3990018278039571  0.8641859045865982  1.0000
  C   C1        1.0  0.8135821314301949  0.7022544734180658  0.14101893507130814  1.0000
  C   C2        1.0  0.1864162236421123  0.2977468604816876  0.8589827725459642  1.0000
  C   C3        1.0  0.7937583431234715  0.7461058180141716  0.1928880570006584  1.0000
  C   C4        1.0  0.20623459719750753  0.2538971620254742  0.8071136720346601  1.0000
  C   C5        1.0  0.8054280820312055  0.847201900463162  0.19817569274766095  1.0000
  C   C6        1.0  0.19457004037802506  0.1527960813636895  0.8018265828045441  1.0000
  C   C7        1.0  0.7583170665362785  0.690261991147892  0.23511959442900116  1.0000
  C   C8        1.0  0.24167710751440544  0.30973596818707694  0.7648827616281152  1.0000
  C   C9        1.0  0.7286224028501846  0.7366023459340238  0.2823916964524925  1.0000
  C   C10       1.0  0.27137842693471004  0.2633948128228809  0.7176105683906895  1.0000
  C   C11       1.0  0.7372214642524636  0.839045541627634  0.2870128264035116  1.0000
  C   C12       1.0  0.2627792322964169  0.16094994905319024  0.7129906858002784  1.0000
  C   C13       1.0  0.77872281212305  0.8922942865323191  0.24538806544005348  1.0000
  C   C14       1.0  0.22126776594458866  0.10770867682805364  0.754613326540955  1.0000
  C   C15       1.0  0.7842795140780298  0.9996430645397465  0.2604537148405868  1.0000
  C   C16       1.0  0.21571589468513244  0.00036161299184559744  0.7395486453174624  1.0000
  C   C17       1.0  0.7115615409749337  0.1028383299471827  0.2246663334778916  1.0000
  C   C18       1.0  0.2884390634000694  0.8971613430033186  0.7753358024825302  1.0000
  C   C19       1.0  0.9092953134100693  0.9903056363803557  0.2602130787891922  1.0000
  C   C20       1.0  0.0907049791601793  0.009688990947978496  0.739787789608712  1.0000
  C   C21       1.0  0.7355113262973703  0.0035116055485531  0.3153504762846139  1.0000
  C   C22       1.0  0.26448623910322777  0.9964897238528247  0.6846512474336491  1.0000
  C   C23       1.0  0.7068495418077917  0.909953591324246  0.32983007155945626  1.0000
  C   C24       1.0  0.29314904543620196  0.09004522519776258  0.6701713795833297  1.0000
  C   C25       1.0  0.6549445134192878  0.8990378314846765  0.37780975988759735  1.0000
  C   C26       1.0  0.3450666810335008  0.10095520029728529  0.622193286528933  1.0000
  C   C27       1.0  0.6333936027848067  0.9817194929373795  0.41144976875213496  1.0000
  C   C28       1.0  0.3666148707687355  0.018274368282824596  0.5885540590879328  1.0000
  C   C29       1.0  0.7195491316661843  0.08220389701112647  0.35001677532115844  1.0000
  C   C30       1.0  0.2804456404552765  0.9177965650950738  0.6499835089659312  1.0000
  C   C31       1.0  0.6682718400890977  0.0709899017082734  0.3984062663079726  1.0000
  C   C32       1.0  0.33172417301524604  0.9290114059597554  0.601593948183222  1.0000
  C   C33       1.0  0.6568727120706938  0.1513736667951378  0.436930042829239  1.0000
  C   C34       1.0  0.34313107803831844  0.8486260114122783  0.5630704872982264  1.0000
  C   C35       1.0  0.5877736741144586  0.20073588114994576  0.6185599310600551  1.0000
  C   C36       1.0  0.41224157012376833  0.7992571253616846  0.3814372544927167  1.0000
  C   C37       1.0  0.6476889014749287  0.1348183631972333  0.6666424151724184  1.0000
  C   C38       1.0  0.35232210337676395  0.865175435098557  0.3333521157905395  1.0000
  C   C39       1.0  0.5865644620432348  0.1346195918806572  0.7133252449367831  1.0000
  C   C40       1.0  0.413448095104705  0.8653742281484682  0.28667079525323647  1.0000
  C   C41       1.0  0.7666104441743045  0.0718059902401293  0.6644370389765156  1.0000
  C   C42       1.0  0.23339791166663562  0.9281844647766561  0.3355608057251159  1.0000
  C   C43       1.0  0.825807144728671  0.008690644964758597  0.7082538796314991  1.0000
  C   C44       1.0  0.17420224697063685  0.9913031602550146  0.29174261031970866  1.0000
  C   C45       1.0  0.7649174656937558  0.008853109158877697  0.7547343897340396  1.0000
  C   C46       1.0  0.2350967769864523  0.9911424006796777  0.24526191232243374  1.0000
  C   C47       1.0  0.6451469970706114  0.07115185835663601  0.7570636703515203  1.0000
  C   C48       1.0  0.35486462364601584  0.9288402954663296  0.24293440401460484  1.0000
  C   C49       1.0  0.5976887548057163  0.051830326339292306  0.8107072816814807  1.0000
  C   C50       1.0  0.4023145980070949  0.948174373887035  0.18929221996594953  1.0000
  C   C51       1.0  0.513821243021489  0.9934322408941229  0.8069187454929789  1.0000
  C   C52       1.0  0.4861811868835915  0.0065707867577416  0.19308201961603536  1.0000
  C   C53       1.0  0.5375452875230167  0.1605718433713861  0.8371818899297094  1.0000
  C   C54       1.0  0.4624626387662898  0.8394353693814695  0.16281391801375378  1.0000
  C   C55       1.0  0.7065693007778929  0.9732189531960953  0.8388960289430825  1.0000
  C   C56       1.0  0.29343657408005436  0.026781549598347002  0.16110133242946026  1.0000
  C   C57       1.0  0.8034046414552944  0.9501022424464479  0.8056644458007297  1.0000
  C   C58       1.0  0.19660280598427696  0.0498982725288926  0.19433326872709955  1.0000
  C   C59       1.0  0.913059913456017  0.8797460520993001  0.8235475887156553  1.0000
  C   C60       1.0  0.08694343210360958  0.12025278186051479  0.1764526097494681  1.0000
  C   C61       1.0  0.7182920419260906  0.922576867314902  0.8891554502839369  1.0000
  C   C62       1.0  0.2817101104745845  0.07742696824470127  0.11084180901584517  1.0000
  C   C63       1.0  0.9246900769804898  0.8305306140272036  0.8743420843099017  1.0000
  C   C64       1.0  0.07531395882379138  0.169466540434172  0.12565741862856325  1.0000
  C   C65       1.0  0.8279836092060364  0.849547858882211  0.9067892913647667  1.0000
  C   C66       1.0  0.1720210835253226  0.15045350145211234  0.09321113137288248  1.0000
  C   C67       1.0  0.8386494492543051  0.78698806519926  0.9588981983986853  1.0000
  C   C68       1.0  0.1613548983547304  0.2130141348842826  0.0411025721022966  1.0000
  C   C69       1.0  0.8679851679542097  0.5058801280051027  0.9301834116888512  1.0000
  C   C70       1.0  0.13201962420420438  0.4941229163260416  0.0698176904744798  1.0000
  C   C71       1.0  0.8033653575611693  0.5256100197997  0.8807195399829338  1.0000
  C   C72       1.0  0.1966419436101816  0.4743947029185093  0.11927988115958497  1.0000
  C   C73       1.0  0.8381290687887385  0.4446992754308852  0.8447407878994537  1.0000
  C   C74       1.0  0.16188048844711034  0.555303783153924  0.1552586762289536  1.0000
  C   C75       1.0  0.7095462791522491  0.6277450671355921  0.869996980383149  1.0000
  C   C76       1.0  0.29046304591190614  0.3722605088269687  0.1300027402197514  1.0000
  C   C77       1.0  0.6503931364274107  0.6510053743783927  0.8234740143828458  1.0000
  C   C78       1.0  0.3496162880637995  0.3490018855809893  0.17652638564572945  1.0000
  C   C79       1.0  0.683721238498528  0.5696991228952654  0.7881532324773984  1.0000
  C   C80       1.0  0.31627359247922726  0.4303030423126444  0.21185004337890936  1.0000
  C   C81       1.0  0.777043159243604  0.4661120248362635  0.7990268035261252  1.0000
  C   C82       1.0  0.22295193095301608  0.5338876102573096  0.20097467442666064  1.0000
  C   C83       1.0  0.7945426481960279  0.3912587585609869  0.7552056684329712  1.0000
  C   C84       1.0  0.2054488112258069  0.6087341575774232  0.2447973951508544  1.0000
  C   C85       1.0  0.9148220617424128  0.3603203228231635  0.7303821476133264  1.0000
  C   C86       1.0  0.0851685949755207  0.6396784646358213  0.2696213913255646  1.0000
  C   C87       1.0  0.7751861506498868  0.28378807986067045  0.7740524667293796  1.0000
  C   C88       1.0  0.2248134106135708  0.7162023766203448  0.22595172079915926  1.0000
  C   C89       1.0  0.7004844995463625  0.46683197775650603  0.7176756079523513  1.0000
  C   C90       1.0  0.29950796192488144  0.5331643045056251  0.282328027667333  1.0000
  C   C91       1.0  0.6365672262414178  0.570280164027885  0.7377610278654598  1.0000
  C   C92       1.0  0.3634317785047826  0.4297195094783107  0.2622422963686971  1.0000
  C   C93       1.0  0.545274736728885  0.6525638737430767  0.7097716558897529  1.0000
  C   C94       1.0  0.4547281367428013  0.347428259255082  0.29023006380248256  1.0000
  C   C95       1.0  0.5187111354267131  0.6306686593735265  0.6617189506772547  1.0000
  C   C96       1.0  0.4812900254655403  0.36932179655179453  0.3382840485775559  1.0000
  C   C97       1.0  0.6738462801964429  0.4457421000619846  0.669678401028051  1.0000
  C   C98       1.0  0.32615117225351753  0.5542575517108616  0.33032341397904463  1.0000
  C   C99       1.0  0.5824735824276671  0.5284758771342909  0.6412960127371715  1.0000
  C   C100      1.0  0.4175240027669176  0.47151957326399  0.35870486636975574  1.0000
  C   C101      1.0  0.5548895019373318  0.5080618578072063  0.5889166254772745  1.0000
  C   C102      1.0  0.44511474575326554  0.4919327888288618  0.4110837770584651  1.0000
  C   C103      1.0  0.9243023550859276  0.18506096405382516  0.5031878395156184  1.0000
  C   C104      1.0  0.07567775159930071  0.8149637855798063  0.49681800222684547  1.0000
  C   C105      1.0  0.042599943042048866  0.10753628498067512  0.5800488989822055  1.0000
  C   C106      1.0  0.9573896981028934  0.8924591427228776  0.41995483863534117  1.0000
  C   C107      1.0  0.1279117109255097  0.0736983310705597  0.4915607337682246  1.0000
  C   C108      1.0  0.8720719131267527  0.9263003808774072  0.5084387111496865  1.0000
  C   C109      1.0  0.6086755411458212  0.603044003208602  0.08653012802053439  1.0000
  C   C110      1.0  0.39132122982110906  0.39695559311950757  0.9134655373714364  1.0000
  C   C111      1.0  0.439744070451269  0.6439745452942631  0.0347187887103502  1.0000
  C   C112      1.0  0.5602527478482029  0.35602502874480985  0.9652741791808237  1.0000
  C   C113      1.0  0.460294751870613  0.5417174857082258  0.12295209297062117  1.0000
  C   C114      1.0  0.5396984028278949  0.45828712419772444  0.8770437644170099  1.0000
  N   N1        1.0  0.027445566172609393  0.1251542048340539  0.5240050909650336  1.0000
  N   N2        1.0  0.9725431858735688  0.8748395343743023  0.47599798332781507  1.0000
  N   N3        1.0  0.5077391857690045  0.5950171602949085  0.08144226472457917  1.0000
  N   N4        1.0  0.4922573998673908  0.40497906167125564  0.9185512711015277  1.0000
  O   O1        1.0  0.8227402045315486  0.7659164919021533  0.10157433528178217  1.0000
  O   O2        1.0  0.17725540886473815  0.23407981153763302  0.8984296212912354  1.0000
  O   O3        1.0  0.8180643543392491  0.603704674849304  0.13637549647521743  1.0000
  O   O4        1.0  0.1819298607735788  0.3962991348314233  0.8636242359779229  1.0000
  O   O5        1.0  0.7338359852855162  0.19302472736990947  0.43687098748597447  1.0000
  O   O6        1.0  0.2661596624111268  0.8069774295997902  0.5631307308403207  1.0000
  O   O7        1.0  0.5740613730650708  0.1764528977685274  0.46970140567455576  1.0000
  O   O8        1.0  0.4259294787277879  0.8235592680105129  0.5302967947675511  1.0000
  O   O9        1.0  0.6457477690101285  0.1883704330704603  0.5763280220627323  1.0000
  O   O10       1.0  0.3542594858457375  0.8116208412764364  0.4236682597169262  1.0000
  O   O11       1.0  0.4819337876121636  0.2661554705750929  0.6218801343361375  1.0000
  O   O12       1.0  0.5180713564303686  0.7338467308226766  0.37812023470659983  1.0000
  O   O13       1.0  0.9372636645555299  0.712921278969894  0.9744618216635883  1.0000
  O   O14       1.0  0.06273719276792626  0.2870817365010723  0.0255385902901395  1.0000
  O   O15       1.0  0.7496341854368255  0.8021728854273815  0.9869958101323275  1.0000
  O   O16       1.0  0.25036612840158057  0.19783347124981523  0.013003279272936697  1.0000
  O   O17       1.0  0.8171087508956985  0.5629657443782463  0.9672714002543042  1.0000
  O   O18       1.0  0.18289952527788966  0.43704235720027634  0.0327301343531019  1.0000
  O   O19       1.0  0.9709528339806184  0.4342618438910363  0.9318471464654291  1.0000
  O   O20       1.0  0.029051639611253652  0.565736158002089  0.06815307349263827  1.0000
  O   O21       1.0  0.4676652341832294  0.5806698573667219  0.565064099637837  1.0000
  O   O22       1.0  0.5323340848589452  0.4193389994532594  0.4349337209138751  1.0000
  O   O23       1.0  0.6213374463135323  0.4184213509347359  0.5702609918468935  1.0000
  O   O24       1.0  0.3786648904348907  0.5815741200855058  0.4297390199396247  1.0000
  O   O25       1.0  0.4330330869683577  0.35298052900863314  0.5314398633349809  1.0000
  O   O26       1.0  0.566964796507399  0.647019973380111  0.468563054048978  1.0000
  O   O27       1.0  0.7304358451293991  0.4395559472901524  0.47281952691982804  1.0000
  O   O28       1.0  0.26956359989561196  0.5604487113393971  0.5271777430889698  1.0000
  O   O29       1.0  0.8829768953114153  0.4365788815477956  0.0710443428547904  1.0000
  O   O30       1.0  0.11701851594296633  0.5634299336754153  0.9289512460582968  1.0000
  O   O31       1.0  0.8351055214619619  0.2313398902853905  0.5292957695948886  1.0000
  O   O32       1.0  0.16489533106524593  0.7686866061723376  0.4707037818743486  1.0000
  O   O33       1.0  0.6509343884030013  0.6519088677151361  0.052599731785384976  1.0000
  O   O34       1.0  0.3490620311711864  0.34809744099699463  0.9473963552667397  1.0000
