data_image0
_chemical_formula_structural       Bi2H26C38N12O10
_chemical_formula_sum              "Bi2 H26 C38 N12 O10"
_cell_length_a       9.897029657443152
_cell_length_b       10.144199397048085
_cell_length_c       10.659444200758385
_cell_angle_alpha    105.43746539624789
_cell_angle_beta     95.53569277551827
_cell_angle_gamma    106.17535103739618

_space_group_name_H-M_alt    "P 1"
_space_group_IT_number       1

loop_
  _space_group_symop_operation_xyz
  'x, y, z'

loop_
  _atom_site_type_symbol
  _atom_site_label
  _atom_site_symmetry_multiplicity
  _atom_site_fract_x
  _atom_site_fract_y
  _atom_site_fract_z
  _atom_site_occupancy
  Bi  Bi1       1.0  0.07836330184886722  0.3626621307664096  0.08521507871238751  1.0000
  Bi  Bi2       1.0  0.9216368564338211  0.6373451531822025  0.9147818460465869  1.0000
  H   H1        1.0  0.8752558894712338  0.7398589636935  0.5701661238316476  1.0000
  H   H2        1.0  0.12474971132188983  0.2601362587216514  0.4298421177613251  1.0000
  H   H3        1.0  0.660818601534011  0.5277419143644907  0.5407809261442722  1.0000
  H   H4        1.0  0.3391849631035413  0.4722533479852374  0.4592243404455374  1.0000
  H   H5        1.0  0.35916563568736143  0.5632871670732343  0.9555539119410097  1.0000
  H   H6        1.0  0.6408284390992237  0.4367071053313367  0.04444372654592846  1.0000
  H   H7        1.0  0.2381847673853486  0.08091774945960142  0.6338075861314678  1.0000
  H   H8        1.0  0.7618160736420664  0.9190787143190208  0.36618932780518776  1.0000
  H   H9        1.0  0.8223813382986549  0.035345120103365005  0.007711108444198116  1.0000
  H   H10       1.0  0.17761747508767914  0.964654546920933  0.9922883651727614  1.0000
  H   H11       1.0  0.4754880378488552  0.26841238865026906  0.6471921917727386  1.0000
  H   H12       1.0  0.5245077240745176  0.7315840835626802  0.3528033597608129  1.0000
  H   H13       1.0  0.10884867211659358  0.8433989648515665  0.5078388535197931  1.0000
  H   H14       1.0  0.8911538770473798  0.1565962963726548  0.4921663275156902  1.0000
  H   H15       1.0  0.1112625303861776  0.1277455741748241  0.2272532303778689  1.0000
  H   H16       1.0  0.888742710472819  0.8722616732157248  0.7727469260472333  1.0000
  H   H17       1.0  0.2588910052235319  0.22596959533614577  0.18817216264699968  1.0000
  H   H18       1.0  0.7411091686843464  0.7740375620556889  0.81183317379557  1.0000
  H   H19       1.0  0.19321924173530647  0.683986220842783  0.32909048479731945  1.0000
  H   H20       1.0  0.8067829634521004  0.3160144715592281  0.6709132997020573  1.0000
  H   H21       1.0  0.5166140137452759  0.27358613666116594  0.416261566897596  1.0000
  H   H22       1.0  0.4833858116423785  0.726413559612368  0.5837361230106594  1.0000
  H   H23       1.0  0.48798644181589884  0.043612093154038696  0.2385820240920395  1.0000
  H   H24       1.0  0.512007618416888  0.9563952262271229  0.7614115834464882  1.0000
  H   H25       1.0  0.5863517971470175  0.9079845759054807  0.05836806827223744  1.0000
  H   H26       1.0  0.4136405709067716  0.09201735223246739  0.9416239607992266  1.0000
  C   C1        1.0  0.9133439912564398  0.675483161852796  0.49113438452322095  1.0000
  C   C2        1.0  0.08665483461518161  0.3245099394976165  0.5088699084624793  1.0000
  C   C3        1.0  0.6966290511391834  0.4644817936149581  0.458805025692513  1.0000
  C   C4        1.0  0.30337450795760657  0.5355199781611972  0.541199160054596  1.0000
  C   C5        1.0  0.8835316170764501  0.4502260547296262  0.32256738541829577  1.0000
  C   C6        1.0  0.11646787334765922  0.5497725351715346  0.6774318580595704  1.0000
  C   C7        1.0  0.33706100033586484  0.45685392576642403  0.8844245809682503  1.0000
  C   C8        1.0  0.6629378220634976  0.5431392037077175  0.11557784275443338  1.0000
  C   C9        1.0  0.05405837949000161  0.10742977421111281  0.8074880736323209  1.0000
  C   C10       1.0  0.9459448501840129  0.8925643817662421  0.1925187465270924  1.0000
  C   C11       1.0  0.2712229725146358  0.18861956137276792  0.7045621889370324  1.0000
  C   C12       1.0  0.7287741539010925  0.8113746722227263  0.2954385101073953  1.0000
  C   C13       1.0  0.8301813659508426  0.530872859046269  0.4252789993191612  1.0000
  C   C14       1.0  0.16982117626859863  0.46912245842540296  0.5747224431902821  1.0000
  C   C15       1.0  0.7757502323943655  0.08982545472968441  0.0863201855738609  1.0000
  C   C16       1.0  0.22425060639836403  0.9101807239720543  0.9136783783090435  1.0000
  C   C17       1.0  0.39957542552335207  0.29259587752923016  0.7102278826096367  1.0000
  C   C18       1.0  0.6004223796662913  0.7073972648812656  0.28977352092721287  1.0000
  C   C19       1.0  0.04355504965590034  0.7322583698027715  0.4572020017364054  1.0000
  C   C20       1.0  0.9564491970616515  0.2677390068586476  0.5428067001347543  1.0000
  C   C21       1.0  0.8006752826773322  0.3025561530863641  0.2512388844635112  1.0000
  C   C22       1.0  0.1993228484628133  0.6974446332466612  0.7487580153980103  1.0000
  C   C23       1.0  0.43343487245751794  0.43049325230540353  0.8009491849002898  1.0000
  C   C24       1.0  0.5665608894658547  0.5695032199075456  0.1990463666332545  1.0000
  C   C25       1.0  0.18536654489430757  0.2214376274638568  0.7973250034760753  1.0000
  C   C26       1.0  0.8146305796190988  0.7785598538139239  0.20267562246275617  1.0000
  C   C27       1.0  0.08976939034419475  0.6444103603476848  0.3566178466544798  1.0000
  C   C28       1.0  0.9102348456241957  0.35559356792575875  0.6433869704794546  1.0000
  C   C29       1.0  0.6188776782339644  0.3245268678896593  0.3917338888840831  1.0000
  C   C30       1.0  0.38112384470726113  0.6754749438210723  0.6082673218598487  1.0000
  C   C31       1.0  0.57491150307456  0.5445681163635854  0.8175650737441059  1.0000
  C   C32       1.0  0.42508797709894713  0.4554273242883369  0.18242770041877776  1.0000
  C   C33       1.0  0.6682667198552679  0.24040326209703972  0.2866515738850524  1.0000
  C   C34       1.0  0.33173005911162795  0.7595964307999736  0.7133458593602454  1.0000
  C   C35       1.0  0.5903969890879849  0.095554392773316  0.2152642539430474  1.0000
  C   C36       1.0  0.40960045269527284  0.9044508027363141  0.7847271951629081  1.0000
  C   C37       1.0  0.6441059797839586  0.0198669895845711  0.11528987026306234  1.0000
  C   C38       1.0  0.3558907972806225  0.9801359509947289  0.8847074898766393  1.0000
  N   N1        1.0  0.8513489665258619  0.22642801987256433  0.15231366784757944  1.0000
  N   N2        1.0  0.148654582154137  0.7735738362747782  0.8476849101104661  1.0000
  N   N3        1.0  0.21911039750016673  0.3532359594082734  0.8857848818208183  1.0000
  N   N4        1.0  0.7808833352121667  0.6467604964917939  0.11421143323560298  1.0000
  N   N5        1.0  0.22809897234449755  0.7171421691484455  0.11278618819063276  1.0000
  N   N6        1.0  0.7719099954452986  0.2828639763717575  0.8872158640213569  1.0000
  N   N7        1.0  0.12723551660049992  0.6129747350688532  0.051245489179365195  1.0000
  N   N8        1.0  0.8727707398982643  0.387029279826784  0.948753891274137  1.0000
  N   N9        1.0  0.011321735802852147  0.5085413776850913  0.29068759055441257  1.0000
  N   N10       1.0  0.9886743765430595  0.49145930796387927  0.7093156806190422  1.0000
  N   N11       1.0  0.3256830128718989  0.816333390243301  0.17289274582241632  1.0000
  N   N12       1.0  0.6743235893395578  0.183665179412678  0.8271089657987075  1.0000
  O   O1        1.0  0.584507114941232  0.6758358221757919  0.8619669453635054  1.0000
  O   O2        1.0  0.4154913497586889  0.3241596173506239  0.1380257432450591  1.0000
  O   O3        1.0  0.6771929257282423  0.494348842301683  0.7873338350713864  1.0000
  O   O4        1.0  0.3228075593358711  0.5056499174673519  0.21265427838267206  1.0000
  O   O5        1.0  0.0012439620738434168  0.13512060514072743  0.9131484751433732  1.0000
  O   O6        1.0  0.998757569714229  0.8648779026402735  0.08685654723220176  1.0000
  O   O7        1.0  0.005855013628590293  0.990792019956338  0.7146218853253642  1.0000
  O   O8        1.0  0.9941292460955325  0.009213006241203902  0.2853787325210533  1.0000
  O   O9        1.0  0.16583495253482994  0.22274017279047342  0.2170650693432847  1.0000
  O   O10       1.0  0.8341723467170751  0.7772733191021076  0.7829519353464677  1.0000
