data_image0
_chemical_formula_structural       La2H44C48N6O16
_chemical_formula_sum              "La2 H44 C48 N6 O16"
_cell_length_a       8.27372855188533
_cell_length_b       12.626474982337221
_cell_length_c       14.420630154542431
_cell_angle_alpha    109.86011948183338
_cell_angle_beta     97.82926327315472
_cell_angle_gamma    100.93393153306174

_space_group_name_H-M_alt    "P 1"
_space_group_IT_number       1

loop_
  _space_group_symop_operation_xyz
  'x, y, z'

loop_
  _atom_site_type_symbol
  _atom_site_label
  _atom_site_symmetry_multiplicity
  _atom_site_fract_x
  _atom_site_fract_y
  _atom_site_fract_z
  _atom_site_occupancy
  La  La1       1.0  0.7812223323126375  0.5706723725414021  0.5260671582377584  1.0000
  La  La2       1.0  0.21878072730987697  0.42932823136805337  0.4739317947678572  1.0000
  H   H1        1.0  0.5140807572763961  0.4951358866024122  0.3286249834632073  1.0000
  H   H2        1.0  0.4859210917721908  0.5048647165922515  0.6713731757921337  1.0000
  H   H3        1.0  0.6753745601816803  0.5398799693347127  0.2872199729276872  1.0000
  H   H4        1.0  0.32462544677652255  0.4601154181416757  0.712775766241009  1.0000
  H   H5        1.0  0.026566809957579103  0.6492964241097283  0.40460975276018024  1.0000
  H   H6        1.0  0.9734322635989302  0.3507102161586531  0.5953927733873243  1.0000
  H   H7        1.0  0.918163842648809  0.7455437467132737  0.41842620358789867  1.0000
  H   H8        1.0  0.081830314919543  0.25445938348449454  0.5815755502798226  1.0000
  H   H9        1.0  0.8517882107303051  0.4162967656282175  0.8126677667406029  1.0000
  H   H10       1.0  0.14820698515773498  0.5837159703618723  0.18733211799328592  1.0000
  H   H11       1.0  0.6716272087366733  0.6145330890628101  0.8655795037455719  1.0000
  H   H12       1.0  0.3283565151369956  0.3854716897269269  0.1344246594767426  1.0000
  H   H13       1.0  0.6112275440490009  0.6879504035818584  0.026179771986001334  1.0000
  H   H14       1.0  0.3887610433538313  0.31204745598633105  0.9738227045936085  1.0000
  H   H15       1.0  0.600675304385625  0.6789152120848667  0.19505689187354847  1.0000
  H   H16       1.0  0.3993255091981496  0.32108272058993487  0.8049466171470671  1.0000
  H   H17       1.0  0.8338205632163493  0.408361750131654  0.1389919103218419  1.0000
  H   H18       1.0  0.16618038142586758  0.5916327874614423  0.8610022628152052  1.0000
  H   H19       1.0  0.8514396509995806  0.4028768772028143  0.9667183221407641  1.0000
  H   H20       1.0  0.14854024828927948  0.5971166921068232  0.03327104555849305  1.0000
  H   H21       1.0  0.7221304054192573  0.24730583932611683  0.45677176530205094  1.0000
  H   H22       1.0  0.2778821048921215  0.7527008747636683  0.5432325870367265  1.0000
  H   H23       1.0  0.3913864006894912  0.05355280440306839  0.37367943884596855  1.0000
  H   H24       1.0  0.6086263023286165  0.9464540152205743  0.6263138653941169  1.0000
  H   H25       1.0  0.4186272890690929  0.8658974440779372  0.37344407392939155  1.0000
  H   H26       1.0  0.5813715612016211  0.13411183961204637  0.6265550707272425  1.0000
  H   H27       1.0  0.5967516320795596  0.7260040039220641  0.3733637348784599  1.0000
  H   H28       1.0  0.40323675612581406  0.2739965122594583  0.6266339791979476  1.0000
  H   H29       1.0  0.025675207773460326  0.9639593641506179  0.3847051774468824  1.0000
  H   H30       1.0  0.974326255705364  0.0360299261744643  0.6152916156348951  1.0000
  H   H31       1.0  0.8716049652628968  0.11482093552890398  0.38914913351733565  1.0000
  H   H32       1.0  0.12840783774442588  0.8851762394420103  0.6108509766438602  1.0000
  H   H33       1.0  0.608325236944566  0.3178894832499779  0.2825696814126745  1.0000
  H   H34       1.0  0.3916743525936751  0.68210497447793  0.7174319840481189  1.0000
  H   H35       1.0  0.8116347409565208  0.1862969087591892  0.13991716290533418  1.0000
  H   H36       1.0  0.18836577564900372  0.8137001601257905  0.860085367345704  1.0000
  H   H37       1.0  0.6775445793793722  0.1311749419708406  0.958747781917353  1.0000
  H   H38       1.0  0.3224565552709961  0.8688238676855135  0.04125532486051503  1.0000
  H   H39       1.0  0.4126088753013022  0.05215479293442369  0.8248930145371959  1.0000
  H   H40       1.0  0.5873959512916965  0.947844051845642  0.17510902096063305  1.0000
  H   H41       1.0  0.11661608484830308  0.10799025686574028  0.0376326888986327  1.0000
  H   H42       1.0  0.8833844678897265  0.8920068318068315  0.9623677698339039  1.0000
  H   H43       1.0  0.36564909929209927  0.18954687451794425  0.17999867320563823  1.0000
  H   H44       1.0  0.6343511458509425  0.8104528114051701  0.8200032375792006  1.0000
  C   C1        1.0  0.777139262157952  0.5009505002626823  0.7088996986196818  1.0000
  C   C2        1.0  0.22285251039505732  0.4990526482931016  0.2910983962290032  1.0000
  C   C3        1.0  0.7892450817505149  0.48284523669377677  0.8058118640622  1.0000
  C   C4        1.0  0.21075623784473405  0.5171640748092583  0.19418610607030473  1.0000
  C   C5        1.0  0.7296260249615614  0.5496293689975003  0.8810516140104666  1.0000
  C   C6        1.0  0.2703669716369815  0.45037725450517024  0.11894832439803345  1.0000
  C   C7        1.0  0.7322309161874685  0.5460236646008738  0.9810358841756042  1.0000
  C   C8        1.0  0.2677541238027814  0.45397423899399303  0.018959377610031  1.0000
  C   C9        1.0  0.6627543800307691  0.6247257796649706  0.04828972101288541  1.0000
  C   C10       1.0  0.3372360600791779  0.3752738345811224  0.9517127448314824  1.0000
  C   C11       1.0  0.6571019443015019  0.6200371623230154  0.14264606734932536  1.0000
  C   C12       1.0  0.3428918652570374  0.3799581424290109  0.8573539891420481  1.0000
  C   C13       1.0  0.7858806543028649  0.4689429719732487  0.11085958172532176  1.0000
  C   C14       1.0  0.21411722848574746  0.5310532778633783  0.8891355487124245  1.0000
  C   C15       1.0  0.795776233699236  0.4665537713703926  0.014747965297168295  1.0000
  C   C16       1.0  0.2042054701200655  0.5334415262336876  0.985244153691518  1.0000
  C   C17       1.0  0.4703671414474968  0.2812213820517401  0.44248351010294595  1.0000
  C   C18       1.0  0.529640228162492  0.7187809977528088  0.5575149481494606  1.0000
  C   C19       1.0  0.5877612610185706  0.2046178436943079  0.4307682101262031  1.0000
  C   C20       1.0  0.41225558336862617  0.7953906594823007  0.5692342664470261  1.0000
  C   C21       1.0  0.5284321827172321  0.0881083166913754  0.3936497581881895  1.0000
  C   C22       1.0  0.4715871430386683  0.9119002208941535  0.6063508533547407  1.0000
  C   C23       1.0  0.6301176171549016  0.004045267302018398  0.3838722436022408  1.0000
  C   C24       1.0  0.3698955459064024  0.995959739710507  0.6161288734291334  1.0000
  C   C25       1.0  0.5532876947486542  0.8910068031352835  0.37582479596991203  1.0000
  C   C26       1.0  0.4467153556845602  0.10900072945076289  0.6241783281733078  1.0000
  C   C27       1.0  0.6513733185992264  0.8129802269901986  0.375794640732714  1.0000
  C   C28       1.0  0.34862147967487533  0.18702118953445523  0.6242045683337807  1.0000
  C   C29       1.0  0.8906697658143372  0.9452484157376301  0.38278776057340025  1.0000
  C   C30       1.0  0.10933261411503992  0.05474694678488848  0.6172123281205019  1.0000
  C   C31       1.0  0.8038798148587317  0.030002822607635  0.38527358767967707  1.0000
  C   C32       1.0  0.1961314338471708  0.9699969291114311  0.6147292523020697  1.0000
  C   C33       1.0  0.875544262698156  0.32715678329519443  0.33142615719913243  1.0000
  C   C34       1.0  0.12445772389959579  0.6728376626705665  0.6685784767745347  1.0000
  C   C35       1.0  0.7127459466101059  0.2839923365729362  0.2568440454756243  1.0000
  C   C36       1.0  0.28725482941372593  0.7160021086780332  0.7431597947477828  1.0000
  C   C37       1.0  0.6988856801467165  0.21254287420682516  0.16088425754266922  1.0000
  C   C38       1.0  0.30111696062839843  0.7874533323179161  0.8391188814393261  1.0000
  C   C39       1.0  0.5455243318326524  0.168870740593924  0.08171232305092253  1.0000
  C   C40       1.0  0.45448018573791416  0.8311272338004584  0.9182894241834915  1.0000
  C   C41       1.0  0.5551822228754447  0.12902741615056357  0.9794859321638469  1.0000
  C   C42       1.0  0.44481618160465797  0.8709705216905093  0.020515298850071525  1.0000
  C   C43       1.0  0.4071017850390035  0.08447588821989879  0.9047187395421687  1.0000
  C   C44       1.0  0.5928950878005708  0.9155211719248298  0.09528209996422993  1.0000
  C   C45       1.0  0.2432534987368768  0.11518692972773437  0.0222844534920199  1.0000
  C   C46       1.0  0.7567470299128158  0.8848101457531068  0.9777173862528484  1.0000
  C   C47       1.0  0.3832554159059498  0.1617305104035509  0.10250761690310381  1.0000
  C   C48       1.0  0.6167466564284325  0.8382674493695033  0.8974939238431079  1.0000
  N   N1        1.0  0.716868316142957  0.5435894857666028  0.17420720560977543  1.0000
  N   N2        1.0  0.2831331742790866  0.4564067530226766  0.825791687091112  1.0000
  N   N3        1.0  0.8181789883402215  0.839008656167685  0.3799206282188976  1.0000
  N   N4        1.0  0.18181636490300684  0.16098753287655396  0.6200791292738189  1.0000
  N   N5        1.0  0.2520430913430971  0.0763703135424407  0.924350374875445  1.0000
  N   N6        1.0  0.7479571282841704  0.9236258915527101  0.07565117660600862  1.0000
  O   O1        1.0  0.8561539390566466  0.45032453507370435  0.6445403553422651  1.0000
  O   O2        1.0  0.14384729480197211  0.5496812626220373  0.355460708017688  1.0000
  O   O3        1.0  0.6884947011608772  0.5685702988202692  0.6926226478787925  1.0000
  O   O4        1.0  0.31149741511963913  0.43143027227257125  0.3073719233990743  1.0000
  O   O5        1.0  0.533234553133326  0.3920697008601265  0.4748110016820206  1.0000
  O   O6        1.0  0.4667685440491312  0.6079343904731616  0.5251876201208034  1.0000
  O   O7        1.0  0.3120119180138303  0.23837217405327485  0.42224878884134404  1.0000
  O   O8        1.0  0.6879981427790441  0.7616241225064968  0.577750136062079  1.0000
  O   O9        1.0  0.8884612644506832  0.41122355985925924  0.4161995044605008  1.0000
  O   O10       1.0  0.11154605698262537  0.588778793561829  0.583801715816577  1.0000
  O   O11       1.0  0.9980800748911349  0.28324976167616  0.3122719088562249  1.0000
  O   O12       1.0  0.0019128473684872143  0.7167332542867368  0.6877375412968619  1.0000
  O   O13       1.0  0.6339349911434623  0.5414020705439169  0.35019626962596107  1.0000
  O   O14       1.0  0.366065621815423  0.45859505110799137  0.6498007365757346  1.0000
  O   O15       1.0  0.9665555575567383  0.6960901363823949  0.4510830490307711  1.0000
  O   O16       1.0  0.033441663292656174  0.30391474920807576  0.5489194878519754  1.0000
