data_image0
_chemical_formula_structural       Zn2H34C42N4O10
_chemical_formula_sum              "Zn2 H34 C42 N4 O10"
_cell_length_a       9.609127039758103
_cell_length_b       9.759366782047891
_cell_length_c       11.216434341126483
_cell_angle_alpha    91.22827486761149
_cell_angle_beta     106.64408718830506
_cell_angle_gamma    109.0464597195704

_space_group_name_H-M_alt    "P 1"
_space_group_IT_number       1

loop_
  _space_group_symop_operation_xyz
  'x, y, z'

loop_
  _atom_site_type_symbol
  _atom_site_label
  _atom_site_symmetry_multiplicity
  _atom_site_fract_x
  _atom_site_fract_y
  _atom_site_fract_z
  _atom_site_occupancy
  Zn  Zn1       1.0  0.042486219849997967  0.9771659705782483  0.8818774297109255  1.0000
  Zn  Zn2       1.0  0.9575145685687545  0.022834097969706604  0.11812158156622128  1.0000
  H   H1        1.0  0.228335386399408  0.6288535957507762  0.9841345980339751  1.0000
  H   H2        1.0  0.7716664818072518  0.37114648193657035  0.015868246554241225  1.0000
  H   H3        1.0  0.3636626153864384  0.46844428394089727  0.09415455918978916  1.0000
  H   H4        1.0  0.6363389615217018  0.5315579804740693  0.9058500330121431  1.0000
  H   H5        1.0  0.19531004026507756  0.5088142889498144  0.4053230773127153  1.0000
  H   H6        1.0  0.8046849042122374  0.4911846836090703  0.594678928657167  1.0000
  H   H7        1.0  0.06625045280641464  0.6766530202138838  0.29529904099360477  1.0000
  H   H8        1.0  0.9337478684231968  0.32334923209621286  0.7047020714677641  1.0000
  H   H9        1.0  0.6777765744000348  0.5220402046747736  0.42064516076479197  1.0000
  H   H10       1.0  0.3222235266627465  0.4779609543687684  0.579353698796197  1.0000
  H   H11       1.0  0.8867851921101532  0.4655426103431213  0.3600702379957567  1.0000
  H   H12       1.0  0.11321233156627397  0.5344574546073491  0.6399297492034178  1.0000
  H   H13       1.0  0.8161227305361792  0.2673083986623936  0.1868351146950502  1.0000
  H   H14       1.0  0.18387805425705747  0.732691673288521  0.8131656788471272  1.0000
  H   H15       1.0  0.5380494162135747  0.1283169958990413  0.07396404881321673  1.0000
  H   H16       1.0  0.46195068122369787  0.8716841665474605  0.9260365930128029  1.0000
  H   H17       1.0  0.32943089468255954  0.1918187225588284  0.8463127395421705  1.0000
  H   H18       1.0  0.6705667482548705  0.8081846117394564  0.15368376554044968  1.0000
  H   H19       1.0  0.34940779278959877  0.26075286555324345  0.7033505408787233  1.0000
  H   H20       1.0  0.6505901360080772  0.7392482871218676  0.2966468899877411  1.0000
  H   H21       1.0  0.4570463226092372  0.15173507490573  0.7753035377039479  1.0000
  H   H22       1.0  0.5429506329722288  0.8482693498881418  0.2246928156625074  1.0000
  H   H23       1.0  0.8898496964014129  0.7680069777025198  0.6292400318253326  1.0000
  H   H24       1.0  0.11015137787758532  0.23199090922225457  0.3707599052356584  1.0000
  H   H25       1.0  0.025293195496828996  0.7934413889052581  0.4380639534726212  1.0000
  H   H26       1.0  0.9747093636913107  0.20655759488354164  0.5619372605667293  1.0000
  H   H27       1.0  0.35033189868217113  0.1461536513831874  0.5104625417063529  1.0000
  H   H28       1.0  0.6496699804010362  0.853846416095287  0.48953495608676423  1.0000
  H   H29       1.0  0.24238062714042025  0.9911668942812  0.3981855777979744  1.0000
  H   H30       1.0  0.7576208504470615  0.0088320820696879  0.6018126940628221  1.0000
  H   H31       1.0  0.3990797864297519  0.8492794654307049  0.5213123460061977  1.0000
  H   H32       1.0  0.6009231742541132  0.15072060948568833  0.4786880939654735  1.0000
  H   H33       1.0  0.5035616858817847  0.0011184830741228999  0.6379302638778268  1.0000
  H   H34       1.0  0.4964401877631487  0.9988815895087911  0.36206990731284344  1.0000
  C   C1        1.0  0.07323049329542637  0.7742257217788193  0.07426411276165369  1.0000
  C   C2        1.0  0.9267688047759111  0.22577325500954265  0.9257362949346869  1.0000
  C   C3        1.0  0.14105173354642633  0.6642119845985165  0.13419378204203974  1.0000
  C   C4        1.0  0.8589483638908464  0.33578917784798534  0.8658068597839799  1.0000
  C   C5        1.0  0.22209988135534794  0.602647892307779  0.07659499168225639  1.0000
  C   C6        1.0  0.777900899812373  0.3973521830460954  0.923407584124966  1.0000
  C   C7        1.0  0.29724228565729766  0.5122766814904695  0.13851739617291509  1.0000
  C   C8        1.0  0.7027566109183142  0.4877212041703062  0.8614837855911046  1.0000
  C   C9        1.0  0.28906840352757973  0.4784153578241331  0.2579319295007281  1.0000
  C   C10       1.0  0.71093415566056  0.5215836259646665  0.7420692845386226  1.0000
  C   C11       1.0  0.20224150146286493  0.5356475940548722  0.31309002202456776  1.0000
  C   C12       1.0  0.7977577984212304  0.4643513810320101  0.6869094945392574  1.0000
  C   C13       1.0  0.1304611620666805  0.6283951553522159  0.252377282705531  1.0000
  C   C14       1.0  0.8695404220924987  0.37160710225683163  0.7476237449663257  1.0000
  C   C15       1.0  0.3756552377579396  0.3901009534644119  0.33075269479821395  1.0000
  C   C16       1.0  0.6243429660234272  0.6098980277963905  0.669251008647194  1.0000
  C   C17       1.0  0.4934139225444838  0.3540383851527694  0.2846508760664718  1.0000
  C   C18       1.0  0.5065853737140883  0.6459605933370725  0.715350422762384  1.0000
  C   C19       1.0  0.6496106826245622  0.4350692351648391  0.3457318761360425  1.0000
  C   C20       1.0  0.35038981630843585  0.5649330184092565  0.6542679916222978  1.0000
  C   C21       1.0  0.7651980692744048  0.40352709899315903  0.31113874643259  1.0000
  C   C22       1.0  0.23480054325371927  0.5964729665893175  0.6888606184150773  1.0000
  C   C23       1.0  0.7262381885766871  0.2924600182039044  0.21408682139794874  1.0000
  C   C24       1.0  0.2737596227727437  0.7075378634219119  0.7859132004525546  1.0000
  C   C25       1.0  0.5708367929893113  0.2142545938553724  0.15090397388107848  1.0000
  C   C26       1.0  0.4291629029522284  0.785745477463536  0.8490974420126205  1.0000
  C   C27       1.0  0.4535988018199646  0.24371548244958768  0.18579069351299887  1.0000
  C   C28       1.0  0.5464008959343404  0.7562845871678477  0.8142098312481777  1.0000
  C   C29       1.0  0.2871473046150684  0.15583480920535212  0.11992568766757468  1.0000
  C   C30       1.0  0.7128534819909262  0.8441652610440826  0.8800742147420874  1.0000
  C   C31       1.0  0.3445300273210847  0.16667085165138223  0.7563005431841245  1.0000
  C   C32       1.0  0.6554672141206197  0.8333313915193161  0.24369673596616784  1.0000
  C   C33       1.0  0.21486941376035423  0.0337362518045197  0.6853107945371874  1.0000
  C   C34       1.0  0.7851296038890113  0.9662649015025836  0.31468601397776297  1.0000
  C   C35       1.0  0.9981641878747779  0.8446997817690801  0.6244372489938782  1.0000
  C   C36       1.0  0.001836998414184212  0.15530138130942114  0.3755627704806273  1.0000
  C   C37       1.0  0.06370753828174003  0.8552087660397734  0.52994942326724  1.0000
  C   C38       1.0  0.9362928486412869  0.14479021138059522  0.47005036207758616  1.0000
  C   C39       1.0  0.3082357198487315  0.026167013213424205  0.49803516094921446  1.0000
  C   C40       1.0  0.6917661574217108  0.9738330559665301  0.5019632279764109  1.0000
  C   C41       1.0  0.4431623311468016  0.969586151469315  0.5366264013117785  1.0000
  C   C42       1.0  0.5568391428151642  0.030412828284525514  0.46337365281404874  1.0000
  N   N1        1.0  0.09286185636074851  0.955974465400459  0.7206125173152527  1.0000
  N   N2        1.0  0.90713824470204  0.04402669364308311  0.2793863422457292  1.0000
  N   N3        1.0  0.1995543380226507  0.974194943694492  0.5692508042574358  1.0000
  N   N4        1.0  0.800445365169928  0.0258051208185037  0.4307470471061946  1.0000
  O   O1        1.0  0.07905374119989254  0.7974919273296592  0.9644644646047521  1.0000
  O   O2        1.0  0.9209466439103764  0.20250705179218195  0.03553621187258933  1.0000
  O   O3        1.0  0.019152707110130437  0.8378274647666119  0.14085416291769084  1.0000
  O   O4        1.0  0.9808469924569324  0.16217260314934384  0.8591454707109701  1.0000
  O   O5        1.0  0.3652282352142607  0.3591322957986662  0.4350789653804766  1.0000
  O   O6        1.0  0.6347698583698931  0.6408634076069293  0.5649237645189017  1.0000
  O   O7        1.0  0.19244548272243386  0.14718721646228525  0.18138176407789786  1.0000
  O   O8        1.0  0.807554216844622  0.8528128514536705  0.8186178695507633  1.0000
  O   O9        1.0  0.25473883194917596  0.09682603026246284  0.008705200836807607  1.0000
  O   O10       1.0  0.7452612673008546  0.9031751304825592  0.9912945498566896  1.0000
