data_image0
_chemical_formula_structural       Hg4H44C44Br8N12
_chemical_formula_sum              "Hg4 H44 C44 Br8 N12"
_cell_length_a       8.327791787966227
_cell_length_b       12.791023439
_cell_length_c       12.8723
_cell_angle_alpha    90.0
_cell_angle_beta     98.47784425077928
_cell_angle_gamma    90.0

_space_group_name_H-M_alt    "P 1"
_space_group_IT_number       1

loop_
  _space_group_symop_operation_xyz
  'x, y, z'

loop_
  _atom_site_type_symbol
  _atom_site_label
  _atom_site_symmetry_multiplicity
  _atom_site_fract_x
  _atom_site_fract_y
  _atom_site_fract_z
  _atom_site_occupancy
  Hg  Hg1       1.0  0.2608199398386333  0.6739233995707465  0.748742597186009  1.0000
  Hg  Hg2       1.0  0.2391792372076296  0.1739266611940451  0.7512558094410905  1.0000
  Hg  Hg3       1.0  0.739179628318567  0.3260755497705574  0.2512558855877742  1.0000
  Hg  Hg4       1.0  0.7608179028202426  0.8260746335420704  0.24874399546517617  1.0000
  H   H1        1.0  0.3040248590268249  0.7853484162472454  0.9671941909718099  1.0000
  H   H2        1.0  0.1959791742780936  0.2853485506774547  0.5328062325619669  1.0000
  H   H3        1.0  0.6959734950657079  0.2146505330940656  0.0328057297301569  1.0000
  H   H4        1.0  0.8040228220084271  0.7146488350673081  0.4671940355271005  1.0000
  H   H5        1.0  0.1542639124322989  0.5502100776816476  0.1433229593867082  1.0000
  H   H6        1.0  0.345735264613964  0.0502109939101345  0.3566793315501045  1.0000
  H   H7        1.0  0.8457320135309061  0.4497880898613857  0.8566782834477493  1.0000
  H   H8        1.0  0.6542679457372245  0.9497895190277106  0.6433226060585396  1.0000
  H   H9        1.0  0.2851886457690397  0.3725214032109179  0.142730342918135  1.0000
  H   H10       1.0  0.2148093172125627  0.8725236141755132  0.3572702784990938  1.0000
  H   H11       1.0  0.7148109223881602  0.6274775461303861  0.8572673629936958  1.0000
  H   H12       1.0  0.7851914650092977  0.1274784623588729  0.6427306506562118  1.0000
  H   H13       1.0  0.400797953372816  0.3166196996912589  0.9814777530100969  1.0000
  H   H14       1.0  0.09920122367345387  0.8166219106558543  0.5185245379267158  1.0000
  H   H15       1.0  0.5992004007197167  0.6833800314483156  0.018519837106033808  1.0000
  H   H16       1.0  0.9008007726130742  0.1833801658785319  0.4814757301623445  1.0000
  H   H17       1.0  0.3866237484237587  0.44053707092890443  0.8314857350678224  1.0000
  H   H18       1.0  0.1133802848811669  0.9405392818934999  0.6685170190517837  1.0000
  H   H19       1.0  0.6133782478627694  0.5594642238072112  0.1685137561592924  1.0000
  H   H20       1.0  0.8866204973407006  0.0594627946408863  0.33148235637963097  1.0000
  H   H21       1.0  0.9892004629733151  0.6738733644814516  0.9343817317504488  1.0000
  H   H22       1.0  0.5108031384888108  0.1738750625082019  0.5656187282809881  1.0000
  H   H23       1.0  0.010796677054557297  0.3261248030615889  0.0656172962938726  1.0000
  H   H24       1.0  0.4892000718623848  0.8261254504296431  0.4343832093276561  1.0000
  H   H25       1.0  0.0827943538077918  0.7071263721104657  0.0628838686744686  1.0000
  H   H26       1.0  0.41720967949713367  0.2071249429441409  0.4371157779973629  1.0000
  H   H27       1.0  0.9172027862200807  0.2928733590291088  0.9371151593698598  1.0000
  H   H28       1.0  0.5827959589833895  0.7928740063971702  0.5628856143407361  1.0000
  H   H29       1.0  0.3139000610016112  0.9491734619907106  0.8750726734767013  1.0000
  H   H30       1.0  0.1861039723033073  0.4491743782191975  0.6249215351615192  1.0000
  H   H31       1.0  0.6860982930909216  0.0508247055523228  0.1249202554677709  1.0000
  H   H32       1.0  0.8138919536598976  0.5508237893238359  0.3750773770871092  1.0000
  H   H33       1.0  0.859049088827369  0.8084396099588744  0.9276679216119916  1.0000
  H   H34       1.0  0.6409581548287449  0.3084397443890907  0.572335216392375  1.0000
  H   H35       1.0  0.1409504793298311  0.1915601211807001  0.07233599919539559  1.0000
  H   H36       1.0  0.3590438414577832  0.6915599867504838  0.4276642748347399  1.0000
  H   H37       1.0  0.7237561508305248  0.9752268893485194  0.8691597539194119  1.0000
  H   H38       1.0  0.7762486646962612  0.4752285873752768  0.6308431524935614  1.0000
  H   H39       1.0  0.2762434173266755  0.0247736235893257  0.1308441668879752  1.0000
  H   H40       1.0  0.2237509034609388  0.5247727073608388  0.3691561071421603  1.0000
  H   H41       1.0  0.8899446063899958  0.1233427495089714  0.8139067207098875  1.0000
  H   H42       1.0  0.6100553528781347  0.6233418332804916  0.6860964993822378  1.0000
  H   H43       1.0  0.1100513195732162  0.8766585452271443  0.1860976295723447  1.0000
  H   H44       1.0  0.3899417871497377  0.37665789785908277  0.3139040823859744  1.0000
  C   C1        1.0  0.1995327415488362  0.5864120283862491  0.9869218809103231  1.0000
  C   C2        1.0  0.300470077691422  0.08641450821126989  0.51308075741359  1.0000
  C   C3        1.0  0.8004631844143688  0.4135845755602503  0.01307936192414161  1.0000
  C   C4        1.0  0.6995355607890943  0.9135867865248457  0.4869214117864543  1.0000
  C   C5        1.0  0.2061591064834829  0.522306915616312  0.07540765733809  1.0000
  C   C6        1.0  0.2938388564981267  0.022305486449980098  0.4245921872171934  1.0000
  C   C7        1.0  0.7938356054150617  0.4776951609180742  0.9245888085290019  1.0000
  C   C8        1.0  0.7061667819823965  0.977695026487865  0.5754092051209057  1.0000
  C   C9        1.0  0.2783328226129527  0.4240849081286697  0.0747427124886499  1.0000
  C   C10       1.0  0.2216651403686498  0.9240894644880837  0.42526101637635344  1.0000
  C   C11       1.0  0.7216631033502523  0.5759101322212814  0.9252569766219239  1.0000
  C   C12       1.0  0.7783368559178783  0.0759126120463023  0.5747392517127068  1.0000
  C   C13       1.0  0.3430145457025446  0.3925862558182089  0.9859219425708972  1.0000
  C   C14       1.0  0.1569870594730531  0.8925861213879995  0.5140805799573087  1.0000
  C   C15       1.0  0.6569850224546556  0.6074158207161702  0.014074986478988229  1.0000
  C   C16       1.0  0.8430161508781424  0.1074143915498453  0.48592058078939  1.0000
  C   C17       1.0  0.3348766702615578  0.46147441040585585  0.9016323281793958  1.0000
  C   C18       1.0  0.1651273630433678  0.9614774031687219  0.5983727565260466  1.0000
  C   C19       1.0  0.66512411196031  0.538524538935448  0.09837015469980062  1.0000
  C   C20       1.0  0.8348758473078206  0.0385231097691232  0.4016284042206593  1.0000
  C   C21       1.0  0.107381591377667  0.6880856752372679  0.9830688208307449  1.0000
  C   C22       1.0  0.392623655991919  0.18808659146574766  0.516931718498725  1.0000
  C   C23       1.0  0.8926155486501983  0.311913274104036  0.016930207213576395  1.0000
  C   C24       1.0  0.607380768423937  0.8119131396738266  0.4830695580436739  1.0000
  C   C25       1.0  0.1828405664872008  0.9518714478215244  0.875087657989603  1.0000
  C   C26       1.0  0.317161038688397  0.4518731458482819  0.6249102033669445  1.0000
  C   C27       1.0  0.8171565735406716  0.0481243743266973  0.12491447750250022  1.0000
  C   C28       1.0  0.6828385294688033  0.5481289306861044  0.3750875025448863  1.0000
  C   C29       1.0  0.099743910578141  0.8640067038188448  0.9065885419479897  1.0000
  C   C30       1.0  0.4002649789854402  0.364006838249061  0.5934107910446896  1.0000
  C   C31       1.0  0.900255657579059  0.1359930273207297  0.0934122714116157  1.0000
  C   C32       1.0  0.5997370173010879  0.6359905474957017  0.40658714645854127  1.0000
  C   C33       1.0  0.9307711729019343  0.8727448630860123  0.9035973315250415  1.0000
  C   C34       1.0  0.569234856689512  0.37274734291103323  0.596404136959741  1.0000
  C   C35       1.0  0.0692271811905982  0.1272572134483738  0.09640258917692528  1.0000
  C   C36       1.0  0.4307671395970161  0.6272547336233529  0.40359690799126463  1.0000
  C   C37       1.0  0.8541017753226681  0.966042323269015  0.8707461578534107  1.0000
  C   C38       1.0  0.6459018261394573  0.4660408941026901  0.6292574096258079  1.0000
  C   C39       1.0  0.14589657876987155  0.0339613168619124  0.1292607546060509  1.0000
  C   C40       1.0  0.3540953138884149  0.5339604006334255  0.37073851097073873  1.0000
  C   C41       1.0  0.9447402009228225  0.0486622515366619  0.8400018861447619  1.0000
  C   C42       1.0  0.5552621864746354  0.5486644625012644  0.6600007886768111  1.0000
  C   C43       1.0  0.05526058129903789  0.9513359160063715  0.1600005967344345  1.0000
  C   C44       1.0  0.4447349535532368  0.4513360504365806  0.3400005699533395  1.0000
  Br  Br1       1.0  0.9604708367707813  0.6780583306223775  0.6634820059824449  1.0000
  Br  Br2       1.0  0.5395315506266696  0.17806393764048067  0.8365229994249644  1.0000
  Br  Br3       1.0  0.0395287313864117  0.3219414005172041  0.3365172536532768  1.0000
  Br  Br4       1.0  0.4604692315951907  0.8219420478852583  0.1634810371781228  1.0000
  Br  Br5       1.0  0.5040116607599003  0.8036049694553284  0.7746856257539817  1.0000
  Br  Br6       1.0  0.9960040813488574  0.303615267263055  0.7253020087194455  1.0000
  Br  Br7       1.0  0.49599154959129516  0.1963931980877049  0.22531631185466236  1.0000
  Br  Br8       1.0  0.0040088415196422  0.6963938454557592  0.2746845411539667  1.0000
  N   N1        1.0  0.2645313355156631  0.5560258750144271  0.9019162050602746  1.0000
  N   N2        1.0  0.2354726977892625  0.0560291366377186  0.5980865490593388  1.0000
  N   N3        1.0  0.7354658045122093  0.4439722925286063  0.09808359984599949  1.0000
  N   N4        1.0  0.7645317266265932  0.9439721580983971  0.40191472748306717  1.0000
  N   N5        1.0  0.18579438581405575  0.7730741834035015  0.9352032958394145  1.0000
  N   N6        1.0  0.3142084334262023  0.2730766632285295  0.5647962350367166  1.0000
  N   N7        1.0  0.8142015401491489  0.2269239841395319  0.0647971701330974  1.0000
  N   N8        1.0  0.6857923487956583  0.7269230679110449  0.4352023635327598  1.0000
  N   N9        1.0  0.1060813281228121  0.0402368115776213  0.8419280467259824  1.0000
  N   N10       1.0  0.3939178489234507  0.5402358953491415  0.6580711367630627  1.0000
  N   N11       1.0  0.8939158119050603  0.9597644831584944  0.1580725350422298  1.0000
  N   N12       1.0  0.6060732207810986  0.4597599267990802  0.34192498171694297  1.0000
