data_image0
_chemical_formula_structural       Cd2H36C28N4Cl4
_chemical_formula_sum              "Cd2 H36 C28 N4 Cl4"
_cell_length_a       3.8476710830959187
_cell_length_b       14.001293684341746
_cell_length_c       14.001050954306164
_cell_angle_alpha    90.0005641103084
_cell_angle_beta     90.00052757372238
_cell_angle_gamma    90.00058121433132

_space_group_name_H-M_alt    "P 1"
_space_group_IT_number       1

loop_
  _space_group_symop_operation_xyz
  'x, y, z'

loop_
  _atom_site_type_symbol
  _atom_site_label
  _atom_site_symmetry_multiplicity
  _atom_site_fract_x
  _atom_site_fract_y
  _atom_site_fract_z
  _atom_site_occupancy
  Cd  Cd1       1.0  0.49997899117008876  0.49999879551122467  2.630895111000002e-07  1.0000
  Cd  Cd2       1.0  0.5000039962050664  3.169098122000004e-07  0.5000009814331463  1.0000
  H   H1        1.0  0.728391283714231  0.5282490069221524  0.2169015634511808  1.0000
  H   H2        1.0  0.7284695362339165  0.47175558606264195  0.7831073528082512  1.0000
  H   H3        1.0  0.2715575743304158  0.2168933814313476  0.47175386897959726  1.0000
  H   H4        1.0  0.271553102992776  0.7831049096161777  0.5282481302039415  1.0000
  H   H5        1.0  0.7284560989491737  0.028253392669555  0.2831084173896983  1.0000
  H   H6        1.0  0.7284670961465807  0.9717426297394239  0.7168947850528866  1.0000
  H   H7        1.0  0.2715828576688041  0.7168914239504004  0.0282446242757359  1.0000
  H   H8        1.0  0.27158499698415983  0.2831068671434593  0.9717502326621099  1.0000
  H   H9        1.0  0.4999818997589004  0.8138491959187986  0.3138353922398736  1.0000
  H   H10       1.0  0.5000259401510548  0.18616117382256187  0.686159352073183  1.0000
  H   H11       1.0  0.4999864213491918  0.3138362001723324  0.1861568006337393  1.0000
  H   H12       1.0  0.5000188192826301  0.6861541714308572  0.8138415147379305  1.0000
  H   H13       1.0  0.5561830776867538  0.6224025190320361  0.4260053889410074  1.0000
  H   H14       1.0  0.5562538111087464  0.3776022972498367  0.5740002168680647  1.0000
  H   H15       1.0  0.4437860933875016  0.42599098445061406  0.3776057642687576  1.0000
  H   H16       1.0  0.44376670766796883  0.5739999410934473  0.6223924030329614  1.0000
  H   H17       1.0  0.5562203798955211  0.12239484710833179  0.07399863730261562  1.0000
  H   H18       1.0  0.5562295035186368  0.8776028269562276  0.9259991119353188  1.0000
  H   H19       1.0  0.4437572253885805  0.9259949532540263  0.12238881334138799  1.0000
  H   H20       1.0  0.4437747838499036  0.0740038286280651  0.8775993547222568  1.0000
  H   H21       1.0  0.8958105389959883  0.7060309066319234  0.4091375141841738  1.0000
  H   H22       1.0  0.8958761982692566  0.29397630621591014  0.590866843348273  1.0000
  H   H23       1.0  0.1041582215658181  0.40913093234723863  0.2939786546022419  1.0000
  H   H24       1.0  0.10416292402637592  0.5908690241652155  0.7060193325921134  1.0000
  H   H25       1.0  0.8958379873837503  0.20601911542989632  0.0908660872072105  1.0000
  H   H26       1.0  0.8958461507650172  0.7939802409973566  0.9091382702831367  1.0000
  H   H27       1.0  0.10414243730458851  0.9091335817665539  0.20601343412310064  1.0000
  H   H28       1.0  0.10417091124130451  0.09086851734471679  0.7939745538221671  1.0000
  H   H29       1.0  0.9530112098440711  0.5841999299754549  0.3739439172806128  1.0000
  H   H30       1.0  0.9530797971068949  0.41580744595074753  0.626064162055904  1.0000
  H   H31       1.0  0.0469535113766568  0.37393898821841276  0.4158121173278104  1.0000
  H   H32       1.0  0.046960765621129504  0.6260593768006616  0.5841878619088162  1.0000
  H   H33       1.0  0.9530397895115003  0.08419419899515652  0.1260593493813289  1.0000
  H   H34       1.0  0.9530434202788314  0.9158038920425324  0.8739444445066198  1.0000
  H   H35       1.0  0.046946806125731703  0.8739397240648046  0.08418518808316118  1.0000
  H   H36       1.0  0.046964871712241105  0.126057926678115  0.915804077665051  1.0000
  C   C1        1.0  0.62439963752378  0.6000721712151105  0.20662612293259025  1.0000
  C   C2        1.0  0.6244652329968617  0.3999321253158783  0.7933832336770976  1.0000
  C   C3        1.0  0.3755178238496626  0.20661698282656002  0.39993648933680254  1.0000
  C   C4        1.0  0.37554462022271917  0.7933794619315504  0.600060784035179  1.0000
  C   C5        1.0  0.6244569858709497  0.10006523058476799  0.2933821485030705  1.0000
  C   C6        1.0  0.6244780567128955  0.8999319238104064  0.7066193516107688  1.0000
  C   C7        1.0  0.3755064309578486  0.7066207318292044  0.100060033794577  1.0000
  C   C8        1.0  0.3755456172771404  0.29337785558026763  0.8999386680384588  1.0000
  C   C9        1.0  0.6292829114870316  0.6678491327506393  0.2798438239035761  1.0000
  C   C10       1.0  0.6293567030804041  0.33215660614472137  0.7201641171199853  1.0000
  C   C11       1.0  0.3706709674619475  0.279825591657449  0.33216264535477785  1.0000
  C   C12       1.0  0.3707102955457984  0.7201665539732004  0.6678324725519642  1.0000
  C   C13       1.0  0.6293041197735221  0.16783504331922927  0.22016869884866  1.0000
  C   C14       1.0  0.6293302966251416  0.8321642675596409  0.7798328140475306  1.0000
  C   C15       1.0  0.37070333649527504  0.7798285794803803  0.16783315746444316  1.0000
  C   C16       1.0  0.3707247082255165  0.22017285107325787  0.8321619605496122  1.0000
  C   C17       1.0  0.4999644280787621  0.7587882986242037  0.2587963956451418  1.0000
  C   C18       1.0  0.5000148230704796  0.24121421469117627  0.7412047766804761  1.0000
  C   C19       1.0  0.4999785160142026  0.258783701211847  0.2412102539429171  1.0000
  C   C20       1.0  0.5000189277591858  0.74121095569501  0.7587873472074874  1.0000
  C   C21       1.0  0.7673493764432777  0.6436377607955706  0.37728585742929976  1.0000
  C   C22       1.0  0.7674209095758259  0.35637122850292974  0.6227131621903368  1.0000
  C   C23       1.0  0.2326103779666084  0.3772836512056799  0.35637612574333827  1.0000
  C   C24       1.0  0.23260902593953153  0.6227116719337361  0.6436236281653152  1.0000
  C   C25       1.0  0.7673830463795427  0.14362485468384997  0.12270893474118338  1.0000
  C   C26       1.0  0.7673950364508926  0.8563734213546252  0.8772950844606697  1.0000
  C   C27       1.0  0.23258479143423474  0.8772949712084354  0.14361884463077962  1.0000
  C   C28       1.0  0.23262161764219513  0.1227110651624983  0.85637162429623  1.0000
  N   N1        1.0  0.4999934490831067  0.6190826633801123  0.11908048174120012  1.0000
  N   N2        1.0  0.5000143907570234  0.3809155646717742  0.8809235475293632  1.0000
  N   N3        1.0  0.5000016317395365  0.1190815840160298  0.3809183642059466  1.0000
  N   N4        1.0  0.5000166039164357  0.8809152155936674  0.6190820939107764  1.0000
  Cl  Cl1       1.0  0.9999825646738217  0.40641861629440973  0.0935855783420507  1.0000
  Cl  Cl2       1.0  0.999983410089378  0.5935803227673802  0.9064169107067811  1.0000
  Cl  Cl3       1.0  1.1227618877299998e-05  0.09357998901359818  0.5935880440809668  1.0000
  Cl  Cl4       1.0  2.091642976199995e-06  0.9064189564054175  0.4064153826741403  1.0000
