data_image0
_chemical_formula_structural       Cd6P4H56C28N4Cl4O24
_chemical_formula_sum              "Cd6 P4 H56 C28 N4 Cl4 O24"
_cell_length_a       8.859578712005236
_cell_length_b       11.697459583199258
_cell_length_c       12.977972872550616
_cell_angle_alpha    110.78900884315621
_cell_angle_beta     89.99998434802175
_cell_angle_gamma    90.00012139328088

_space_group_name_H-M_alt    "P 1"
_space_group_IT_number       1

loop_
  _space_group_symop_operation_xyz
  'x, y, z'

loop_
  _atom_site_type_symbol
  _atom_site_label
  _atom_site_symmetry_multiplicity
  _atom_site_fract_x
  _atom_site_fract_y
  _atom_site_fract_z
  _atom_site_occupancy
  Cd  Cd1       1.0  0.31831296696829975  0.8035767354630751  0.6719799601367528  1.0000
  Cd  Cd2       1.0  0.8183166719090591  0.196425515299353  0.8280210994063423  1.0000
  Cd  Cd3       1.0  0.6816849934362638  0.19642693413334206  0.3280211186372952  1.0000
  Cd  Cd4       1.0  0.18168580338105036  0.8035772582974092  0.17198277871406029  1.0000
  Cd  Cd5       1.0  0.50000137433085  0.9999992844231758  0.4999992982649817  1.0000
  Cd  Cd6       1.0  1.4537918959999986e-07  0.9999999641094987  6.700644660617625e-07  1.0000
  P   P1        1.0  0.48136594406921057  0.07243407493778882  0.8028195055277151  1.0000
  P   P2        1.0  0.9813649795213311  0.9275684700130925  0.6971831589006285  1.0000
  P   P3        1.0  0.5186354024962724  0.9275659278211278  0.19717887465341732  1.0000
  P   P4        1.0  0.018637495765403897  0.0724315511526044  0.3028183092752883  1.0000
  H   H1        1.0  0.4590774087381248  0.31218993376639764  0.8092173764475916  1.0000
  H   H2        1.0  0.9590757744350922  0.6878098197961577  0.6907828697129333  1.0000
  H   H3        1.0  0.5409261952707425  0.687810078197387  0.19078254773124578  1.0000
  H   H4        1.0  0.04092218595952351  0.3121865391265786  0.3092166718672332  1.0000
  H   H5        1.0  0.10237449947460679  0.5135126011415992  0.8104812785189353  1.0000
  H   H6        1.0  0.6023723011290371  0.4864856145533809  0.6895185457889569  1.0000
  H   H7        1.0  0.8976279758073815  0.4864837577850879  0.18951826306206956  1.0000
  H   H8        1.0  0.39762453054481023  0.5135116633792123  0.3104820564387083  1.0000
  H   H9        1.0  0.1698989897346621  0.36970062442094337  0.6290885504067063  1.0000
  H   H10       1.0  0.6698971217794067  0.6302986237053574  0.8709115877659599  1.0000
  H   H11       1.0  0.830102356826856  0.6302966443127004  0.3709105078245117  1.0000
  H   H12       1.0  0.3300997098970484  0.36970047844456383  0.12908881976119352  1.0000
  H   H13       1.0  0.36501551111054914  0.3882799487911088  0.658106015785947  1.0000
  H   H14       1.0  0.8650169888800645  0.6117187213586917  0.8418931346019463  1.0000
  H   H15       1.0  0.6349858354524899  0.6117182251490334  0.34189178709705464  1.0000
  H   H16       1.0  0.13498322896083437  0.38827946178335543  0.15810621227813473  1.0000
  H   H17       1.0  0.13070734513146928  0.2715568416224485  0.7645226243619518  1.0000
  H   H18       1.0  0.6307024206473669  0.728443243207167  0.7354762438266037  1.0000
  H   H19       1.0  0.869299645039554  0.7284404179132338  0.2354748898730392  1.0000
  H   H20       1.0  0.3692955397523008  0.2715567687516866  0.2645236803511821  1.0000
  H   H21       1.0  0.27779099950412695  0.19492517425449307  0.6717801003408538  1.0000
  H   H22       1.0  0.7777885100888182  0.8050760958688842  0.828221427418562  1.0000
  H   H23       1.0  0.7222159906701221  0.8050748423137009  0.3282205958372657  1.0000
  H   H24       1.0  0.22221170775300442  0.19492301088544645  0.1717797521078666  1.0000
  H   H25       1.0  0.3885775672451217  0.4273358435167012  0.9919327180482399  1.0000
  H   H26       1.0  0.8885756834734196  0.5726665300517483  0.5080683677327046  1.0000
  H   H27       1.0  0.6114237793228127  0.5726659880610042  0.008066239431023808  1.0000
  H   H28       1.0  0.1114211482042577  0.4273334865075639  0.491932328443518  1.0000
  H   H29       1.0  0.19492725484992948  0.406746671319013  0.9523315180012306  1.0000
  H   H30       1.0  0.6949254129026272  0.5932562689872539  0.547668240116721  1.0000
  H   H31       1.0  0.8050763491616877  0.5932551602606679  0.0476674394784524  1.0000
  H   H32       1.0  0.305071418779022  0.40674648159734533  0.45233177800940894  1.0000
  H   H33       1.0  0.44029690764285323  0.535142186480428  0.863833803391806  1.0000
  H   H34       1.0  0.9402935413640633  0.4648584302590065  0.636163636409691  1.0000
  H   H35       1.0  0.559706696367833  0.4648587214869623  0.13616332144152923  1.0000
  H   H36       1.0  0.05970216159236229  0.5351415678935325  0.36383397177174  1.0000
  H   H37       1.0  0.2932742017289343  0.6097368215172098  0.9549069356562755  1.0000
  H   H38       1.0  0.7932706628681602  0.3902644618629835  0.5450922818888984  1.0000
  H   H39       1.0  0.7067282735583974  0.39026318124269466  0.0450914445250703  1.0000
  H   H40       1.0  0.2067227826444338  0.6097355408890337  0.45490609829075623  1.0000
  H   H41       1.0  0.2274273392376358  0.1558859887058759  0.8557186627564164  1.0000
  H   H42       1.0  0.7274250332067212  0.844115197991755  0.6442836181943861  1.0000
  H   H43       1.0  0.7725762647723184  0.8441149422687461  0.14428232207013292  1.0000
  H   H44       1.0  0.2725763133592451  0.1558857421837914  0.3557189106290296  1.0000
  H   H45       1.0  0.3622724277957232  0.2251505561215907  0.9593127188776832  1.0000
  H   H46       1.0  0.8622677117169671  0.774850857057956  0.5406880684305477  1.0000
  H   H47       1.0  0.6377334336566847  0.7748494604456155  0.04068797730022312  1.0000
  H   H48       1.0  0.13773250612608484  0.2251491641057655  0.45931339974494995  1.0000
  H   H49       1.0  0.19270567346023879  0.9710252427372769  0.5504526011819736  1.0000
  H   H50       1.0  0.6927032164048368  0.028980455319455704  0.9495511100480273  1.0000
  H   H51       1.0  0.8072945443854139  0.028976602643780304  0.4495486722930123  1.0000
  H   H52       1.0  0.30729587272126924  0.9710232234808486  0.05045151272351946  1.0000
  H   H53       1.0  0.19018979653102258  0.9855992229561251  0.43288073055872195  1.0000
  H   H54       1.0  0.6901897097177494  0.0144049935417172  0.067124713965697  1.0000
  H   H55       1.0  0.8098081638686452  0.0144007890027282  0.5671191936190638  1.0000
  H   H56       1.0  0.30981163685296315  0.985599608872839  0.9328797414526309  1.0000
  C   C1        1.0  0.2480316902763207  0.611866773114926  0.7401885393109853  1.0000
  C   C2        1.0  0.748032574048338  0.388132602373922  0.7598100840419805  1.0000
  C   C3        1.0  0.751958369066152  0.3881295627936723  0.2598071422744895  1.0000
  C   C4        1.0  0.25196877251440236  0.6118655807691055  0.24018926283830672  1.0000
  C   C5        1.0  0.22189937155320652  0.5110806851249735  0.7866434409448786  1.0000
  C   C6        1.0  0.7218982991683945  0.4889159060604699  0.7133550787005873  1.0000
  C   C7        1.0  0.7781019750061589  0.48891474558698905  0.21335349599092274  1.0000
  C   C8        1.0  0.2780996612274436  0.5110813672716575  0.28664475152864816  1.0000
  C   C9        1.0  0.25361404246835667  0.38713971541471187  0.6951306774135873  1.0000
  C   C10       1.0  0.753614409590348  0.6128587692256602  0.8048699753707639  1.0000
  C   C11       1.0  0.7463850466507012  0.6128584677263476  0.3048686694662806  1.0000
  C   C12       1.0  0.2463846795287097  0.3871394139153992  0.195129371509104  1.0000
  C   C13       1.0  0.24503672823566794  0.28106951041878864  0.7361295502699647  1.0000
  C   C14       1.0  0.745031765666951  0.7189307880439842  0.7638716766085025  1.0000
  C   C15       1.0  0.7549702619375012  0.7189295871385682  0.2638700852604431  1.0000
  C   C16       1.0  0.254965066009504  0.28106831410593713  0.23612873091865083  1.0000
  C   C17       1.0  0.3093932157206466  0.41808510877030614  0.92461649129082  1.0000
  C   C18       1.0  0.8093913308405902  0.5819171171940952  0.5753830209230487  1.0000
  C   C19       1.0  0.6906103882921925  0.5819176372187586  0.07538275483793208  1.0000
  C   C20       1.0  0.19060437211783915  0.41808472358157184  0.424617480552449  1.0000
  C   C21       1.0  0.32257910321254  0.5259329278643747  0.8861690731368624  1.0000
  C   C22       1.0  0.8225769004556797  0.47406840673711054  0.6138301553518772  1.0000
  C   C23       1.0  0.6774222433553944  0.4740689037133308  0.11382988434240102  1.0000
  C   C24       1.0  0.1774199312222962  0.5259316006193089  0.38616899682705247  1.0000
  C   C25       1.0  0.34221388500223787  0.19317120096921062  0.8702561732867765  1.0000
  C   C26       1.0  0.8422126089826562  0.8068320059731136  0.629745183829769  1.0000
  C   C27       1.0  0.6577908477298491  0.8068297208035136  0.12974326754270052  1.0000
  C   C28       1.0  0.1577898663054498  0.19316892500052774  0.37025580099656713  1.0000
  N   N1        1.0  0.348164664653396  0.3005763531924615  0.8328795483104728  1.0000
  N   N2        1.0  0.8481619437079715  0.6994268641495722  0.6671218110280037  1.0000
  N   N3        1.0  0.6518366819143894  0.6994254829866906  0.1671201811674338  1.0000
  N   N4        1.0  0.1518360166941406  0.3005749766280631  0.3328786904479131  1.0000
  Cl  Cl1       1.0  0.47524140209577564  0.7651294519550336  0.5030164595563846  1.0000
  Cl  Cl2       1.0  0.9752417607939703  0.23487489730676003  0.9969844638873154  1.0000
  Cl  Cl3       1.0  0.5247543008620283  0.23487145600545037  0.49698066527547274  1.0000
  Cl  Cl4       1.0  0.024757328330615298  0.7651278762870392  0.003019414232454739  1.0000
  O   O1        1.0  0.624905534562103  0.1069716520522661  0.8751598271040422  1.0000
  O   O2        1.0  0.12490322813304999  0.893032084878044  0.6248409655133429  1.0000
  O   O3        1.0  0.3750980694443199  0.893026531092744  0.12483951977667122  1.0000
  O   O4        1.0  0.8750958609899797  0.1069688322882953  0.3751577033164395  1.0000
  O   O5        1.0  0.5059800041814029  0.07217723001688373  0.686990070203251  1.0000
  O   O6        1.0  0.005979977158219199  0.9278290514843236  0.8130130879487113  1.0000
  O   O7        1.0  0.49402359983221805  0.9278264441859178  0.3130117805704913  1.0000
  O   O8        1.0  0.994028141737722  0.0721709696863044  0.1869883802282644  1.0000
  O   O9        1.0  0.4102644780094309  0.9565726934311274  0.8128561053596998  1.0000
  O   O10       1.0  0.9102599094757127  0.0434306278480534  0.6871445051696982  1.0000
  O   O11       1.0  0.5897357398343673  0.0434273047253626  0.18714150282257688  1.0000
  O   O12       1.0  0.08973466476120957  0.956572154944695  0.3128609169465123  1.0000
  O   O13       1.0  0.37625343376137016  0.6645827113138479  0.7547063667135987  1.0000
  O   O14       1.0  0.8762519180948871  0.33541507326886233  0.7452940432185287  1.0000
  O   O15       1.0  0.6237343681466214  0.3354209582736943  0.24529471205855202  1.0000
  O   O16       1.0  0.12374829974890392  0.6645849248876203  0.25470356496374796  1.0000
  O   O17       1.0  0.1444444196392496  0.637701532149663  0.6832726564326281  1.0000
  O   O18       1.0  0.6444452080943178  0.3622976852929227  0.8167297882309795  1.0000
  O   O19       1.0  0.8555501545837243  0.3622902547231632  0.3167254419015819  1.0000
  O   O20       1.0  0.3555583959131853  0.6377014168629247  0.18327061929743854  1.0000
  O   O21       1.0  0.24198320937129122  0.0153726564794354  0.5059279747455108  1.0000
  O   O22       1.0  0.7419822855390734  0.9846322271025658  0.9940777822333403  1.0000
  O   O23       1.0  0.7580181371961955  0.9846291889026091  0.4940732987296883  1.0000
  O   O24       1.0  0.2580190610291949  0.0153705464932088  0.005926095886849199  1.0000
