data_image0
_chemical_formula_structural       Zn4H37C46N19O2
_chemical_formula_sum              "Zn4 H37 C46 N19 O2"
_cell_length_a       15.095623274093338
_cell_length_b       14.84366652535904
_cell_length_c       14.728991967374808
_cell_angle_alpha    110.13941287286474
_cell_angle_beta     103.91147322549865
_cell_angle_gamma    113.32821651428429

_space_group_name_H-M_alt    "P 1"
_space_group_IT_number       1

loop_
  _space_group_symop_operation_xyz
  'x, y, z'

loop_
  _atom_site_type_symbol
  _atom_site_label
  _atom_site_symmetry_multiplicity
  _atom_site_fract_x
  _atom_site_fract_y
  _atom_site_fract_z
  _atom_site_occupancy
  Zn  Zn1       1.0  0.3557792058767861  0.880385260840477  0.990089145319239  1.0000
  Zn  Zn2       1.0  0.6269706318591732  0.1604822948470218  0.9877123243427949  1.0000
  Zn  Zn3       1.0  0.5016607203807125  0.15645560383840262  0.14099376057555463  1.0000
  Zn  Zn4       1.0  0.4962099792988469  0.8857631574568929  0.8542775120211561  1.0000
  H   H1        1.0  0.15605682202954096  0.8563707513012703  0.8156321805863274  1.0000
  H   H2        1.0  0.4818764743298375  0.2009523337122517  0.8151407463553755  1.0000
  H   H3        1.0  0.5662002461709932  0.42957787714984624  0.24940128779437754  1.0000
  H   H4        1.0  0.3221979445500055  0.6394323142168333  0.6320347952647655  1.0000
  H   H5        1.0  0.7164968106773842  0.4233319836104814  0.033055409863152606  1.0000
  H   H6        1.0  0.1273368769843446  0.6492098141962401  0.8033458779539588  1.0000
  H   H7        1.0  0.3097024591204944  0.8352429113124276  0.6535142837118146  1.0000
  H   H8        1.0  0.3401100705623462  0.21929622092189055  0.02721968421722216  1.0000
  H   H9        1.0  0.849597530986209  0.2365863457230334  0.15664716615268778  1.0000
  H   H10       1.0  0.4492671210014194  0.17260973903506752  0.3587308706620435  1.0000
  H   H11       1.0  0.6667837803857497  0.8463585591150322  0.7653291834072606  1.0000
  H   H12       1.0  0.8480467817121992  0.21159622169278  0.944104130305036  1.0000
  H   H13       1.0  0.23301397377984762  0.8146739214833261  0.13527229420582645  1.0000
  H   H14       1.0  0.6826750293734067  0.8673771953694784  0.9943194843345257  1.0000
  H   H15       1.0  0.6724631159159243  0.2026438354021494  0.34645609344976  1.0000
  H   H16       1.0  0.1657973758710654  0.5296262970897699  0.47297105450324756  1.0000
  H   H17       1.0  0.09037814508489833  0.59500818739086  0.4809755783610542  1.0000
  H   H18       1.0  0.959032873048244  0.4374159683563479  0.31563808417264066  1.0000
  H   H19       1.0  0.02058129245678945  0.3597054392232267  0.32695984383519777  1.0000
  H   H20       1.0  0.1315394111923424  0.38579666630418796  0.5400486178436736  1.0000
  H   H21       1.0  0.9630055149500336  0.22959132731207185  0.40507218197004174  1.0000
  H   H22       1.0  0.9707434474545239  0.4912526857290801  0.6437852202280897  1.0000
  H   H23       1.0  0.9981876853932408  0.595631907668306  0.6046469970193802  1.0000
  H   H24       1.0  0.8599671141549693  0.46555745469388665  0.4307776499155696  1.0000
  H   H25       1.0  0.8156453043195669  0.37485733986788733  0.48320294114309115  1.0000
  H   H26       1.0  0.07171039555279198  0.3879660835910245  0.6291924956710703  1.0000
  H   H27       1.0  0.8989575674057448  0.25469557333394743  0.48816166108952114  1.0000
  H   H28       1.0  0.3670363004539683  0.059466649720718745  0.44669169691815847  1.0000
  H   H29       1.0  0.2251463962925159  0.8340018101858394  0.49358838298011437  1.0000
  H   H30       1.0  0.3536393595242444  0.0928050494166968  0.5921791834738174  1.0000
  H   H31       1.0  0.7684202796214096  0.620403632974899  0.09352755925524314  1.0000
  H   H32       1.0  0.6273573625245562  0.6132972957860476  0.21427734915212704  1.0000
  H   H33       1.0  0.7543230893302423  0.7685928435039886  0.07667071757240522  1.0000
  H   H34       1.0  0.6034987092685287  0.7367022438305855  0.18669939291017837  1.0000
  H   H35       1.0  0.9985420208486888  0.1971480974242113  0.929135399911758  1.0000
  H   H36       1.0  0.16181023448746884  0.20717588082254676  0.9570110628012501  1.0000
  H   H37       1.0  0.038318147344071525  0.9513592669520178  0.8016745409482766  1.0000
  C   C1        1.0  0.2158981087399072  0.944064815967977  0.8751461184616576  1.0000
  C   C2        1.0  0.4492513330204704  0.11226507999149522  0.7908709216971918  1.0000
  C   C3        1.0  0.5986946855576034  0.4094863346825123  0.19216720416392985  1.0000
  C   C4        1.0  0.2891531214033024  0.6562236747400051  0.6893682867877332  1.0000
  C   C5        1.0  0.6760759754357152  0.40701031098928553  0.08251768865805807  1.0000
  C   C6        1.0  0.19009090587167082  0.6615256461181291  0.7764972666219027  1.0000
  C   C7        1.0  0.3609883634902644  0.9255701544271847  0.7080467563198598  1.0000
  C   C8        1.0  0.3090518623075058  0.12951425501569971  0.9832193019672888  1.0000
  C   C9        1.0  0.20655203809817413  0.03982500651697777  0.9001624029150935  1.0000
  C   C10       1.0  0.36961157763956737  0.016007890325234118  0.6911015738413299  1.0000
  C   C11       1.0  0.6544690182075144  0.4775421737927559  0.15408360724413234  1.0000
  C   C12       1.0  0.1825290406844148  0.6031727826705764  0.6744486260684186  1.0000
  C   C13       1.0  0.5245545344314948  0.8463218478348227  0.11506816107148427  1.0000
  C   C14       1.0  0.7904359831225208  0.21718238266647213  0.18800239535708863  1.0000
  C   C15       1.0  0.40220402330252375  0.08741563263325258  0.2905757809859184  1.0000
  C   C16       1.0  0.6960815658058195  0.9354295033801991  0.8119174269304852  1.0000
  C   C17       1.0  0.7893500474582921  0.12176665779928433  0.903288170658492  1.0000
  C   C18       1.0  0.2900719454408573  0.9044860659635391  0.1759904706842833  1.0000
  C   C19       1.0  0.6261621189660714  0.8651673102181409  0.028538303321646297  1.0000
  C   C20       1.0  0.7005575986818471  0.2001980009846137  0.2847863820356696  1.0000
  C   C21       1.0  0.6085345718383337  0.8297870671356834  0.10320713707132978  1.0000
  C   C22       1.0  0.8054698836246246  0.2531352286569232  0.2949140077629766  1.0000
  C   C23       1.0  0.32308712921962984  0.9877439981974165  0.28131770186526966  1.0000
  C   C24       1.0  0.7970973239457994  0.029108528350065145  0.8466287714440602  1.0000
  C   C25       1.0  0.0897562511885398  0.5185415626626481  0.4743115460115278  1.0000
  C   C26       1.0  0.994025468870433  0.4127630865789558  0.3701499414673253  1.0000
  C   C27       1.0  0.06565742224451313  0.39220223323631154  0.5550114331049232  1.0000
  C   C28       1.0  0.9835473150408873  0.5102753417267395  0.5804359044341614  1.0000
  C   C29       1.0  0.0832094843809373  0.5084428173214235  0.5736648504420928  1.0000
  C   C30       1.0  0.9073692295634714  0.34240207904969844  0.3961911183040461  1.0000
  C   C31       1.0  0.9552425573515889  0.29554067870670775  0.45937851309876987  1.0000
  C   C32       1.0  0.8842361449701033  0.42353795964271534  0.4712819333647862  1.0000
  C   C33       1.0  0.23802011654209557  0.9029336614997305  0.388365868661147  1.0000
  C   C34       1.0  0.30529252527849604  0.9826882187034373  0.3708452978460814  1.0000
  C   C35       1.0  0.259421441465861  0.9144737692449925  0.49459983950228564  1.0000
  C   C36       1.0  0.324271849713277  0.011449849382003647  0.590029617365481  1.0000
  C   C37       1.0  0.7221398798105342  0.6466650543588203  0.13095012518404317  1.0000
  C   C38       1.0  0.6699102729553489  0.5855090719897121  0.17195913151150002  1.0000
  C   C39       1.0  0.7120263911180872  0.7353588636672015  0.11910481017753957  1.0000
  C   C40       1.0  0.6451231881863607  0.7690864818804857  0.14341624698141014  1.0000
  C   C41       1.0  0.9911218058496375  0.11633799465619198  0.885027392215783  1.0000
  C   C42       1.0  0.8883176346854142  0.024058168739081506  0.833975397895799  1.0000
  C   C43       1.0  0.09135515020327756  0.12283012750102547  0.8999578946657466  1.0000
  C   C44       1.0  0.10736291602191274  0.03554583999495272  0.86108839574802  1.0000
  C   C45       1.0  0.8639815238673663  0.9124718424172898  0.7721139622491935  1.0000
  C   C46       1.0  0.47385583289032956  0.8210330305989546  0.17935720210851283  1.0000
  N   N1        1.0  0.31397408736587834  0.9745331263545581  0.9397922438415026  1.0000
  N   N2        1.0  0.4860142134513766  0.08055103436461761  0.8596653811261278  1.0000
  N   N3        1.0  0.5881362554004143  0.3078360265855765  0.14714730005263038  1.0000
  N   N4        1.0  0.3549443223295797  0.7398336965050805  0.792135425902842  1.0000
  N   N5        1.0  0.6362578983209204  0.306619847248541  0.07855455607584386  1.0000
  N   N6        1.0  0.29295767244911997  0.7430029867226652  0.8463619803683076  1.0000
  N   N7        1.0  0.43134346212369945  0.9658843230206957  0.8082987144086151  1.0000
  N   N8        1.0  0.3712429738185818  0.08853666719330289  0.005838371812160528  1.0000
  N   N9        1.0  0.4941588417343609  0.8853026574932276  0.0496088233561667  1.0000
  N   N10       1.0  0.6845924835769353  0.15069913798586054  0.1201224672125179  1.0000
  N   N11       1.0  0.41426842476493425  0.06550876226557992  0.20002213570776223  1.0000
  N   N12       1.0  0.6341751614903332  0.969607551739479  0.8457782069840792  1.0000
  N   N13       1.0  0.691838947171057  0.08545478644025921  0.9023431155352813  1.0000
  N   N14       1.0  0.3452297802009953  0.9505930099670581  0.1295300680045416  1.0000
  N   N15       1.0  0.5564449484123274  0.8958731214385126  0.9973567195560027  1.0000
  N   N16       1.0  0.6288176853107501  0.14032361991560552  0.17989345599256293  1.0000
  N   N17       1.0  0.14616171598224537  0.7938877046628722  0.30011714229854664  1.0000
  N   N18       1.0  0.8387179142528682  0.8186896123789682  0.7204936770324724  1.0000
  N   N19       1.0  0.43383835684019095  0.796893628741124  0.23300201146701502  1.0000
  O   O1        1.0  0.09545010112346834  0.7220722758264416  0.32281803239442314  1.0000
  O   O2        1.0  0.12063310183400235  0.7779413872886424  0.20644779388965878  1.0000
