data_image0
_chemical_formula_structural       Zn4H28C40N12O20
_chemical_formula_sum              "Zn4 H28 C40 N12 O20"
_cell_length_a       7.495068282954499
_cell_length_b       11.448643445
_cell_length_c       12.8858
_cell_angle_alpha    90.0
_cell_angle_beta     105.59243301534633
_cell_angle_gamma    90.0

_space_group_name_H-M_alt    "P 1"
_space_group_IT_number       1

loop_
  _space_group_symop_operation_xyz
  'x, y, z'

loop_
  _atom_site_type_symbol
  _atom_site_label
  _atom_site_symmetry_multiplicity
  _atom_site_fract_x
  _atom_site_fract_y
  _atom_site_fract_z
  _atom_site_occupancy
  Zn  Zn1       1.0  0.6330531956171371  0.7240386199310079  0.3165950888498159  1.0000
  Zn  Zn2       1.0  0.8669450028762782  0.2240387703855191  0.183403737039967  1.0000
  Zn  Zn3       1.0  0.366947450296145  0.2759610791599769  0.6834049345301166  1.0000
  Zn  Zn4       1.0  0.1330514874722368  0.7759618021714018  0.8165948605938169  1.0000
  H   H1        1.0  0.2103754662514064  0.9390003323664544  0.4660398587161012  1.0000
  H   H2        1.0  0.2896207011404712  0.4390022297528162  0.03395795117966568  1.0000
  H   H3        1.0  0.7896224092853643  0.06099936672453769  0.5339605075798204  1.0000
  H   H4        1.0  0.7103785595845551  0.5610000897359626  0.9660395274900822  1.0000
  H   H5        1.0  0.4737620870275308  0.6944927613648844  0.5619938305735985  1.0000
  H   H6        1.0  0.026238235929113805  0.19449291181938827  0.9380077332124728  1.0000
  H   H7        1.0  0.5262385588857583  0.3055060642601717  0.43800619280633396  1.0000
  H   H8        1.0  0.9737637951724238  0.8055067872715966  0.06199250673349609  1.0000
  H   H9        1.0  0.9717455758846683  0.4865563354087001  0.6733658057973244  1.0000
  H   H10       1.0  0.5282540077970026  0.986557058420118  0.8266332366584946  1.0000
  H   H11       1.0  0.0282550700286137  0.513441616750427  0.326633441534554  1.0000
  H   H12       1.0  0.4717452529280237  0.0134435141367959  0.17336734620346309  1.0000
  H   H13       1.0  0.7762373351758214  0.3273514471827426  0.7119202908592824  1.0000
  H   H14       1.0  0.7237594781293382  0.8273530436600964  0.7880775424164168  1.0000
  H   H15       1.0  0.22376192554920493  0.6726473784423135  0.2880802920026682  1.0000
  H   H16       1.0  0.2762383974074325  0.1726484023627464  0.21192127178340306  1.0000
  H   H17       1.0  0.2990662998523632  0.5266920949165765  0.6118948493645959  1.0000
  H   H18       1.0  0.20093125272777  0.0266931188370165  0.8881047291933086  1.0000
  H   H19       1.0  0.7009329608726702  0.4733076041744084  0.3881049574493146  1.0000
  H   H20       1.0  0.7990680079972563  0.9733065802539684  0.11189352552448636  1.0000
  H   H21       1.0  0.5610234063491646  0.931414280759796  0.390141738493206  1.0000
  H   H22       1.0  0.9389789477090176  0.4314144312143  0.10985851314273277  1.0000
  H   H23       1.0  0.4389800099406287  0.068585418331196  0.6098594940668461  1.0000
  H   H24       1.0  0.0610216982042644  0.568586141342621  0.8901407341891526  1.0000
  H   H25       1.0  0.35898538820552534  0.8773904129564726  0.34917807072911694  1.0000
  H   H26       1.0  0.1410149347511123  0.37738968994505473  0.1508219409608529  1.0000
  H   H27       1.0  0.6410166428960125  0.1226101596004412  0.6508221692168519  1.0000
  H   H28       1.0  0.858984325973914  0.6226108826118661  0.8491778658530507  1.0000
  C   C1        1.0  0.983620794796096  0.8611762648880372  0.3798662979396923  1.0000
  C   C2        1.0  0.5163732481325525  0.3611764153425412  0.1201334303480976  1.0000
  C   C3        1.0  0.0163743103641636  0.1388234342029477  0.6201320831280626  1.0000
  C   C4        1.0  0.4836232422159625  0.6388232837484438  0.8798674954298419  1.0000
  C   C5        1.0  0.9698534087281274  0.8061540255261193  0.47966871319114546  1.0000
  C   C6        1.0  0.5301447897652878  0.3061550494465592  0.020330888746691797  1.0000
  C   C7        1.0  0.030144466808643203  0.19384480009893681  0.520330877056729  1.0000
  C   C8        1.0  0.4698572413362498  0.6938481435081485  0.9796677991031686  1.0000
  C   C9        1.0  0.8502659510959774  0.6947652827352044  0.5789366543118035  1.0000
  C   C10       1.0  0.6497336325856935  0.1947698005193672  0.9210623881440155  1.0000
  C   C11       1.0  0.1497346948173046  0.3052317959579867  0.421062593020082  1.0000
  C   C12       1.0  0.3502683985158441  0.8052325189694116  0.0789394038980546  1.0000
  C   C13       1.0  0.736878596093895  0.603350958843663  0.6106962408530379  1.0000
  C   C14       1.0  0.7631209875877758  0.103351982764103  0.8893043536988825  1.0000
  C   C15       1.0  0.2631234350076426  0.3966461198495281  0.38930322304487663  1.0000
  C   C16       1.0  0.2368796583255062  0.896649463258747  0.1106979978252056  1.0000
  C   C17       1.0  0.5455868684337375  0.6144422292295459  0.5948819375822295  1.0000
  C   C18       1.0  0.954414100436189  0.114441506218121  0.9051188735357272  1.0000
  C   C19       1.0  0.4544151626678001  0.3855574698614461  0.4051183023637392  1.0000
  C   C20       1.0  0.04558654547709301  0.885557319406935  0.09488037379615828  1.0000
  C   C21       1.0  0.8224887710153865  0.49929408907362227  0.6559260197561869  1.0000
  C   C22       1.0  0.677508042289773  0.999295685550976  0.8440733656156211  1.0000
  C   C23       1.0  0.1775104897096398  0.5007038630854979  0.3440730110096625  1.0000
  C   C24       1.0  0.3224898332470048  0.0007057604718668  0.1559277767283547  1.0000
  C   C25       1.0  0.0748985141443939  0.8165805883388656  0.5868042317641979  1.0000
  C   C26       1.0  0.425100423623995  0.3165807387933697  0.9131963394077898  1.0000
  C   C27       1.0  0.9251007465806325  0.1834191107521193  0.41319557504970555  1.0000
  C   C28       1.0  0.5749029926657983  0.6834207072294731  0.086804117104208  1.0000
  C   C29       1.0  0.2333737468517185  0.8920314488840262  0.6380387080746742  1.0000
  C   C30       1.0  0.266626576104926  0.3920333462703951  0.861959751519187  1.0000
  C   C31       1.0  0.7666255138733149  0.10796650327509379  0.36196109873922916  1.0000
  C   C32       1.0  0.7333754549966116  0.6079689732183837  0.13803893633067324  1.0000
  C   C33       1.0  0.7135797296422197  0.4099262958573178  0.6784686462114918  1.0000
  C   C34       1.0  0.7864212392277068  0.9099270188687427  0.8215337170025662  1.0000
  C   C35       1.0  0.286422301459325  0.5900734032336672  0.321535473974741  1.0000
  C   C36       1.0  0.2135780214973195  0.0900744271541072  0.1784668658593915  1.0000
  C   C37       1.0  0.4474906065802884  0.5208940280697192  0.6214261495862274  1.0000
  C   C38       1.0  0.0525083311880934  0.0208941785242232  0.8785751976338146  1.0000
  C   C39       1.0  0.5525086541447379  0.4791047975553369  0.3785736572276761  1.0000
  C   C40       1.0  0.9474909295369329  0.9791046471008329  0.12142616127619016  1.0000
  N   N1        1.0  0.8274020337564211  0.7297519605826109  0.47567864299029583  1.0000
  N   N2        1.0  0.67259339436049  0.229752111037115  0.024320525815483125  1.0000
  N   N3        1.0  0.1725972269686125  0.2702459915765161  0.5243196117275062  1.0000
  N   N4        1.0  0.327407251552799  0.7702502084516638  0.9756818257086122  1.0000
  N   N5        1.0  0.9985683612574547  0.745670003700603  0.6486469441856997  1.0000
  N   N6        1.0  0.5014284520477048  0.24567102762103588  0.8513524411861013  1.0000
  N   N7        1.0  0.0014308994675716  0.2543279484585241  0.3513520865801496  1.0000
  N   N8        1.0  0.49857357905383287  0.7543312918677431  0.1486477987598676  1.0000
  N   N9        1.0  0.5286141567433447  0.4191911489824562  0.6598687022803488  1.0000
  N   N10       1.0  0.9713854269383262  0.9191927454598101  0.8401303401754704  1.0000
  N   N11       1.0  0.4713864891699373  0.5808068031766709  0.34013054505153656  1.0000
  N   N12       1.0  0.0286138337867001  0.0808069536311748  0.159868690590379  1.0000
  O   O1        1.0  0.13014120694816  0.9276609976563036  0.3833440646448594  1.0000
  O   O2        1.0  0.3698563456319661  0.42766202157674366  0.11665628996109938  1.0000
  O   O3        1.0  0.869855283400355  0.0723395749006173  0.616656085085033  1.0000
  O   O4        1.0  0.6301429150930602  0.5723385509801773  0.883343516852804  1.0000
  O   O5        1.0  0.8607421298696991  0.8449647372173884  0.2945309913964209  1.0000
  O   O6        1.0  0.6392505278706935  0.3449657611378285  0.205468520325347  1.0000
  O   O7        1.0  0.1392557456670716  0.1550349618735964  0.7054693748995078  1.0000
  O   O8        1.0  0.3607418069130617  0.6550348114190925  0.7945302036583968  1.0000
  O   O9        1.0  0.2893228856656123  0.8939574412608522  0.7394120180816657  1.0000
  O   O10       1.0  0.2106774372910323  0.393959338647214  0.7605872175602427  1.0000
  O   O11       1.0  0.7106749898711584  0.106039637432346  0.2605883482142559  1.0000
  O   O12       1.0  0.7893232086222568  0.606040360443771  0.23941202977163556  1.0000
  O   O13       1.0  0.3050239945377768  0.9533732142533324  0.5750187908280181  1.0000
  O   O14       1.0  0.1949777136071233  0.4533759851056303  0.9249798853318724  1.0000
  O   O15       1.0  0.6949766513755051  0.04662386443986579  0.4249812325519144  1.0000
  O   O16       1.0  0.8050284730591812  0.5466289547809424  0.07501790011998109  1.0000
  O   O17       1.0  0.4894950552295612  0.8560822115811817  0.377400397233508  1.0000
  O   O18       1.0  0.0105052677270834  0.3560823620356857  0.12260039050451607  1.0000
  O   O19       1.0  0.5105069758719765  0.1439174875098033  0.6226006187605151  1.0000
  O   O20       1.0  0.9894939929979429  0.6439173370552993  0.8773994163093874  1.0000
