data_image0
_chemical_formula_structural       CuSiH16C24S4N4O12F6
_chemical_formula_sum              "Cu1 Si1 H16 C24 S4 N4 O12 F6"
_cell_length_a       7.876638107740893
_cell_length_b       13.728748412018454
_cell_length_c       13.728371130790107
_cell_angle_alpha    89.10680971269672
_cell_angle_beta     92.36304317527681
_cell_angle_gamma    92.36447276722093

_space_group_name_H-M_alt    "P 1"
_space_group_IT_number       1

loop_
  _space_group_symop_operation_xyz
  'x, y, z'

loop_
  _atom_site_type_symbol
  _atom_site_label
  _atom_site_symmetry_multiplicity
  _atom_site_fract_x
  _atom_site_fract_y
  _atom_site_fract_z
  _atom_site_occupancy
  Cu  Cu1       1.0  0.500041233457381  0.49959122072515066  0.5004146931657304  1.0000
  Si  Si1       1.0  0.9999955201903106  0.501008665178105  0.49893292260328087  1.0000
  H   H1        1.0  0.2547821517078717  0.6473635628045854  0.5459166359385677  1.0000
  H   H2        1.0  0.24707465321588268  0.8260250978637484  0.56141095038911  1.0000
  H   H3        1.0  0.7608757309395527  0.6647402487115032  0.4628007095141911  1.0000
  H   H4        1.0  0.23845445312576888  0.3341500502851246  0.46577752001722683  1.0000
  H   H5        1.0  0.7568375103616275  0.35121594023958375  0.5452519810140828  1.0000
  H   H6        1.0  0.7694585763384652  0.1726626210671754  0.559693433839918  1.0000
  H   H7        1.0  0.24310934717183127  0.454786447089404  0.6488144682694071  1.0000
  H   H8        1.0  0.23054860732720064  0.4403166678189123  0.8273918795075944  1.0000
  H   H9        1.0  0.761513696699353  0.534239964686023  0.6658191262664063  1.0000
  H   H10       1.0  0.2391398443876867  0.5371941696799069  0.3352689491088157  1.0000
  H   H11       1.0  0.745217794283377  0.45407002605886493  0.3526699383874217  1.0000
  H   H12       1.0  0.7529624137067967  0.4385709398035188  0.17399083742256494  1.0000
  H   H13       1.0  0.7731979875578644  0.979336218234202  0.5643598680479229  1.0000
  H   H14       1.0  0.0488733742299701  0.025261705533893092  0.5677815218404731  1.0000
  H   H15       1.0  0.9511519911887731  0.4322400296386206  0.9747122057163156  1.0000
  H   H16       1.0  0.22685794841267173  0.43560762356962346  0.0206666366846804  1.0000
  C   C1        1.0  0.36745951640669716  0.6932916168167719  0.530855971020614  1.0000
  C   C2        1.0  0.36365890669117823  0.7938114004636248  0.5404722489836119  1.0000
  C   C3        1.0  0.5088431762648326  0.8520828669356106  0.5208854909873466  1.0000
  C   C4        1.0  0.6541384263782675  0.8037806270626502  0.4926257033396837  1.0000
  C   C5        1.0  0.6495843448188482  0.7029420917208424  0.484247887258583  1.0000
  C   C6        1.0  0.507831742819313  0.9546094884525613  0.5285294764023192  1.0000
  C   C7        1.0  0.5042892553986107  0.0433672426406702  0.5291531759003405  1.0000
  C   C8        1.0  0.49994807758684356  0.1460780249490696  0.5224441851995465  1.0000
  C   C9        1.0  0.3495647003152841  0.19457312173105376  0.4954036745428496  1.0000
  C   C10       1.0  0.3532629083975322  0.29569668024934964  0.4867791857170189  1.0000
  C   C11       1.0  0.642292150137024  0.3052350701435387  0.5313404173087477  1.0000
  C   C12       1.0  0.6481608140179205  0.20450670664551035  0.5403218644587966  1.0000
  C   C13       1.0  0.3576986335076739  0.4686576505624842  0.6947703387500255  1.0000
  C   C14       1.0  0.351817416617429  0.4597068065183977  0.7955047516607012  1.0000
  C   C15       1.0  0.500050599858028  0.4775183843048936  0.8539222878000388  1.0000
  C   C16       1.0  0.6504076072558216  0.5046259861004215  0.8054275878333074  1.0000
  C   C17       1.0  0.6467473243334609  0.5132179147881857  0.7042990807452726  1.0000
  C   C18       1.0  0.49575763084686025  0.47083116495121397  0.956642127956201  1.0000
  C   C19       1.0  0.4922052116625294  0.4714532284899419  0.0454085048354358  1.0000
  C   C20       1.0  0.4912142726221518  0.479087744110366  0.14793750983616863  1.0000
  C   C21       1.0  0.3459038111944678  0.5073872398594403  0.19621324286533343  1.0000
  C   C22       1.0  0.3504415221813204  0.5157361017829771  0.2970712763048837  1.0000
  C   C23       1.0  0.6325341281430851  0.46913084495583485  0.3067406614657386  1.0000
  C   C24       1.0  0.6363773525991829  0.4595234550203742  0.20621052995960557  1.0000
  S   S1        1.0  0.8404794359311224  0.8727433155077334  0.4605460139025865  1.0000
  S   S2        1.0  0.1549016915000934  0.12835841984490773  0.4660230375362176  1.0000
  S   S3        1.0  0.8451317742531754  0.533995092592299  0.8716114059585607  1.0000
  S   S4        1.0  0.15956179289872813  0.5394850952565163  0.1272477164734482  1.0000
  N   N1        1.0  0.507225222747074  0.649030179903562  0.5034354525209893  1.0000
  N   N2        1.0  0.49768035091653207  0.3497518888282584  0.505005437908757  1.0000
  N   N3        1.0  0.5023058535958285  0.4950366677010507  0.6502501266530132  1.0000
  N   N4        1.0  0.4927854950289045  0.4965703993409818  0.3509737904413157  1.0000
  O   O1        1.0  0.8738250749445483  0.9386902864043876  0.5597036909212535  1.0000
  O   O2        1.0  0.9829718608017328  0.8119247585626326  0.4599532777767692  1.0000
  O   O3        1.0  0.7953248907208987  0.9372190510247052  0.381469978540288  1.0000
  O   O4        1.0  0.11773361575099979  0.0877156482533366  0.5739072596640682  1.0000
  O   O5        1.0  0.029237329034927494  0.19675854967962889  0.4364621725762774  1.0000
  O   O6        1.0  0.1885366539320543  0.0474676224376509  0.4052128024581876  1.0000
  O   O7        1.0  0.8823423695561131  0.42612266163717283  0.9122452138802402  1.0000
  O   O8        1.0  0.97076691424688  0.5635813587321934  0.8031955669143259  1.0000
  O   O9        1.0  0.8115295381828742  0.5947810016722028  0.9525307264775478  1.0000
  O   O10       1.0  0.1261938618846727  0.44030686417723086  0.061322399943705405  1.0000
  O   O11       1.0  0.0170714609570695  0.5400824617484118  0.1880864558786897  1.0000
  O   O12       1.0  0.20479062266588946  0.618512271682569  0.0627492804871324  1.0000
  F   F1        1.0  0.21833927715049128  0.49118602091833446  0.4905988249014258  1.0000
  F   F2        1.0  0.7816400608956613  0.5093914056769789  0.508757209834954  1.0000
  F   F3        1.0  0.9999713202820857  0.5890021991599925  0.410918373417978  1.0000
  F   F4        1.0  0.9999266725671417  0.4116832877256228  0.5883415405788811  1.0000
  F   F5        1.0  0.03351640180197529  0.5869921159887211  0.5864940897404767  1.0000
  F   F6        1.0  0.9665423656009935  0.4134329381929546  0.4129980939643972  1.0000
