data_image0
_chemical_formula_structural       Hg2H34C32N4O8
_chemical_formula_sum              "Hg2 H34 C32 N4 O8"
_cell_length_a       8.718586181666844
_cell_length_b       10.25374872368086
_cell_length_c       11.142636318159507
_cell_angle_alpha    112.3347376393818
_cell_angle_beta     97.42473735314672
_cell_angle_gamma    105.11924476997119

_space_group_name_H-M_alt    "P 1"
_space_group_IT_number       1

loop_
  _space_group_symop_operation_xyz
  'x, y, z'

loop_
  _atom_site_type_symbol
  _atom_site_label
  _atom_site_symmetry_multiplicity
  _atom_site_fract_x
  _atom_site_fract_y
  _atom_site_fract_z
  _atom_site_occupancy
  Hg  Hg1       1.0  0.3534194397749246  0.47669470233426375  0.32760340937649357  1.0000
  Hg  Hg2       1.0  0.6465746864237475  0.5232981688031159  0.6723808224544784  1.0000
  H   H1        1.0  0.04047801622553487  0.663612048622788  0.18606220051633218  1.0000
  H   H2        1.0  0.9595166712665626  0.3363970967772403  0.8139539223396214  1.0000
  H   H3        1.0  0.1161743218284812  0.5099573235406538  0.13879982878641076  1.0000
  H   H4        1.0  0.8838087305504487  0.4900487188668236  0.8612136739010767  1.0000
  H   H5        1.0  0.12843983404426493  0.6211365692099092  0.04753829291160372  1.0000
  H   H6        1.0  0.8715364729485487  0.3788640105175246  0.9524714940298938  1.0000
  H   H7        1.0  0.6983377156869962  0.7521982211735576  0.5070916442102276  1.0000
  H   H8        1.0  0.3016487493206411  0.24778549349124998  0.4929000189750641  1.0000
  H   H9        1.0  0.9202769401690672  0.9982782775398888  0.5956561220685189  1.0000
  H   H10       1.0  0.0797144989148109  0.0017087983194982983  0.404333789234606  1.0000
  H   H11       1.0  0.8926770822829794  0.19407213714745808  0.5257714511129877  1.0000
  H   H12       1.0  0.10732196994582215  0.8059301852050211  0.4742401291762307  1.0000
  H   H13       1.0  0.637677234811555  0.1513362324818956  0.3628623342149809  1.0000
  H   H14       1.0  0.3623197882815887  0.8486662561695582  0.637144548465159  1.0000
  H   H15       1.0  0.30686861845727265  0.046371961293608883  0.25688882375995803  1.0000
  H   H16       1.0  0.6931306388556565  0.9536262040377539  0.7431069376425513  1.0000
  H   H17       1.0  0.18269206938832377  0.8700790806488499  0.1251103850139047  1.0000
  H   H18       1.0  0.8173110949880993  0.1299215734675627  0.8748741931215707  1.0000
  H   H19       1.0  0.43138152624572257  0.7490914571912128  0.00061048946331977  1.0000
  H   H20       1.0  0.5686346015909791  0.25091514908938  0.9993976542652662  1.0000
  H   H21       1.0  0.4117607541387401  0.1979210788580801  0.15320811373167942  1.0000
  H   H22       1.0  0.5882533352235414  0.8020766947925679  0.8467903453604607  1.0000
  H   H23       1.0  0.8142087548056479  0.05516233584425119  0.113135204098576  1.0000
  H   H24       1.0  0.1858000675384871  0.9448262682043164  0.8868691980082133  1.0000
  H   H25       1.0  0.9269620322823754  0.05202283037515799  0.25756935646587925  1.0000
  H   H26       1.0  0.07304945431430107  0.9479748688795837  0.7424341257937928  1.0000
  H   H27       1.0  0.9650897488090989  0.9679624865163562  0.09711225515158639  1.0000
  H   H28       1.0  0.0349150709204693  0.0320307165580402  0.9028941520889404  1.0000
  H   H29       1.0  0.8780460653382394  0.40134362231856363  0.24841324694534722  1.0000
  H   H30       1.0  0.12195152496117607  0.5986524852900389  0.7515752794150787  1.0000
  H   H31       1.0  0.8671985963067427  0.3712196647889883  0.396160779684358  1.0000
  H   H32       1.0  0.13280750426498864  0.6287773852474032  0.6038282945071032  1.0000
  H   H33       1.0  0.9334794679012006  0.5558229614844308  0.4089578459285761  1.0000
  H   H34       1.0  0.06653230812880648  0.44417630163127336  0.5910291611397582  1.0000
  C   C1        1.0  0.1379628524039234  0.6239460298425499  0.14776601379087148  1.0000
  C   C2        1.0  0.8620208228380265  0.37605789794996974  0.8522405329287894  1.0000
  C   C3        1.0  0.30246167775545274  0.7231408365268807  0.23710482539209482  1.0000
  C   C4        1.0  0.6975351918082566  0.27686396367170824  0.7629010598931958  1.0000
  C   C5        1.0  0.544956666036377  0.8115392677459424  0.38025402969214644  1.0000
  C   C6        1.0  0.45503356243757054  0.1884601135353066  0.6197463724332197  1.0000
  C   C7        1.0  0.6856500833703905  0.8359673834019785  0.4728056208239053  1.0000
  C   C8        1.0  0.31434902041310403  0.16403309347651882  0.5271891431837474  1.0000
  C   C9        1.0  0.8088474178676748  0.9750462305048517  0.5229161142846764  1.0000
  C   C10       1.0  0.19114365326387878  0.02493831499387509  0.477083631482941  1.0000
  C   C11       1.0  0.7928540289351815  0.0868189030744517  0.4829961127753749  1.0000
  C   C12       1.0  0.2071469597933059  0.9131927179811254  0.5170073384738743  1.0000
  C   C13       1.0  0.652395649830723  0.0639512422364703  0.39132380001023404  1.0000
  C   C14       1.0  0.3475950344533202  0.9360606348340565  0.6086783954048657  1.0000
  C   C15       1.0  0.5300499484533887  0.9239621182253898  0.3404940262996519  1.0000
  C   C16       1.0  0.4699449119218145  0.0760371711527839  0.6595060502672682  1.0000
  C   C17       1.0  0.31013571947021024  0.9408729936567467  0.1815059136763182  1.0000
  C   C18       1.0  0.6898613616012951  0.059134271258443484  0.8184927882653741  1.0000
  C   C19       1.0  0.41036807129319186  0.9708078556429243  0.08823687818488689  1.0000
  C   C20       1.0  0.5896403426108207  0.029187704928411093  0.9117636480303944  1.0000
  C   C21       1.0  0.4608261111700215  0.8597276097441833  0.0017123263025382175  1.0000
  C   C22       1.0  0.5391982978056545  0.14028366120282948  0.9982850786196451  1.0000
  C   C23       1.0  0.45040196599679655  0.11085635604099758  0.0858742964324222  1.0000
  C   C24       1.0  0.5496091250070948  0.8891615432119478  0.9141425810219489  1.0000
  C   C25       1.0  0.6752913920513636  0.44544463777173604  0.3289414224060111  1.0000
  C   C26       1.0  0.32471387997973283  0.5545568165454001  0.6710544940653947  1.0000
  C   C27       1.0  0.0625776256701229  0.2082492894387471  0.18951812805320867  1.0000
  C   C28       1.0  0.9374208980597557  0.7917443250071514  0.8104777211879439  1.0000
  C   C29       1.0  0.9343063166824025  0.06270990749315788  0.16427694879469368  1.0000
  C   C30       1.0  0.06570243356639335  0.9372843517934369  0.8357294481283619  1.0000
  C   C31       1.0  0.8485219541383416  0.4410660833979422  0.3457324541820484  1.0000
  C   C32       1.0  0.15148383645941982  0.5589332125415254  0.6542582737354581  1.0000
  N   N1        1.0  0.40088703960807953  0.6890266705690706  0.3144511641547468  1.0000
  N   N2        1.0  0.599108029359826  0.31097270633451757  0.6855453775843189  1.0000
  N   N3        1.0  0.37629879743382594  0.8643971031496774  0.2508551680384628  1.0000
  N   N4        1.0  0.6236982836376795  0.13561016176551985  0.7491435339032293  1.0000
  O   O1        1.0  0.6173601217542952  0.47696684689195484  0.2380700237584535  1.0000
  O   O2        1.0  0.38264502020309976  0.523035486399465  0.7619360682676587  1.0000
  O   O3        1.0  0.1784165603441252  0.2663610579611131  0.30109136708490075  1.0000
  O   O4        1.0  0.8215906593885265  0.7336368863661633  0.6989062547844754  1.0000
  O   O5        1.0  0.5931046567870125  0.4179610997753399  0.4105152179236171  1.0000
  O   O6        1.0  0.4068966724709924  0.582027922209484  0.5894793703536367  1.0000
  O   O7        1.0  0.0565128160692794  0.26481312899061743  0.10829980734997953  1.0000
  O   O8        1.0  0.9434841484520221  0.7351827160417557  0.8916993234940165  1.0000
