data_image0
_chemical_formula_structural       Cu3H16C8Cl6O4
_chemical_formula_sum              "Cu3 H16 C8 Cl6 O4"
_cell_length_a       7.12846249693514
_cell_length_b       7.12843776987022
_cell_length_c       9.110068719322173
_cell_angle_alpha    98.90615768776095
_cell_angle_beta     98.90640347034791
_cell_angle_gamma    112.84181811686172

_space_group_name_H-M_alt    "P 1"
_space_group_IT_number       1

loop_
  _space_group_symop_operation_xyz
  'x, y, z'

loop_
  _atom_site_type_symbol
  _atom_site_label
  _atom_site_symmetry_multiplicity
  _atom_site_fract_x
  _atom_site_fract_y
  _atom_site_fract_z
  _atom_site_occupancy
  Cu  Cu1       1.0  0.915459234196554  0.91545660889728  0.3075411949752791  1.0000
  Cu  Cu2       1.0  0.08502144587804142  0.0850206468337333  0.6916360839310938  1.0000
  Cu  Cu3       1.0  0.0011772308158911  0.0011767965731551  0.0021594899580464  1.0000
  H   H1        1.0  0.38249872673221574  0.5888672984053542  0.12932119394740477  1.0000
  H   H2        1.0  0.4116132859499403  0.6178059404649903  0.8708381033209276  1.0000
  H   H3        1.0  0.6178035820786789  0.41161366197269433  0.8708415434163399  1.0000
  H   H4        1.0  0.5888741819665954  0.38249428919880313  0.12932297447862603  1.0000
  H   H5        1.0  0.42130469102988144  0.7651467205610774  0.30576203755755677  1.0000
  H   H6        1.0  0.23487633840028374  0.5787101884583805  0.6945744746919758  1.0000
  H   H7        1.0  0.5787094421887105  0.2348840636135067  0.694577061141743  1.0000
  H   H8        1.0  0.7651473844371637  0.42130322728500164  0.3057669765050761  1.0000
  H   H9        1.0  0.2583869364010667  0.467685871131316  0.42249961120590024  1.0000
  H   H10       1.0  0.5319143924163329  0.7411832388701217  0.5772865974829884  1.0000
  H   H11       1.0  0.74117324376261  0.5319160651991767  0.5772804952393358  1.0000
  H   H12       1.0  0.4676862612520197  0.2583806397887117  0.4224981918971409  1.0000
  H   H13       1.0  0.0856281486918178  0.42864695690757776  0.24435397889279634  1.0000
  H   H14       1.0  0.5714011110083633  0.9143080944431292  0.7553350015079586  1.0000
  H   H15       1.0  0.914304480237867  0.5714029356462335  0.7553299398430795  1.0000
  H   H16       1.0  0.4286501743447388  0.08562449887966753  0.2443545699899303  1.0000
  C   C1        1.0  0.4117857719039151  0.6109053168402598  0.2546350448871165  1.0000
  C   C2        1.0  0.3891530250184233  0.5883030499078715  0.7454987016302254  1.0000
  C   C3        1.0  0.5882991394053576  0.38914831613885786  0.7454914468133252  1.0000
  C   C4        1.0  0.6109106293888827  0.4117837744887964  0.2546369169074935  1.0000
  C   C5        1.0  0.23933073287080484  0.4394282496829335  0.29775861604738196  1.0000
  C   C6        1.0  0.5605871343834465  0.7605648892373013  0.7020600771757015  1.0000
  C   C7        1.0  0.7605581658000845  0.560589089550696  0.7020642664331049  1.0000
  C   C8        1.0  0.4394318064787229  0.23933190797315967  0.297761758894552  1.0000
  Cl  Cl1       1.0  0.8689703838339041  0.1329496376116026  0.5001192275197539  1.0000
  Cl  Cl2       1.0  0.13294891288430935  0.8689671578891522  0.500119564700384  1.0000
  Cl  Cl3       1.0  0.7376110866958571  0.004219006222477597  0.11770555642508636  1.0000
  Cl  Cl4       1.0  0.994692381635126  0.2598765230762581  0.881649614279567  1.0000
  Cl  Cl5       1.0  0.25987580142646755  0.9946909980452506  0.8816523722352797  1.0000
  Cl  Cl6       1.0  0.004219364857625876  0.7376116891067995  0.11770539475514849  1.0000
  O   O1        1.0  0.6127351048230877  0.6127320324345363  0.3131265323731469  1.0000
  O   O2        1.0  0.3873056039399004  0.38730786766790715  0.6870697920138226  1.0000
  O   O3        1.0  0.23791305543061012  0.23790961010895736  0.24231615822213828  1.0000
  O   O4        1.0  0.7620429193661876  0.7620457658068319  0.7573492757147234  1.0000
