data_image0
_chemical_formula_structural       Zn12H96C144N48Cl24
_chemical_formula_sum              "Zn12 H96 C144 N48 Cl24"
_cell_length_a       14.482714342320236
_cell_length_b       17.85235827980773
_cell_length_c       31.145830981158277
_cell_angle_alpha    99.43593621616853
_cell_angle_beta     89.99300542995415
_cell_angle_gamma    113.92725913101147

_space_group_name_H-M_alt    "P 1"
_space_group_IT_number       1

loop_
  _space_group_symop_operation_xyz
  'x, y, z'

loop_
  _atom_site_type_symbol
  _atom_site_label
  _atom_site_symmetry_multiplicity
  _atom_site_fract_x
  _atom_site_fract_y
  _atom_site_fract_z
  _atom_site_occupancy
  Zn  Zn1       1.0  0.7883966094864617  0.8560039435246123  0.8981928920810278  1.0000
  Zn  Zn2       1.0  0.9325827898984682  0.1440485174029931  0.601808212710722  1.0000
  Zn  Zn3       1.0  0.21160400882241248  0.14399595466586848  0.1018071153449966  1.0000
  Zn  Zn4       1.0  0.06741745003035483  0.8559520049524278  0.3981915329362735  1.0000
  Zn  Zn5       1.0  0.49043978015529177  0.2433985704138592  0.5530397899593638  1.0000
  Zn  Zn6       1.0  0.24702576613724858  0.7566165786148318  0.9469490399367119  1.0000
  Zn  Zn7       1.0  0.5095604584565192  0.7566019494759856  0.44696059759527174  1.0000
  Zn  Zn8       1.0  0.7529748521716256  0.24338331957565626  0.053050967489312505  1.0000
  Zn  Zn9       1.0  0.4525226509986168  0.6022778538435317  0.7114202880638559  1.0000
  Zn  Zn10      1.0  0.8502809778678042  0.39774281372064024  0.788580978505543  1.0000
  Zn  Zn11      1.0  0.5474769654157611  0.39772142146192385  0.2885796602309797  1.0000
  Zn  Zn12      1.0  0.1497189499745346  0.6022570844934023  0.21141902894228082  1.0000
  H   H1        1.0  0.5043173458935468  0.3710219217241928  0.6300176054785851  1.0000
  H   H2        1.0  0.13329150212153704  0.6289951718910629  0.8700307473366778  1.0000
  H   H3        1.0  0.49568320480474165  0.6289792223070237  0.3699825202752153  1.0000
  H   H4        1.0  0.8667091168458397  0.37100472753221675  0.12996893913553012  1.0000
  H   H5        1.0  0.6360226884829032  0.48146682794877893  0.6839248739290369  1.0000
  H   H6        1.0  0.15452434013680957  0.5185295405631078  0.8160998386733029  1.0000
  H   H7        1.0  0.36397792850895877  0.5185330677761185  0.3160757754046274  1.0000
  H   H8        1.0  0.8454755877055363  0.48147035765093454  0.18390016877452817  1.0000
  H   H9        1.0  0.8545178444831762  0.3947172211959397  0.6258817154451892  1.0000
  H   H10       1.0  0.4597503384231699  0.6051954183532329  0.8740755747212745  1.0000
  H   H11       1.0  0.14548239544564723  0.6052833011594886  0.37411803020180673  1.0000
  H   H12       1.0  0.540249900188641  0.3948051015366047  0.125924812833361  1.0000
  H   H13       1.0  0.7153043016264249  0.2898052763735349  0.5734900238365273  1.0000
  H   H14       1.0  0.425539550605471  0.7102061057431256  0.926478990529944  1.0000
  H   H15       1.0  0.2846955579468328  0.7101958664484512  0.42651042289290336  1.0000
  H   H16       1.0  0.5744596867703465  0.2897937924944856  0.0735210169396865  1.0000
  H   H17       1.0  0.07504898610316955  0.4848775051983765  0.6567531046571703  1.0000
  H   H18       1.0  0.5900544187389726  0.5150064372472939  0.8433219566132595  1.0000
  H   H19       1.0  0.9249509404221639  0.5151223905500826  0.34324754469829344  1.0000
  H   H20       1.0  0.4099465116563792  0.4849940850845654  0.15667778901192972  1.0000
  H   H21       1.0  0.25498377307878417  0.4968630761804602  0.6580764298271617  1.0000
  H   H22       1.0  0.7580790826063647  0.5031282009842498  0.8419389249653051  1.0000
  H   H23       1.0  0.7450154642970331  0.5031368220571435  0.34192357764246856  1.0000
  H   H24       1.0  0.24192122427453455  0.49687107429765115  0.1580610233077238  1.0000
  H   H25       1.0  0.34531601442922266  0.6917243282557238  0.7631463589076477  1.0000
  H   H26       1.0  0.653682686560316  0.3082549186562388  0.7368817368200595  1.0000
  H   H27       1.0  0.6546846032211417  0.3082755687019655  0.2368539694722003  1.0000
  H   H28       1.0  0.3463162393875336  0.6917443566727854  0.2631182114965825  1.0000
  H   H29       1.0  0.1695168768481208  0.6889451825715438  0.7658264694917848  1.0000
  H   H30       1.0  0.480570014124261  0.31087939560205063  0.734263285489817  1.0000
  H   H31       1.0  0.8304839852781426  0.31105658436825917  0.234173715415011  1.0000
  H   H32       1.0  0.5194295346795241  0.6891211255441404  0.26573678113280863  1.0000
  H   H33       1.0  0.016323386450821355  0.7253590650090587  0.8172386503476475  1.0000
  H   H34       1.0  0.29106804876916925  0.27470298846528607  0.6828092032337807  1.0000
  H   H35       1.0  0.983676920430078  0.27464021027283547  0.18276129792538146  1.0000
  H   H36       1.0  0.7089331943711624  0.7252981592407578  0.3171899596367638  1.0000
  H   H37       1.0  0.9736628181603987  0.8150044822782758  0.8763046879282543  1.0000
  H   H38       1.0  0.15881736466985788  0.1851023895470547  0.6237002816320187  1.0000
  H   H39       1.0  0.026337109023444265  0.18499541470297481  0.12369564047339313  1.0000
  H   H40       1.0  0.8411825631724879  0.814897508666995  0.3762997258158123  1.0000
  H   H41       1.0  0.675080238884348  0.7208087851141938  0.8248476542428238  1.0000
  H   H42       1.0  0.9543616658502427  0.2792642040922003  0.6751676263859425  1.0000
  H   H43       1.0  0.3249199334338897  0.27919298308196266  0.17515220973196222  1.0000
  H   H44       1.0  0.04563888550654835  0.7207369411718076  0.3248321784140487  1.0000
  H   H45       1.0  0.7065019838138012  0.6286333874632816  0.7631328882152106  1.0000
  H   H46       1.0  0.07788284223394726  0.371358097013676  0.7369204315227265  1.0000
  H   H47       1.0  0.2934975649899839  0.3713671336829094  0.23686717840741525  1.0000
  H   H48       1.0  0.9221177754164174  0.6286417999440204  0.2630798968571142  1.0000
  H   H49       1.0  0.807541711354851  0.7829442201443013  0.9754487587520303  1.0000
  H   H50       1.0  0.024647792285975377  0.21700049039034036  0.5245127168570108  1.0000
  H   H51       1.0  0.19245690250651387  0.21705443104333702  0.024551451365447004  1.0000
  H   H52       1.0  0.9753522051424636  0.7829981656813485  0.4754862094015736  1.0000
  H   H53       1.0  0.949003567473795  0.7907272365217181  0.02613038245085162  1.0000
  H   H54       1.0  0.1584283444327141  0.20930522589329564  0.4738470367465269  1.0000
  H   H55       1.0  0.05099535715704208  0.2092720363417087  0.9738702077734304  1.0000
  H   H56       1.0  0.8415716529957321  0.7906934301784004  0.5261518895120574  1.0000
  H   H57       1.0  0.15204626954654535  0.9955379153007582  0.9693393211998045  1.0000
  H   H58       1.0  0.15681684585899092  0.004553662267404899  0.5306339166946046  1.0000
  H   H59       1.0  0.8479533448923107  0.0044613563063151986  0.030661589956494605  1.0000
  H   H60       1.0  0.8431820794303491  0.9954456118288206  0.4693663525758539  1.0000
  H   H61       1.0  0.0019483897281628894  0.980649546348175  0.9215614318470673  1.0000
  H   H62       1.0  0.0214383463738415  0.019285571423793602  0.5783742130717189  1.0000
  H   H63       1.0  0.9980529177302202  0.0193503493531608  0.07843921746479053  1.0000
  H   H64       1.0  0.9785605802325106  0.9807137051380224  0.4216254142910999  1.0000
  H   H65       1.0  0.48183337902069195  0.9882783378393112  0.1024978251873918  1.0000
  H   H66       1.0  0.4935335228573549  0.011678198004354096  0.39749603162425734  1.0000
  H   H67       1.0  0.5181661704416101  0.011722184539671299  0.8975019204814103  1.0000
  H   H68       1.0  0.5064660935570159  0.9883210773011015  0.6025039166705852  1.0000
  H   H69       1.0  0.6576814836005056  0.09878698668193657  0.09791228772113672  1.0000
  H   H70       1.0  0.5588383280304327  0.9010865071444342  0.40208322282389736  1.0000
  H   H71       1.0  0.3423177544338144  0.9012129127884662  0.9020873987946771  1.0000
  H   H72       1.0  0.4411612883839453  0.09891276816102128  0.5979167254709452  1.0000
  H   H73       1.0  0.5599098699666385  0.1772382759904119  0.9961776036558733  1.0000
  H   H74       1.0  0.3826190659452634  0.8227802668227681  0.5038574298698464  1.0000
  H   H75       1.0  0.4400899902651288  0.8227628680643659  0.0038225221197407907  1.0000
  H   H76       1.0  0.6173811726665476  0.17722025306706968  0.4961429576847891  1.0000
  H   H77       1.0  0.37936129249947476  0.07177784592146709  0.9973965307568877  1.0000
  H   H78       1.0  0.30750077100852014  0.9282434087718343  0.5025894969801428  1.0000
  H   H79       1.0  0.6206378766072546  0.9282232969240808  0.0026039159943423156  1.0000
  H   H80       1.0  0.6924994669447883  0.0717571098852119  0.4974112115283163  1.0000
  H   H81       1.0  0.06481770971289784  0.6940723776026089  0.0737225090581077  1.0000
  H   H82       1.0  0.370807361021285  0.30585837072712246  0.42627841454037013  1.0000
  H   H83       1.0  0.9351815270044168  0.3059275194022035  0.9262778193653393  1.0000
  H   H84       1.0  0.6291908751185389  0.694140905858248  0.5737212128442553  1.0000
  H   H85       1.0  0.046815327852961164  0.5961494624459858  0.1267209694687779  1.0000
  H   H86       1.0  0.45072282539558717  0.4038295569496454  0.3733017274383671  1.0000
  H   H87       1.0  0.9531839088643534  0.4038504345588263  0.873279358954669  1.0000
  H   H88       1.0  0.5492767910187837  0.5961697183558171  0.6266982208564686  1.0000
  H   H89       1.0  0.27258298432079175  0.781391249303354  0.2127258665895226  1.0000
  H   H90       1.0  0.49124570949915375  0.21862501620788066  0.2872311760440667  1.0000
  H   H91       1.0  0.7274183251131134  0.218608650096364  0.7872738198608715  1.0000
  H   H92       1.0  0.5087525272991795  0.7813742616102884  0.7127681303867419  1.0000
  H   H93       1.0  0.3049899620689017  0.8846383084774343  0.16187526637737193  1.0000
  H   H94       1.0  0.42047582996027427  0.11533252865418579  0.3380833648140893  1.0000
  H   H95       1.0  0.6950102765429094  0.1153622114124033  0.8381251211772638  1.0000
  H   H96       1.0  0.5795220947515816  0.8846661250226048  0.6619162034175476  1.0000
  C   C1        1.0  0.5830949445353892  0.3790766105358044  0.6299908676803201  1.0000
  C   C2        1.0  0.20401487608049237  0.6209211248004889  0.870033108929917  1.0000
  C   C3        1.0  0.41690491569637084  0.6209245335189806  0.37000925809529417  1.0000
  C   C4        1.0  0.7959853638483309  0.3790793975549391  0.12996663671708572  1.0000
  C   C5        1.0  0.6568821945303469  0.44035977017287553  0.6600414332985809  1.0000
  C   C6        1.0  0.21650330730194142  0.55961946299994  0.8399744882943807  1.0000
  C   C7        1.0  0.3431166631484144  0.5596407497640853  0.3399589542996608  1.0000
  C   C8        1.0  0.7834973110069324  0.44038043519054776  0.1600255191316364  1.0000
  C   C9        1.0  0.756871568664664  0.4478940303892782  0.6587163421855992  1.0000
  C   C10       1.0  0.30893594247405076  0.5520718019335504  0.841288358765489  1.0000
  C   C11       1.0  0.24312867126415927  0.5521064919661497  0.3412834034613965  1.0000
  C   C12       1.0  0.6910639860267976  0.4479280975132907  0.1587113277285184  1.0000
  C   C13       1.0  0.7785173059608893  0.3926275137503977  0.6272856129039825  1.0000
  C   C14       1.0  0.3858606522834619  0.607339367275152  0.8727029093696288  1.0000
  C   C15       1.0  0.22148224350140558  0.6073730086285919  0.3727141327648128  1.0000
  C   C16       1.0  0.6141395869868587  0.3926611538474774  0.1272971572311903  1.0000
  C   C17       1.0  0.7005982581242307  0.3336095667085743  0.5982256930297183  1.0000
  C   C18       1.0  0.3670087570100335  0.6663924037948945  0.9017640881720512  1.0000
  C   C19       1.0  0.2994012906795617  0.6663909544376168  0.40177437359290025  1.0000
  C   C20       1.0  0.6329921727268086  0.33360811730418033  0.0982359784069615  1.0000
  C   C21       1.0  0.8380986204694522  0.5125125026209503  0.6899378436568355  1.0000
  C   C22       1.0  0.3255779607651376  0.4874505415406958  0.8100824411685184  1.0000
  C   C23       1.0  0.1619016194593711  0.48748801973447786  0.31006190199016  1.0000
  C   C24       1.0  0.6744223454572592  0.5125487325084066  0.18991782805833426  1.0000
  C   C25       1.0  0.004294275803857764  0.58036209662054  0.7130659723801359  1.0000
  C   C26       1.0  0.4239000039653504  0.4195318984686196  0.7869907504780116  1.0000
  C   C27       1.0  0.9957059621494438  0.4196384220364989  0.2869347361283232  1.0000
  C   C28       1.0  0.5761009257714917  0.5804686226304554  0.2130093161009938  1.0000
  C   C29       1.0  0.8888905875611853  0.6179502537525468  0.7485051232268276  1.0000
  C   C30       1.0  0.2709118638408228  0.3819523231491573  0.7515554415390612  1.0000
  C   C31       1.0  0.11110933896414817  0.3820496419959127  0.25149552612864323  1.0000
  C   C32       1.0  0.7290887544680443  0.6180475750413308  0.24844456588695613  1.0000
  C   C33       1.0  0.10956374841448012  0.5871269452495795  0.7109995069326304  1.0000
  C   C34       1.0  0.5223543691696975  0.41268200891595086  0.7891018007656857  1.0000
  C   C35       1.0  0.8904364901973308  0.4128735746402582  0.2890008806220053  1.0000
  C   C36       1.0  0.47764656056714466  0.587318512183117  0.21089826581332727  1.0000
  C   C37       1.0  0.13351707054319206  0.5322970299539733  0.6802555317063155  1.0000
  C   C38       1.0  0.601105532863194  0.46754641277686193  0.8198474254328831  1.0000
  C   C39       1.0  0.8664828566406441  0.4677028670272774  0.319744796695332  1.0000
  C   C40       1.0  0.39889508610418284  0.5324534866464177  0.1801522610393178  1.0000
  C   C41       1.0  0.23240912080137116  0.538747357417968  0.680797935349901  1.0000
  C   C42       1.0  0.6935848250235707  0.4611756881468096  0.8192628513161397  1.0000
  C   C43       1.0  0.767590806382472  0.46125253956328277  0.3192023930517465  1.0000
  C   C44       1.0  0.3064154825158311  0.5388235883678831  0.1807367760030729  1.0000
  C   C45       1.0  0.2831149849350892  0.6485621178939593  0.7396830047305444  1.0000
  C   C46       1.0  0.6345678771211922  0.3513475230730521  0.7603725704098283  1.0000
  C   C47       1.0  0.7168849429072566  0.35143778032008294  0.2603170027172795  1.0000
  C   C48       1.0  0.36543173929317857  0.6486517522324036  0.23962737788501445  1.0000
  C   C49       1.0  0.18635536981486203  0.6463691742453007  0.7412183144757024  1.0000
  C   C50       1.0  0.5399400551928295  0.3534521497320497  0.7588769985975576  1.0000
  C   C51       1.0  0.8136448701139611  0.35363134811012026  0.2587814311712933  1.0000
  C   C52       1.0  0.4600591828414976  0.6465477497383461  0.24112268791824937  1.0000
  C   C53       1.0  0.8652238267155282  0.6709572616484962  0.7846532789576772  1.0000
  C   C54       1.0  0.19429410626518964  0.32903479872920366  0.7153929408603618  1.0000
  C   C55       1.0  0.1347757883818304  0.329042011191369  0.21534731124479836  1.0000
  C   C56       1.0  0.8057064457501184  0.6709663477676029  0.28460654298580584  1.0000
  C   C57       1.0  0.9404926003652109  0.7238452859076219  0.8173139855008885  1.0000
  C   C58       1.0  0.21674132321668074  0.2761927271690752  0.6827139232699084  1.0000
  C   C59       1.0  0.05950670396268253  0.27615336525645506  0.1826862245947751  1.0000
  C   C60       1.0  0.7832602306931233  0.7238090422127567  0.31728561970744107  1.0000
  C   C61       1.0  0.9164954553336955  0.7736302564995654  0.8504790429969733  1.0000
  C   C62       1.0  0.14300203241182877  0.22646038731054569  0.6495344802452154  1.0000
  C   C63       1.0  0.08350447119163819  0.2263696392488868  0.14952160635849052  1.0000
  C   C64       1.0  0.8569985189449695  0.7735407579534693  0.35046532455476864  1.0000
  C   C65       1.0  0.7499817664806868  0.7206350213192392  0.8218841659755685  1.0000
  C   C66       1.0  0.029435372908423546  0.2794371630753431  0.6781316881556522  1.0000
  C   C67       1.0  0.2500191632561553  0.2793654997798356  0.17811590060344434  1.0000
  C   C68       1.0  0.9705658682563931  0.7205639809323185  0.32186843757634886  1.0000
  C   C69       1.0  0.7678262556453673  0.6691003351667176  0.7874553592239979  1.0000
  C   C70       1.0  0.09875890925754757  0.3309151792346867  0.7125850705576228  1.0000
  C   C71       1.0  0.23217498486094001  0.3309008076081454  0.21254508746182676  1.0000
  C   C72       1.0  0.9012427109458231  0.6690853418408197  0.2874149959995833  1.0000
  C   C73       1.0  0.885267122228839  0.8291061634953677  0.9755991518318654  1.0000
  C   C74       1.0  0.056273178759241184  0.1708808599158758  0.5243767286951524  1.0000
  C   C75       1.0  0.11473280429649439  0.17089373225309154  0.024401497523598412  1.0000
  C   C76       1.0  0.943725126966683  0.8291171745271413  0.4756218175002332  1.0000
  C   C77       1.0  0.963081986529893  0.8337936273130424  0.003424674960477607  1.0000
  C   C78       1.0  0.1294814156502611  0.16626419881927748  0.4965713070189041  1.0000
  C   C79       1.0  0.03691662667296209  0.16620502264179748  0.9965758561108161  1.0000
  C   C80       1.0  0.8705161996091346  0.833733835647308  0.5034272391982881  1.0000
  C   C81       1.0  0.0612541540487895  0.8936976832160893  0.0011495517169564057  1.0000
  C   C82       1.0  0.16782456851418456  0.10642203014199939  0.49886875088046173  1.0000
  C   C83       1.0  0.9387440801155195  0.10630158967089899  0.9988510385291323  1.0000
  C   C84       1.0  0.8321737352362246  0.8935760006026353  0.5011307581763874  1.0000
  C   C85       1.0  0.07659671613274804  0.9482994979052322  0.9716802342835964  1.0000
  C   C86       1.0  0.12857021849833927  0.05177935683908429  0.5283117505520425  1.0000
  C   C87       1.0  0.923403211051095  0.0517003990760188  0.028320094118051  1.0000
  C   C88       1.0  0.8714287750600888  0.9482186726491973  0.4716880794368167  1.0000
  C   C89       1.0  0.9947113939875151  0.940061912238633  0.9452182738277132  1.0000
  C   C90       1.0  0.05482243164492219  0.05993330596621859  0.5547437661269969  1.0000
  C   C91       1.0  0.0052882217683531945  0.05993736183403089  0.05478199542094592  1.0000
  C   C92       1.0  0.9451788771304733  0.9400665922007078  0.4452562412772211  1.0000
  C   C93       1.0  0.14683609496617564  0.8985316194533793  0.029214481389011792  1.0000
  C   C94       1.0  0.24858787721860406  0.10161167273381005  0.47080712601027136  1.0000
  C   C95       1.0  0.8531631410926295  0.10146827631863428  0.9707861679882585  1.0000
  C   C96       1.0  0.751411740512779  0.8983876050372358  0.5291921803769314  1.0000
  C   C97       1.0  0.20449757470920812  0.8539871566076371  0.0829075224610278  1.0000
  C   C98       1.0  0.35076396664435794  0.14603485300233385  0.41708904643355993  1.0000
  C   C99       1.0  0.7955030429411565  0.1460127403500522  0.9170928059188129  1.0000
  C   C100      1.0  0.6492348923514083  0.8539656694002102  0.5829106992570416  1.0000
  C   C101      1.0  0.31309865736321274  0.9599626951621544  0.05270254858622539  1.0000
  C   C102      1.0  0.353261204018736  0.040039320153866194  0.4472908994221569  1.0000
  C   C103      1.0  0.6869012698206234  0.040037201819096396  0.9472977798154221  1.0000
  C   C104      1.0  0.6467390359100875  0.9599612022015621  0.5527088462248388  1.0000
  C   C105      1.0  0.41753296055663475  0.02231842081209829  0.0501885848127088  1.0000
  C   C106      1.0  0.3952143433616158  0.9776293874883208  0.4497958875150589  1.0000
  C   C107      1.0  0.5824679698387171  0.9776821015197683  0.9498111608124874  1.0000
  C   C108      1.0  0.6047862749472586  0.0223705107021672  0.5502041199109655  1.0000
  C   C109      1.0  0.4967225374849775  0.02945760626474939  0.0787372030534499  1.0000
  C   C110      1.0  0.4672388568891177  0.970475074231288  0.4212418684308119  1.0000
  C   C111      1.0  0.5032773903573683  0.9705422919492931  0.9212628043943811  1.0000
  C   C112      1.0  0.5327607595252529  0.029524201074174482  0.5787580798640235  1.0000
  C   C113      1.0  0.5931555502344708  0.0899122148965219  0.07640324436376743  1.0000
  C   C114      1.0  0.5031785578430216  0.9099978445505669  0.42358020172017774  1.0000
  C   C115      1.0  0.4068436877998564  0.9100876845738737  0.9235964421520465  1.0000
  C   C116      1.0  0.4968210579128467  0.090001429522097  0.5764200675284812  1.0000
  C   C117      1.0  0.5382096046048517  0.13401772795359793  0.019183211840875507  1.0000
  C   C118      1.0  0.40409888709751823  0.8659504799515075  0.4808245699813868  1.0000
  C   C119      1.0  0.46178925373241225  0.8659827932161546  0.9808168548035496  1.0000
  C   C120      1.0  0.5959020426393238  0.13405004114756028  0.519175496597626  1.0000
  C   C121      1.0  0.4394129162596343  0.07557034507838978  0.0197352176972814  1.0000
  C   C122      1.0  0.36375424789217425  0.9243890051357082  0.4802499801850999  1.0000
  C   C123      1.0  0.5605865649335796  0.9244314219085367  0.9802649672531277  1.0000
  C   C124      1.0  0.6362466825031775  0.07561151719615818  0.5197497654400892  1.0000
  C   C125      1.0  0.18680340050060806  0.7962431105332968  0.1140980059316306  1.0000
  C   C126      1.0  0.39077195010189303  0.20374637741446827  0.38589259433421574  1.0000
  C   C127      1.0  0.8131975285777313  0.20375740933297945  0.8859023816011985  1.0000
  C   C128      1.0  0.6092283574375159  0.7962528991002245  0.6141070329849969  1.0000
  C   C129      1.0  0.11160509820603431  0.7150250206258164  0.104300311560408  1.0000
  C   C130      1.0  0.39673844998618074  0.28494867259377077  0.3957148307906309  1.0000
  C   C131      1.0  0.8883947613672233  0.2849761221961699  0.8957001351690155  1.0000
  C   C132      1.0  0.60326116642819  0.7150506027116846  0.6042851175042047  1.0000
  C   C133      1.0  0.10158323108151267  0.6611149463229891  0.1332158340496221  1.0000
  C   C134      1.0  0.4406086809804106  0.3388830822671877  0.36681350323114975  1.0000
  C   C135      1.0  0.8984163164052673  0.33888557235761835  0.8667848744806436  1.0000
  C   C136      1.0  0.5593909360924697  0.6611161942710595  0.6331861241098694  1.0000
  C   C137      1.0  0.22998489109829728  0.764537595678199  0.18115504376746125  1.0000
  C   C138      1.0  0.46557575043458843  0.23546532280040813  0.31882963575252893  1.0000
  C   C139      1.0  0.7700174195716014  0.23546292537375274  0.8188450227679456  1.0000
  C   C140      1.0  0.5344221742772604  0.7645333308763752  0.6811699324791078  1.0000
  C   C141      1.0  0.24680878025164776  0.8214160642385621  0.1533862218438031  1.0000
  C   C142      1.0  0.4255468971108201  0.1785646350344265  0.3465873728276563  1.0000
  C   C143      1.0  0.7531921488266845  0.1785844556277141  0.8466141656890259  1.0000
  C   C144      1.0  0.5744513390290036  0.8214346415509437  0.6534122545569689  1.0000
  N   N1        1.0  0.6045792905349144  0.3268986945206435  0.5994603121070483  1.0000
  N   N2        1.0  0.27770190166718567  0.673111435309984  0.9005441647428116  1.0000
  N   N3        1.0  0.3954209487353991  0.6731018266019859  0.4005397544937709  1.0000
  N   N4        1.0  0.7222973363671412  0.32688846416041156  0.09945552177299531  1.0000
  N   N5        1.0  0.933485305725135  0.5209902847891004  0.6840909544350994  1.0000
  N   N6        1.0  0.4125041750589275  0.4789914883812755  0.8159172738887437  1.0000
  N   N7        1.0  0.06651555640112855  0.47901148215070316  0.31590923047169644  1.0000
  N   N8        1.0  0.5874967546779216  0.5210090327177922  0.18408279269026911  1.0000
  N   N9        1.0  0.9867796139673503  0.6326585272435564  0.7446738641110855  1.0000
  N   N10       1.0  0.35407753845807105  0.3672141525357019  0.755391252136427  1.0000
  N   N11       1.0  0.013219310004977582  0.36734074438708575  0.25532704706701287  1.0000
  N   N12       1.0  0.6459233912787707  0.6327863685633729  0.24460881444258584  1.0000
  N   N13       1.0  0.8115593079776459  0.558082671773775  0.7222724301870187  1.0000
  N   N14       1.0  0.2534446051287133  0.4418281688974232  0.7777797262354229  1.0000
  N   N15       1.0  0.18844093129266778  0.44191784934885453  0.2777276364138004  1.0000
  N   N16       1.0  0.7465553896657012  0.5581704822430921  0.2222204838384414  1.0000
  N   N17       1.0  0.3058172087765738  0.5959187477089215  0.7099433127134989  1.0000
  N   N18       1.0  0.7098943946414025  0.40404367999957447  0.79009651801713  1.0000
  N   N19       1.0  0.6941824076377969  0.40408052759653396  0.29005663558133693  1.0000
  N   N20       1.0  0.2901055332009434  0.5959562182144679  0.20990348943070103  1.0000
  N   N21       1.0  0.8231035177176764  0.7725731311705175  0.8526795126682033  1.0000
  N   N22       1.0  0.05066192686680888  0.22751141909426306  0.6473316315690243  1.0000
  N   N23       1.0  0.1768974113606561  0.22742738869575868  0.1473208748646329  1.0000
  N   N24       1.0  0.9493386231729771  0.7724897237041689  0.3526688151385997  1.0000
  N   N25       1.0  0.9009862663398278  0.8807930611526159  0.9467404120577003  1.0000
  N   N26       1.0  0.02032155866532999  0.11917722693812038  0.5532302784325369  1.0000
  N   N27       1.0  0.09901265894951189  0.11920621294360956  0.053259857212758305  1.0000
  N   N28       1.0  0.979678818460179  0.8808208074342117  0.4467682676974364  1.0000
  N   N29       1.0  0.1254385307636737  0.8447315967289342  0.056997445150941  1.0000
  N   N30       1.0  0.2810054925283367  0.1553758216566195  0.44301819528842407  1.0000
  N   N31       1.0  0.8745607052951313  0.15526829904308667  0.9430032042263294  1.0000
  N   N32       1.0  0.7189934340780154  0.8446234549051964  0.5569814320744015  1.0000
  N   N33       1.0  0.2992079451259499  0.9115023391400568  0.08287167155383203  1.0000
  N   N34       1.0  0.3878558100696097  0.0884566629706853  0.41710361951438574  1.0000
  N   N35       1.0  0.7007919827163959  0.08849755907398557  0.9171283358939917  1.0000
  N   N36       1.0  0.6121444954942773  0.9115426098456254  0.5828969706662833  1.0000
  N   N37       1.0  0.23973519981061023  0.9558907177920658  0.024892009283455287  1.0000
  N   N38       1.0  0.284054937090552  0.0442070667066901  0.47512549113791647  1.0000
  N   N39       1.0  0.7602640369067043  0.04410917921274659  0.9751083191399916  1.0000
  N   N40       1.0  0.7159453704488498  0.9557922098080025  0.5248741361812962  1.0000
  N   N41       1.0  0.6133193311383138  0.14167644908876295  0.04732536883147281  1.0000
  N   N42       1.0  0.47156232761542327  0.8582719326491384  0.4526793793469467  1.0000
  N   N43       1.0  0.38668021766547866  0.858324072057428  0.9526746977911529  1.0000
  N   N44       1.0  0.5284369097603943  0.14172796558847264  0.547320628122691  1.0000
  N   N45       1.0  0.15997595445705304  0.6854373561909028  0.1708828156780768  1.0000
  N   N46       1.0  0.4746525432482328  0.31456379793199574  0.329131035068791  1.0000
  N   N47       1.0  0.840024975279789  0.3145631649081649  0.8291172509009359  1.0000
  N   N48       1.0  0.5253463826996095  0.6854354773970215  0.6708689132478513  1.0000
  Cl  Cl1       1.0  0.6408444286786831  0.7813657838846026  0.9227513271785812  1.0000
  Cl  Cl2       1.0  0.8595954214760295  0.21862573069235933  0.5772373959724604  1.0000
  Cl  Cl3       1.0  0.3591554991636627  0.21863411432944693  0.07724868026924271  1.0000
  Cl  Cl4       1.0  0.1404054419672461  0.7813760387130344  0.42276214702669535  1.0000
  Cl  Cl5       1.0  0.829870064927519  0.9702509968420898  0.869918434180832  1.0000
  Cl  Cl6       1.0  0.8596548163068504  0.029796377250661994  0.6300650988726703  1.0000
  Cl  Cl7       1.0  0.17012986225631724  0.029748900139161098  0.1300818942208153  1.0000
  Cl  Cl8       1.0  0.1403443541168911  0.9702047680604764  0.3699347059709268  1.0000
  Cl  Cl9       1.0  0.5245930294596021  0.28930333300340993  0.490586422735369  1.0000
  Cl  Cl10      1.0  0.23524644628061953  0.7106998615807639  0.009402240741991408  1.0000
  Cl  Cl11      1.0  0.4754062079162152  0.7106965652341939  0.5094135847342687  1.0000
  Cl  Cl12      1.0  0.7647534822202289  0.28930003786607716  0.9905974457520161  1.0000
  Cl  Cl13      1.0  0.34847726310528765  0.21105783141563705  0.5875785865361038  1.0000
  Cl  Cl14      1.0  0.13741793410861905  0.7889460585050829  0.91239286486627  1.0000
  Cl  Cl15      1.0  0.6515233552035865  0.788942066774851  0.41242142088992045  1.0000
  Cl  Cl16      1.0  0.8625819937337267  0.2110538397089599  0.08760714258156103  1.0000
  Cl  Cl17      1.0  0.5120531338675534  0.6677323736617777  0.7789064984819946  1.0000
  Cl  Cl18      1.0  0.8443635244670983  0.33228583415394297  0.7210949416006827  1.0000
  Cl  Cl19      1.0  0.487947797186301  0.3322681499028803  0.22109292618937817  1.0000
  Cl  Cl20      1.0  0.15563571290871886  0.6677140640836683  0.27890506586894764  1.0000
  Cl  Cl21      1.0  0.4401717616708608  0.4789417171906435  0.6780776359815307  1.0000
  Cl  Cl22      1.0  0.9612301388709807  0.5210748939570777  0.8219384312014242  1.0000
  Cl  Cl23      1.0  0.5598278547435172  0.5210575581148192  0.3219223123133049  1.0000
  Cl  Cl24      1.0  0.03876978897136493  0.47892500425696477  0.1780615762463995  1.0000
