data_image0
_chemical_formula_structural       Zn2H10C24I4N2O8
_chemical_formula_sum              "Zn2 H10 C24 I4 N2 O8"
_cell_length_a       9.618211099263716
_cell_length_b       10.918218371657538
_cell_length_c       11.001942509024685
_cell_angle_alpha    92.58399494636882
_cell_angle_beta     91.37822692511915
_cell_angle_gamma    85.52675929288841

_space_group_name_H-M_alt    "P 1"
_space_group_IT_number       1

loop_
  _space_group_symop_operation_xyz
  'x, y, z'

loop_
  _atom_site_type_symbol
  _atom_site_label
  _atom_site_symmetry_multiplicity
  _atom_site_fract_x
  _atom_site_fract_y
  _atom_site_fract_z
  _atom_site_occupancy
  Zn  Zn1       1.0  0.6392224355247649  0.49637057568193654  0.5068412945435199  1.0000
  Zn  Zn2       1.0  0.3528443942624904  0.5030819729085395  0.5044487624515739  1.0000
  H   H1        1.0  0.7035040813120047  0.747893613372362  0.6543102935171917  1.0000
  H   H2        1.0  0.7584289279397608  0.19569503330536256  0.6428236334217985  1.0000
  H   H3        1.0  0.9198262271012608  0.8323158523768304  0.7350410061306435  1.0000
  H   H4        1.0  0.9490466211461951  0.05684984753288092  0.7242029735320088  1.0000
  H   H5        1.0  0.6393435411924314  0.35601259786607653  0.11254419015168082  1.0000
  H   H6        1.0  0.6415925905848995  0.3634699727899503  0.885412921084118  1.0000
  H   H7        1.0  0.128550834984928  0.45265091940057545  0.3197908985254045  1.0000
  H   H8        1.0  0.12990875488247158  0.5691413152506614  0.6844049290255114  1.0000
  H   H9        1.0  0.8621897538192582  0.44665720707736506  0.3223615991782012  1.0000
  H   H10       1.0  0.8643521864292012  0.5599164880373521  0.6875742150075866  1.0000
  C   C1        1.0  0.49848539533643094  0.5191955791393356  0.7438518392616088  1.0000
  C   C2        1.0  0.496212224942461  0.4992355242796195  0.27016587196367686  1.0000
  C   C3        1.0  0.5786164685578753  0.4286520365887868  0.06562484219366382  1.0000
  C   C4        1.0  0.5799710111406498  0.4328743248194299  0.9397660209608534  1.0000
  C   C5        1.0  0.0680390818362255  0.476622726785152  0.4011551339781718  1.0000
  C   C6        1.0  0.06881575042859109  0.5416330355631089  0.6042774615173131  1.0000
  C   C7        1.0  0.9236939186115123  0.4727996650111308  0.40260200116804873  1.0000
  C   C8        1.0  0.9247165704691724  0.536831189912199  0.6059348435118396  1.0000
  C   C9        1.0  0.48148102512034535  0.7375625076692814  0.5228594120141139  1.0000
  C   C10       1.0  0.508643534082772  0.2660355751568488  0.5373929703393898  1.0000
  C   C11       1.0  0.7168524478674739  0.8453183824869159  0.6493706706620088  1.0000
  C   C12       1.0  0.7473414559521315  0.09766527937706831  0.6434219761793757  1.0000
  C   C13       1.0  0.8372757740612542  0.8926000021209076  0.6944647753097969  1.0000
  C   C14       1.0  0.8531372722419306  0.01948693381780941  0.6896388876498989  1.0000
  C   C15       1.0  0.6185640459114126  0.05325222264001891  0.6013349216176636  1.0000
  C   C16       1.0  0.6057082620295019  0.9227954651526532  0.6005575170526356  1.0000
  C   C17       1.0  0.4794808308104024  0.8737102409996352  0.5545252574115268  1.0000
  C   C18       1.0  0.4983173318466  0.1337678686462525  0.5699041941590579  1.0000
  C   C19       1.0  0.360140746208792  0.9537900266926299  0.543994891898713  1.0000
  C   C20       1.0  0.3687609217269952  0.0829504934315395  0.5629096267201846  1.0000
  C   C21       1.0  0.4211856294723261  0.6168297695451417  0.9495293415074003  1.0000
  C   C22       1.0  0.42013488705495683  0.6133771286419288  0.07729003466560161  1.0000
  C   C23       1.0  0.49753086648505734  0.5164588762278088  0.13537319245301663  1.0000
  C   C24       1.0  0.4996032158263048  0.5255606627465994  0.8808133238180106  1.0000
  I   I1        1.0  0.16383457396836576  0.8928136606011774  0.486659225065786  1.0000
  I   I2        1.0  0.18369101962802148  0.19322267085438943  0.6049705893886924  1.0000
  I   I3        1.0  0.3111629686337096  0.7593242072498899  0.854962088640484  1.0000
  I   I4        1.0  0.31286509447716077  0.7556264406678893  0.1823113796173175  1.0000
  N   N1        1.0  0.8536440188036709  0.5017279993434302  0.5053289302168906  1.0000
  N   N2        1.0  0.13893170874799673  0.51021637840077  0.5020748011289697  1.0000
  O   O1        1.0  0.6106364876325471  0.5413306646806575  0.6925244787898706  1.0000
  O   O2        1.0  0.6126659807579528  0.4670618216927237  0.3220522934949059  1.0000
  O   O3        1.0  0.387660500468158  0.48646265204390454  0.6914328599165813  1.0000
  O   O4        1.0  0.3791632356617285  0.5150789602834324  0.321688726721348  1.0000
  O   O5        1.0  0.5929952536532139  0.6839957469715757  0.4796228169399299  1.0000
  O   O6        1.0  0.6223243855205921  0.3174958824601646  0.5568138591734951  1.0000
  O   O7        1.0  0.37188200019983947  0.6846474527225865  0.5428497231745056  1.0000
  O   O8        1.0  0.4023298810165628  0.31813064038628625  0.48452340083292  1.0000
