data_image0
_chemical_formula_structural       Zn2H19C35N7O8
_chemical_formula_sum              "Zn2 H19 C35 N7 O8"
_cell_length_a       9.825717341475533
_cell_length_b       10.960060263337638
_cell_length_c       15.817460756050224
_cell_angle_alpha    87.98683043161923
_cell_angle_beta     90.11878488022916
_cell_angle_gamma    89.04360776658595

_space_group_name_H-M_alt    "P 1"
_space_group_IT_number       1

loop_
  _space_group_symop_operation_xyz
  'x, y, z'

loop_
  _atom_site_type_symbol
  _atom_site_label
  _atom_site_symmetry_multiplicity
  _atom_site_fract_x
  _atom_site_fract_y
  _atom_site_fract_z
  _atom_site_occupancy
  Zn  Zn1       1.0  0.3681354279584853  0.49346827429932455  0.5004966293099925  1.0000
  Zn  Zn2       1.0  0.6452903287496384  0.4904150835955008  0.4994353781232235  1.0000
  H   H1        1.0  0.5644603524464672  0.6958987706896096  0.054743761047817  1.0000
  H   H2        1.0  0.19711272507596084  0.8732130992631967  0.4884581281277747  1.0000
  H   H3        1.0  0.6145906618908442  0.6366326277775303  0.91627053294507  1.0000
  H   H4        1.0  0.13756184074592434  0.5444104198642918  0.6930992214162045  1.0000
  H   H5        1.0  0.13584234200077822  0.6855733900971118  0.6327506369071613  1.0000
  H   H6        1.0  0.8795781353585641  0.6882489423668048  0.6279593125102636  1.0000
  H   H7        1.0  0.7088030696028158  0.428951856739495  0.9305607903904585  1.0000
  H   H8        1.0  0.7105573231687999  0.4996973851167184  0.06772541360514588  1.0000
  H   H9        1.0  0.6358845004583458  0.36082136374848534  0.1013282594699163  1.0000
  H   H10       1.0  0.34781651319647733  0.3308030340716073  0.9431880055020656  1.0000
  H   H11       1.0  0.2724153105705441  0.4821941835920074  0.0806910123819478  1.0000
  H   H12       1.0  0.4397637416726711  0.6642925501324018  0.895708743346759  1.0000
  H   H13       1.0  0.38735277605660917  0.6799357893139089  0.0397037831333193  1.0000
  H   H14       1.0  0.3717432277583583  0.3460568799032161  0.0873815151064221  1.0000
  H   H15       1.0  0.7419125265848622  0.8740609981640474  0.48990175122487756  1.0000
  H   H16       1.0  0.7399705620757829  0.09994074683140043  0.4691358264933284  1.0000
  H   H17       1.0  0.221304181022525  0.12349106283956963  0.570562573796316  1.0000
  H   H18       1.0  0.19674181061941456  0.10071418513951612  0.460128921967268  1.0000
  H   H19       1.0  0.22765428654710015  0.8964638396356296  0.5983403276479108  1.0000
  C   C1        1.0  0.5294009847869605  0.7253443529342577  0.5226354147427725  1.0000
  C   C2        1.0  0.5269172452869954  0.8608191009079249  0.5133621125046659  1.0000
  C   C3        1.0  0.6467707841405287  0.9258209772662979  0.4950816174006292  1.0000
  C   C4        1.0  0.486890846965018  0.45061114615933945  0.6622183734199608  1.0000
  C   C5        1.0  0.6455940229576315  0.0523492525102967  0.48284997935801494  1.0000
  C   C6        1.0  0.5241370538451876  0.12225627386888507  0.4876591783655684  1.0000
  C   C7        1.0  0.405926582170956  0.057255963943077894  0.504305476774185  1.0000
  C   C8        1.0  0.2534490596642058  0.06900467179229962  0.5168993051774746  1.0000
  C   C9        1.0  0.255439732366554  0.925786751926907  0.5335318536561928  1.0000
  C   C10       1.0  0.9357566387944944  0.5244558030072995  0.5602878472578822  1.0000
  C   C11       1.0  0.9347924293646276  0.42971652313822517  0.436081148858598  1.0000
  C   C12       1.0  0.4868514725980902  0.6352537479869297  0.0304174056374578  1.0000
  C   C13       1.0  0.07990836576970392  0.4279738846013643  0.4365511227032854  1.0000
  C   C14       1.0  0.07786325530762642  0.5262909888003547  0.5595821416494005  1.0000
  C   C15       1.0  0.08938103555347252  0.5954583108185363  0.6397772498196304  1.0000
  C   C16       1.0  0.5250541393096739  0.25780718450140233  0.48074255020758017  1.0000
  C   C17       1.0  0.9258047503351609  0.5973179189248017  0.6411421893094058  1.0000
  C   C18       1.0  0.48740349736631566  0.5409718001764077  0.338895361308424  1.0000
  C   C19       1.0  0.511542340338224  0.611106523746379  0.9360976718050225  1.0000
  C   C20       1.0  0.6154809462902338  0.4029995375916328  0.9647237725710409  1.0000
  C   C21       1.0  0.6225375936787289  0.4411518698688257  0.05863624724437949  1.0000
  C   C22       1.0  0.48796420705016175  0.5437088210273162  0.2478628385058457  1.0000
  C   C23       1.0  0.490789080243495  0.5122421289339556  0.0817172795551286  1.0000
  C   C24       1.0  0.4947290597651347  0.47358409639321036  0.9192307759421041  1.0000
  C   C25       1.0  0.8671607775851204  0.37960528576308433  0.36551576839791977  1.0000
  C   C26       1.0  0.14842891395543495  0.36775661450473524  0.36978697517375986  1.0000
  C   C27       1.0  0.8662876996137715  0.5429802459564499  0.7172270197054968  1.0000
  C   C28       1.0  0.6006886217371844  0.2714675560108688  0.957905052046307  1.0000
  C   C29       1.0  0.243856949651864  0.4942035290160265  0.9199988881740139  1.0000
  C   C30       1.0  0.36486945810896293  0.437632342424358  0.0570845294868363  1.0000
  C   C31       1.0  0.35836766535157955  0.42718321012660715  0.9592509158385595  1.0000
  C   C32       1.0  0.48886659021369655  0.5316982653889755  0.17185539345427964  1.0000
  C   C33       1.0  0.49505679225540433  0.4556060671408133  0.8291847753743722  1.0000
  C   C34       1.0  0.4910457208626441  0.446484324862233  0.7530959392876468  1.0000
  C   C35       1.0  0.4074119347137853  0.930605852850285  0.5174697685967543  1.0000
  N   N1        1.0  0.8607841670094206  0.4800159815364893  0.4993848609260141  1.0000
  N   N2        1.0  0.15313092072263151  0.4802982423337028  0.4985271236792029  1.0000
  N   N3        1.0  0.8230445751461206  0.33830597163263587  0.3044216524907952  1.0000
  N   N4        1.0  0.19260096113463732  0.31253765671515776  0.31405390157494384  1.0000
  N   N5        1.0  0.8262314965897776  0.5039531431470794  0.7817533864385807  1.0000
  N   N6        1.0  0.5849786257975325  0.16660784499441667  0.9536266812731637  1.0000
  N   N7        1.0  0.15479312784076174  0.5492271769661059  0.8869766429488948  1.0000
  O   O1        1.0  0.414557236957265  0.6725375464471882  0.5247742656556439  1.0000
  O   O2        1.0  0.6458097966102302  0.6711283785282163  0.5257739969203783  1.0000
  O   O3        1.0  0.3688984813996612  0.4580153084326  0.6281752511021849  1.0000
  O   O4        1.0  0.60063297344891  0.44953545397665107  0.6238895413606825  1.0000
  O   O5        1.0  0.4097576315892867  0.3131852172834542  0.481639569983514  1.0000
  O   O6        1.0  0.6403984794881553  0.3094437789237149  0.477156206177689  1.0000
  O   O7        1.0  0.3713546931153502  0.5388139686070305  0.3749884884060037  1.0000
  O   O8        1.0  0.6029483647562729  0.5378521600983391  0.37584189715386873  1.0000
