data_image0
_chemical_formula_structural       La2H24C36N6O12
_chemical_formula_sum              "La2 H24 C36 N6 O12"
_cell_length_a       7.7867113360004945
_cell_length_b       11.00651649153205
_cell_length_c       11.387064415445023
_cell_angle_alpha    118.02952962804177
_cell_angle_beta     90.00001614430624
_cell_angle_gamma    90.00002722332555

_space_group_name_H-M_alt    "P 1"
_space_group_IT_number       1

loop_
  _space_group_symop_operation_xyz
  'x, y, z'

loop_
  _atom_site_type_symbol
  _atom_site_label
  _atom_site_symmetry_multiplicity
  _atom_site_fract_x
  _atom_site_fract_y
  _atom_site_fract_z
  _atom_site_occupancy
  La  La1       1.0  0.34039815699863857  0.484801636292005  0.5295556133489754  1.0000
  La  La2       1.0  0.840397428487073  0.5151983549436779  0.4704446170424957  1.0000
  H   H1        1.0  0.08104091895539513  0.39495190751648585  0.7306546189481294  1.0000
  H   H2        1.0  0.5810401764566893  0.6050459023478111  0.26934721002087497  1.0000
  H   H3        1.0  0.6422419108860212  0.34618755258872363  0.9023129231881127  1.0000
  H   H4        1.0  0.14223873921262964  0.6538123233283953  0.097684580492924  1.0000
  H   H5        1.0  0.08702548750986241  0.33313454863768033  0.9147759730771695  1.0000
  H   H6        1.0  0.5870221488439498  0.6668642936147363  0.08522632256378411  1.0000
  H   H7        1.0  0.37312040441346994  0.3084423516063381  0.005604195813688788  1.0000
  H   H8        1.0  0.8731123056829448  0.6915576607181178  0.994396928908017  1.0000
  H   H9        1.0  0.6289575909478063  0.19580167990819317  0.42185725363302135  1.0000
  H   H10       1.0  0.12896627656601822  0.8041971679402522  0.5781415402387678  1.0000
  H   H11       1.0  0.6446152956158073  0.9479173619571526  0.3535021550912844  1.0000
  H   H12       1.0  0.1446247449881923  0.05208149809986651  0.6464975256520731  1.0000
  H   H13       1.0  0.08801703013109831  0.9412080308770212  0.3506176557088023  1.0000
  H   H14       1.0  0.5880263139527104  0.058792862325624584  0.6493838084286166  1.0000
  H   H15       1.0  0.3677127190510135  0.8134771065114705  0.320385011511945  1.0000
  H   H16       1.0  0.8677208235449714  0.1865239363345026  0.6796174549312681  1.0000
  H   H17       1.0  0.09250665210623053  0.9007787781343594  0.028499644877740475  1.0000
  H   H18       1.0  0.5925071028454811  0.099221080012498  0.9714995971123983  1.0000
  H   H19       1.0  0.6303705103176969  0.6991979559336841  0.791830792556567  1.0000
  H   H20       1.0  0.13036969378110538  0.30080398452729906  0.2081702741252442  1.0000
  H   H21       1.0  0.6482714377392542  0.8892088077322737  0.021490890811228968  1.0000
  H   H22       1.0  0.1482707870038098  0.11079416726184381  0.9785097677268199  1.0000
  H   H23       1.0  0.3742636562189859  0.9998912441922554  0.1436833898992657  1.0000
  H   H24       1.0  0.874265273581962  0.00011081510231749924  0.8563160233585735  1.0000
  C   C1        1.0  0.5005055549775151  0.3892487933106424  0.7648297351384841  1.0000
  C   C2        1.0  0.000506258950395  0.6107468957951737  0.23516673037927646  1.0000
  C   C3        1.0  0.20316051275387548  0.38217634295915553  0.7707224632775292  1.0000
  C   C4        1.0  0.7031584794977451  0.6178225516267658  0.22927812308468984  1.0000
  C   C5        1.0  0.5146604473113287  0.35477653147047045  0.8678160444836037  1.0000
  C   C6        1.0  0.014657283003387504  0.6452201983342292  0.13218177130382705  1.0000
  C   C7        1.0  0.20725467523509886  0.3477737028907129  0.8741063689778841  1.0000
  C   C8        1.0  0.7072513419681672  0.6522241726688377  0.1258955151698941  1.0000
  C   C9        1.0  0.3655744053795901  0.33394321307794433  0.9239594411257883  1.0000
  C   C10       1.0  0.8655697782599817  0.6660557619875506  0.07604033621549178  1.0000
  C   C11       1.0  0.6601249276768115  0.4149705837688628  0.7036373222894666  1.0000
  C   C12       1.0  0.16012178436896823  0.5850303429053341  0.29636329334403644  1.0000
  C   C13       1.0  0.5109231407629977  0.1369361306263031  0.4059381539990312  1.0000
  C   C14       1.0  0.0109305912748852  0.8630626517250024  0.5940597082430371  1.0000
  C   C15       1.0  0.21404299256523276  0.132842809670926  0.4034629514073202  1.0000
  C   C16       1.0  0.71405027545935  0.8671560743485782  0.5965341196105667  1.0000
  C   C17       1.0  0.5191618405829176  0.996556651754922  0.367627894644073  1.0000
  C   C18       1.0  0.019169964734523107  0.0034421389432423995  0.6323708512260353  1.0000
  C   C19       1.0  0.21171368807302576  0.9924826697254118  0.3657831730622332  1.0000
  C   C20       1.0  0.7117216443445219  0.0075172504722403  0.6342161210456183  1.0000
  C   C21       1.0  0.36694222098102364  0.9229456101643125  0.3488237420370979  1.0000
  C   C22       1.0  0.8669502345639304  0.0770533656164361  0.6511760359049532  1.0000
  C   C23       1.0  0.04815399320744971  0.21075087298148526  0.42128441501151304  1.0000
  C   C24       1.0  0.5481586438791126  0.7892499913540618  0.5787152716451515  1.0000
  C   C25       1.0  0.05049797732640833  0.6987026473590277  0.775777053756343  1.0000
  C   C26       1.0  0.5504982801515794  0.30129616776462603  0.2242234658639219  1.0000
  C   C27       1.0  0.21667984954687824  0.7529441583593907  0.8502964944983304  1.0000
  C   C28       1.0  0.7166787992321632  0.2470557725375215  0.14970456183073816  1.0000
  C   C29       1.0  0.21531219940959556  0.8597665811733393  0.9807048151771908  1.0000
  C   C30       1.0  0.7153123040951854  0.1402333449536641  0.019295360528189975  1.0000
  C   C31       1.0  0.5130694129721007  0.7454770761314222  0.846755170981865  1.0000
  C   C32       1.0  0.013069825305024105  0.2545248032731067  0.15324584441740538  1.0000
  C   C33       1.0  0.5227308092749894  0.8529734751536536  0.9765329593727043  1.0000
  C   C34       1.0  0.022728523649206505  0.14702943043614883  0.023466764253917877  1.0000
  C   C35       1.0  0.3711955573742786  0.9126227193059291  0.04431121924493891  1.0000
  C   C36       1.0  0.8711959932512344  0.0873793424496796  0.955689072697318  1.0000
  N   N1        1.0  0.3469644792539911  0.4027507763164024  0.7172418370163314  1.0000
  N   N2        1.0  0.8469650206112932  0.5972451012424855  0.28275654002164424  1.0000
  N   N3        1.0  0.3615122112223759  0.2047473048106525  0.4248365960065498  1.0000
  N   N4        1.0  0.8615181490997728  0.7952516559681797  0.5751605394830362  1.0000
  N   N5        1.0  0.3632641634220946  0.6967552340440406  0.7837846689605428  1.0000
  N   N6        1.0  0.8632631802649373  0.30324477315196663  0.21621645145366836  1.0000
  O   O1        1.0  0.6326357817700838  0.4499697342525906  0.6104450954989176  1.0000
  O   O2        1.0  0.1326352182552597  0.5500332326029779  0.38955555620341176  1.0000
  O   O3        1.0  0.803663063189845  0.4024960693774986  0.7441711014165264  1.0000
  O   O4        1.0  0.3036611972014926  0.5975090450471966  0.2558305531690974  1.0000
  O   O5        1.0  0.06674469629580672  0.3426787058228342  0.4633135962134247  1.0000
  O   O6        1.0  0.5667492343442363  0.6573221681893956  0.5366860985708684  1.0000
  O   O7        1.0  0.0680393420638694  0.6043593548493362  0.6528225747655512  1.0000
  O   O8        1.0  0.5680384778624443  0.39564049056161815  0.34717665652744495  1.0000
  O   O9        1.0  0.9108663575477963  0.7457919027319803  0.8317008446830059  1.0000
  O   O10       1.0  0.4108654913538389  0.25420607069413137  0.16829936843016205  1.0000
  O   O11       1.0  0.9087252275182323  0.1490589311828288  0.395570852866598  1.0000
  O   O12       1.0  0.408732673300932  0.8509441834413706  0.6044307995669128  1.0000
