data_image0
_chemical_formula_structural       Ag4H16C24N20
_chemical_formula_sum              "Ag4 H16 C24 N20"
_cell_length_a       7.242667521189855
_cell_length_b       8.430239068620446
_cell_length_c       11.122155296015313
_cell_angle_alpha    90.00016669049606
_cell_angle_beta     90.00006387200051
_cell_angle_gamma    98.65655971221453

_space_group_name_H-M_alt    "P 1"
_space_group_IT_number       1

loop_
  _space_group_symop_operation_xyz
  'x, y, z'

loop_
  _atom_site_type_symbol
  _atom_site_label
  _atom_site_symmetry_multiplicity
  _atom_site_fract_x
  _atom_site_fract_y
  _atom_site_fract_z
  _atom_site_occupancy
  Ag  Ag1       1.0  0.20648044385480094  0.8563296247892538  0.47993137647756606  1.0000
  Ag  Ag2       1.0  0.7935195878346236  0.6436716575907441  0.9799306656263836  1.0000
  Ag  Ag3       1.0  0.793521428967651  0.14367216607642058  0.5200687071419594  1.0000
  Ag  Ag4       1.0  0.20648048645142583  0.35632773231227344  0.020069417989859093  1.0000
  H   H1        1.0  0.504724429651155  0.9723173496660638  0.3160362192977573  1.0000
  H   H2        1.0  0.4952720192766691  0.5276808478151693  0.8160332409706184  1.0000
  H   H3        1.0  0.4952770255537474  0.027682041451626605  0.6839638643189829  1.0000
  H   H4        1.0  0.5047237034418401  0.47231733856610003  0.18396504443012412  1.0000
  H   H5        1.0  0.7275058981600324  0.8116646276878329  0.21883823497626756  1.0000
  H   H6        1.0  0.27249528958171254  0.688337968050682  0.7188363492643574  1.0000
  H   H7        1.0  0.27249597466242653  0.18833716317784882  0.7811618486432579  1.0000
  H   H8        1.0  0.7275054111273535  0.31166502146870567  0.28116103703713685  1.0000
  H   H9        1.0  0.3969092495419489  0.7391923102267699  0.9134417167681689  1.0000
  H   H10       1.0  0.6030933803709644  0.7608086976146212  0.4134407039736416  1.0000
  H   H11       1.0  0.6030908247474187  0.2608070796818609  0.0865610641670003  1.0000
  H   H12       1.0  0.3969098733692392  0.23919309446385034  0.5865584805400771  1.0000
  H   H13       1.0  0.16078088371948954  0.8922308280625729  0.9979119390088795  1.0000
  H   H14       1.0  0.8392189834072  0.6077693293436113  0.4979116581481122  1.0000
  H   H15       1.0  0.8392178096499237  0.10776856062951622  0.002089942819487999  1.0000
  H   H16       1.0  0.1607824717977024  0.3922300617740717  0.5020884254686279  1.0000
  C   C1        1.0  0.17041497237270423  0.02498154876398931  0.22087364548886507  1.0000
  C   C2        1.0  0.8295828767971118  0.47501678269268416  0.7208709921478658  1.0000
  C   C3        1.0  0.829585101915562  0.9750178411427727  0.779128236339993  1.0000
  C   C4        1.0  0.17041422684135912  0.5249814049051267  0.2791281923596785  1.0000
  C   C5        1.0  0.3115798404941259  0.9419221471036396  0.16582062722731186  1.0000
  C   C6        1.0  0.6884174109023321  0.558074225985159  0.6658178544140299  1.0000
  C   C7        1.0  0.6884170543388847  0.05807484062579251  0.8341812545977659  1.0000
  C   C8        1.0  0.31158086484620645  0.4419227629533254  0.334181330092612  1.0000
  C   C9        1.0  0.4744797877238796  0.9196985370998404  0.2273474051045312  1.0000
  C   C10       1.0  0.5255196224191536  0.5803016931195586  0.7273445642495774  1.0000
  C   C11       1.0  0.5255171071047046  0.08029845062210232  0.7726508802953092  1.0000
  C   C12       1.0  0.47447927975350984  0.41969889543716493  0.2726528220486344  1.0000
  C   C13       1.0  0.6000095386289956  0.8325205731610411  0.1731914839372521  1.0000
  C   C14       1.0  0.39999250008816034  0.667479433897647  0.6731887447576099  1.0000
  C   C15       1.0  0.3999932974958611  0.1674788191731906  0.8268094987862967  1.0000
  C   C16       1.0  0.6000077830044573  0.3325211558756251  0.3268095406474103  1.0000
  C   C17       1.0  0.41644337155399574  0.7913617344086747  0.0027846530764179997  1.0000
  C   C18       1.0  0.5835582478374378  0.7086375628108004  0.5027830353211868  1.0000
  C   C19       1.0  0.583554904197868  0.20863525453543022  0.9972172287491573  1.0000
  C   C20       1.0  0.4164477677393564  0.29136423169514103  0.4972152500872155  1.0000
  C   C21       1.0  0.2848363882646794  0.8780832543068371  0.049789079975944596  1.0000
  C   C22       1.0  0.7151659732197971  0.6219198383365169  0.5497882650235084  1.0000
  C   C23       1.0  0.7151645212586928  0.12192093509590761  0.9502128018584982  1.0000
  C   C24       1.0  0.2848338922574741  0.3780783516925085  0.45021181859134163  1.0000
  N   N1        1.0  0.12255039694650091  0.015470535095488507  0.3381818162384818  1.0000
  N   N2        1.0  0.8774465687794617  0.48452948367787496  0.8381801172883384  1.0000
  N   N3        1.0  0.8774485052316905  0.9845300534706001  0.6618200655912786  1.0000
  N   N4        1.0  0.12255074366888861  0.5154699037958039  0.1618199663269095  1.0000
  N   N5        1.0  0.9802304412682616  0.10047323347343003  0.3486613016151736  1.0000
  N   N6        1.0  0.019768557591405105  0.3995304297916888  0.8486605981995226  1.0000
  N   N7        1.0  0.01977005063645271  0.8995285561794475  0.6513396811101656  1.0000
  N   N8        1.0  0.9802293812843816  0.6004725573058496  0.15134038452622178  1.0000
  N   N9        1.0  0.9452607062879254  0.16064151399412915  0.24269538294792878  1.0000
  N   N10       1.0  0.05473941273576342  0.33936170907700364  0.7426945722688884  1.0000
  N   N11       1.0  0.05473978561678903  0.8393602756587486  0.7573055997774177  1.0000
  N   N12       1.0  0.9452596982500979  0.6606400793612083  0.2573064104559535  1.0000
  N   N13       1.0  0.06196278799983192  0.11476802621143631  0.16042948546755298  1.0000
  N   N14       1.0  0.9380367109710193  0.38523245442702614  0.660428510669881  1.0000
  N   N15       1.0  0.9380374950961042  0.885232563567449  0.8395714972563936  1.0000
  N   N16       1.0  0.06196198239617701  0.6147669342613186  0.3395715729458643  1.0000
  N   N17       1.0  0.5714746871699035  0.7665914555250951  0.0628036240474046  1.0000
  N   N18       1.0  0.4285243180760149  0.7334080892800048  0.5628028486020895  1.0000
  N   N19       1.0  0.4285253871183557  0.2334079343816668  0.9371982577814606  1.0000
  N   N20       1.0  0.5714745840988587  0.2665924992804634  0.43719633590873735  1.0000
