data_image0
_chemical_formula_structural       Dy2H42C66S8N2O16
_chemical_formula_sum              "Dy2 H42 C66 S8 N2 O16"
_cell_length_a       9.349054424200867
_cell_length_b       10.46736544775112
_cell_length_c       15.889556127192128
_cell_angle_alpha    82.92862547220126
_cell_angle_beta     82.32319433374552
_cell_angle_gamma    78.35163674284952

_space_group_name_H-M_alt    "P 1"
_space_group_IT_number       1

loop_
  _space_group_symop_operation_xyz
  'x, y, z'

loop_
  _atom_site_type_symbol
  _atom_site_label
  _atom_site_symmetry_multiplicity
  _atom_site_fract_x
  _atom_site_fract_y
  _atom_site_fract_z
  _atom_site_occupancy
  Dy  Dy1       1.0  0.8360310258245605  0.9213965217759893  0.046783588746443144  1.0000
  Dy  Dy2       1.0  0.16397218382060433  0.07860087026558923  0.9532162105803221  1.0000
  H   H1        1.0  0.2909409749015381  0.8247509738267171  0.7613561090793508  1.0000
  H   H2        1.0  0.709066510150528  0.17524640390848134  0.23863767973409716  1.0000
  H   H3        1.0  0.24853030778061222  0.357318222165091  0.8626157192995548  1.0000
  H   H4        1.0  0.7514699308404786  0.642683102526334  0.13738337312825882  1.0000
  H   H5        1.0  0.42527503729105837  0.1330679617655832  0.07051300186054729  1.0000
  H   H6        1.0  0.5747247988081412  0.8669353234132303  0.9294859642391625  1.0000
  H   H7        1.0  0.39832547750770436  0.8646434400521129  0.19352582671192659  1.0000
  H   H8        1.0  0.6016723506048224  0.1353539758330911  0.8064769255072617  1.0000
  H   H9        1.0  0.0751948205247785  0.4284982463585862  0.7629474647864924  1.0000
  H   H10       1.0  0.9248025485121972  0.5715011390577587  0.23704824210575737  1.0000
  H   H11       1.0  0.3970986005285582  0.6632647212068932  0.6555437410261147  1.0000
  H   H12       1.0  0.6029088206912122  0.33672775909195723  0.344451708985936  1.0000
  H   H13       1.0  0.3637583381819739  0.5415236723119605  0.8800879315944029  1.0000
  H   H14       1.0  0.6362382669411489  0.45847962750189447  0.11991255464080547  1.0000
  H   H15       1.0  0.5497739492671343  0.3067748831401076  0.0978546628115922  1.0000
  H   H16       1.0  0.4502248115537881  0.6932284066429942  0.9021450196665837  1.0000
  H   H17       1.0  0.19284086084433477  0.45705380554776553  0.2352157009393707  1.0000
  H   H18       1.0  0.8071527299873794  0.5429485261909549  0.7647882555950644  1.0000
  H   H19       1.0  0.4602978779190181  0.6977638638875521  0.31720245715367656  1.0000
  H   H20       1.0  0.539700230710487  0.3022374667238239  0.6828005840306445  1.0000
  H   H21       1.0  0.28397024699765433  0.4665622770000724  0.6561381412797616  1.0000
  H   H22       1.0  0.7160284088610213  0.5334361219239625  0.3438581703978584  1.0000
  H   H23       1.0  0.2008978835600247  0.2736582704045247  0.6677937442074435  1.0000
  H   H24       1.0  0.7991012952065192  0.7263430564247174  0.3322079515985194  1.0000
  H   H25       1.0  0.35310803604018304  0.4937909505300268  0.3366315848645911  1.0000
  H   H26       1.0  0.6468881078699839  0.5062094115127209  0.663371065241023  1.0000
  H   H27       1.0  0.6647978244629161  0.9875204884747933  0.5645372166474018  1.0000
  H   H28       1.0  0.33519978696493524  0.012477910120587398  0.4354635854080512  1.0000
  H   H29       1.0  0.3127991119087384  0.3129631719281036  0.5158905152774338  1.0000
  H   H30       1.0  0.6871979008775213  0.6870381665762011  0.48411072628576335  1.0000
  H   H31       1.0  0.548788636941346  0.16894916875821758  0.46720980617400437  1.0000
  H   H32       1.0  0.45120572808670534  0.8310492469386691  0.5327906290172562  1.0000
  H   H33       1.0  0.80961973140365  0.9990936243600643  0.719472819047347  1.0000
  H   H34       1.0  0.19038524169990723  0.0009057164938397  0.2805273081940882  1.0000
  H   H35       1.0  0.2074136448503836  0.8087860979339181  0.5062144573051555  1.0000
  H   H36       1.0  0.7925874142382271  0.19121130331625122  0.4937867747785346  1.0000
  H   H37       1.0  0.02671506828779261  0.10224849327614999  0.6791066247553488  1.0000
  H   H38       1.0  0.973289443602809  0.8977479098066466  0.32089566635648475  1.0000
  H   H39       1.0  0.10241806933201049  0.5386344768143942  0.46578240861636994  1.0000
  H   H40       1.0  0.8975810837283191  0.4613668541256358  0.5342161421901181  1.0000
  H   H41       1.0  0.22590847773393113  0.011366395286536605  0.5695364499827704  1.0000
  H   H42       1.0  0.7740936617741953  0.9886310005371752  0.43046469472235327  1.0000
  C   C1        1.0  0.0671468847481762  0.8217697078281034  0.8798873451104112  1.0000
  C   C2        1.0  0.9328640685296182  0.17822666927324352  0.12010938973084957  1.0000
  C   C3        1.0  0.2126871579994044  0.8687553255583329  0.08373148491916989  1.0000
  C   C4        1.0  0.7873126296912217  0.13124305971766154  0.9162710293788335  1.0000
  C   C5        1.0  0.12266498292964911  0.7204733362309526  0.8192551533558541  1.0000
  C   C6        1.0  0.877344275863294  0.2795259886722548  0.1807402213720408  1.0000
  C   C7        1.0  0.2520104292135699  0.7603573715858547  0.15055926367352157  1.0000
  C   C8        1.0  0.7479855288593812  0.2396439682341054  0.8494452102677243  1.0000
  C   C9        1.0  0.0611685996788793  0.6069372561106405  0.8213317749024823  1.0000
  C   C10       1.0  0.938837216594557  0.39306306531562285  0.17866379879706776  1.0000
  C   C11       1.0  0.24392648532082006  0.7381783049125588  0.7596672890145867  1.0000
  C   C12       1.0  0.7560790607181217  0.2618181001432092  0.2403292537196222  1.0000
  C   C13       1.0  0.30678040673895873  0.10515238130306412  0.7908080113692931  1.0000
  C   C14       1.0  0.693217877445285  0.8948479731754092  0.20919194797959756  1.0000
  C   C15       1.0  0.31547887225993776  0.35045991866469006  0.914509808345599  1.0000
  C   C16       1.0  0.6845200795394462  0.6495423925190452  0.08548867929683716  1.0000
  C   C17       1.0  0.4132167407002213  0.22575196767613193  0.030108058572743294  1.0000
  C   C18       1.0  0.5867822162404082  0.7742503426854415  0.9698910580695849  1.0000
  C   C19       1.0  0.1936019848677049  0.643972103178946  0.16095430597481195  1.0000
  C   C20       1.0  0.8063911983008724  0.3560321898693246  0.8390488952316344  1.0000
  C   C21       1.0  0.3508849936535512  0.7763154609564185  0.20572822270446514  1.0000
  C   C22       1.0  0.6491107528759699  0.22368686075155614  0.7942749300729374  1.0000
  C   C23       1.0  0.12020471941891497  0.5172357817068587  0.7611439137467142  1.0000
  C   C24       1.0  0.8797976646174916  0.4827655345981371  0.23885311692427538  1.0000
  C   C25       1.0  0.30285185072101234  0.6479169966965087  0.701294142114989  1.0000
  C   C26       1.0  0.6971532238224968  0.35207647223246846  0.29870330648982696  1.0000
  C   C27       1.0  0.3714458781120626  0.11390310306551746  0.7005057635136038  1.0000
  C   C28       1.0  0.6285511295329512  0.8860982362609491  0.29949484904970797  1.0000
  C   C29       1.0  0.38111492840805283  0.45415486683575074  0.9249723215929888  1.0000
  C   C30       1.0  0.6188827468521013  0.5458484291959707  0.07502681926386144  1.0000
  C   C31       1.0  0.4831779330673172  0.325095447071739  0.0448818278101371  1.0000
  C   C32       1.0  0.5168208277536054  0.6749078427113702  0.9551178546680389  1.0000
  C   C33       1.0  0.2339174795715522  0.5485045861878532  0.22762038577877766  1.0000
  C   C34       1.0  0.7660752423840763  0.45149676908930997  0.7723849792980602  1.0000
  C   C35       1.0  0.3865990302187115  0.6824985437060106  0.2734053678020345  1.0000
  C   C36       1.0  0.6133945451892802  0.3175037904991882  0.7265967017327168  1.0000
  C   C37       1.0  0.2393701608848887  0.5378728373471517  0.7018611298935439  1.0000
  C   C38       1.0  0.7606332191737762  0.4621235793836861  0.29813495859790606  1.0000
  C   C39       1.0  0.5021229673133122  0.028985817735531303  0.6719495323996298  1.0000
  C   C40       1.0  0.49787425187513185  0.9710145397029207  0.32805240132751107  1.0000
  C   C41       1.0  0.3038221082898289  0.2136244971942958  0.6434332505825751  1.0000
  C   C42       1.0  0.6961751108986151  0.7863758602441563  0.356568683144573  1.0000
  C   C43       1.0  0.4662162680416487  0.44464076331074404  0.9926447901903755  1.0000
  C   C44       1.0  0.5337816136207039  0.5553615516551249  0.007355042830418799  1.0000
  C   C45       1.0  0.3272231097945308  0.5686950023356301  0.28404343871849136  1.0000
  C   C46       1.0  0.6727708835590817  0.4313053689157015  0.7159606441440401  1.0000
  C   C47       1.0  0.5644117604483441  0.051831916484466924  0.5875726291538823  1.0000
  C   C48       1.0  0.43558436803810013  0.9481684480247522  0.4124281339520407  1.0000
  C   C49       1.0  0.366273944972157  0.23533796756356645  0.5597637018300715  1.0000
  C   C50       1.0  0.633722395057717  0.7646614150576383  0.4402383824396948  1.0000
  C   C51       1.0  0.4981430049682487  0.1542166810840158  0.5326472597319307  1.0000
  C   C52       1.0  0.5018520379574342  0.8457836896738157  0.46735296175266666  1.0000
  C   C53       1.0  0.8846971748046284  0.8439773941407721  0.6375688420544563  1.0000
  C   C54       1.0  0.1153045570403606  0.15602196299249016  0.36243154732267857  1.0000
  C   C55       1.0  0.000672681871321916  0.7884392583153639  0.5778615781835015  1.0000
  C   C56       1.0  0.9993249346977751  0.21155913945785443  0.4221398528718509  1.0000
  C   C57       1.0  0.8972088373304177  0.9570769854549043  0.672779858339716  1.0000
  C   C58       1.0  0.10279358783593302  0.042924324272824804  0.3272222043304396  1.0000
  C   C59       1.0  0.9991515990752118  0.6651266252967006  0.5427221619439564  1.0000
  C   C60       1.0  0.0008536339803554839  0.33487663357200864  0.4572757382630214  1.0000
  C   C61       1.0  0.12131298575638273  0.8515563373401065  0.5533313626147559  1.0000
  C   C62       1.0  0.8786887563710976  0.14844301814883215  0.44667028476217036  1.0000
  C   C63       1.0  0.0193785210454038  0.0157068888948686  0.6492445880886634  1.0000
  C   C64       1.0  0.980623623603968  0.9842905061066886  0.3507571856163593  1.0000
  C   C65       1.0  0.13134410110429678  0.9640501213409609  0.5883116960087091  1.0000
  C   C66       1.0  0.8686600031231679  0.03594824305138639  0.41168983977512846  1.0000
  S   S1        1.0  0.9155556279567278  0.5800212439830688  0.9016001869062932  1.0000
  S   S2        1.0  0.08444743397731  0.41998202738285784  0.0983966300580335  1.0000
  S   S3        1.0  0.0780738041513871  0.6183319088883225  0.08691797527607999  1.0000
  S   S4        1.0  0.9219251682129652  0.38167039900677224  0.9130830283659391  1.0000
  S   S5        1.0  0.5836005900632983  0.89764652127284  0.7436089349272166  1.0000
  S   S6        1.0  0.4163976992621913  0.10235383238347853  0.2563916534215735  1.0000
  S   S7        1.0  0.7235171591282065  0.7746460489280196  0.6635659731113819  1.0000
  S   S8        1.0  0.27648221575804394  0.2253542984796867  0.3364351568587337  1.0000
  N   N1        1.0  0.3277706406596934  0.23802548094174372  0.9666305948803852  1.0000
  N   N2        1.0  0.6722308847831115  0.7619748572573712  0.03336910233279872  1.0000
  O   O1        1.0  0.942567983349683  0.8196397129799208  0.9242773274161133  1.0000
  O   O2        1.0  0.0574404755407159  0.18036353207590852  0.07571842365547347  1.0000
  O   O3        1.0  0.9165915156567479  0.1093788118889805  0.9414769944678482  1.0000
  O   O4        1.0  0.08341079940611708  0.890617607801829  0.058521068401859104  1.0000
  O   O5        1.0  0.148177340468628  0.9040854096410982  0.8836275348258267  1.0000
  O   O6        1.0  0.8518378860786768  0.0959060458516205  0.116372398699454  1.0000
  O   O7        1.0  0.304273872148741  0.9409576589269408  0.051606395017202454  1.0000
  O   O8        1.0  0.6957259104006398  0.0590407271712081  0.9483954902809089  1.0000
  O   O9        1.0  0.3805103866203724  0.032283310569596296  0.8466646205797588  1.0000
  O   O10       1.0  0.6194887818636873  0.9677180179039626  0.15333581722641298  1.0000
  O   O11       1.0  0.17903758110126233  0.17302343364583092  0.8117575002032709  1.0000
  O   O12       1.0  0.8209598290656503  0.82697594519324  0.18824323868813758  1.0000
  O   O13       1.0  0.8987337488546531  0.6008487823987565  0.5662125957132388  1.0000
  O   O14       1.0  0.10126019308653869  0.39915159707416603  0.4337851971503424  1.0000
  O   O15       1.0  0.11130977385580826  0.6259890094446305  0.48527925843337977  1.0000
  O   O16       1.0  0.8886885206109196  0.374011343389526  0.5147219589153095  1.0000
