data_image0
_chemical_formula_structural       Ni2H40C48N4O12
_chemical_formula_sum              "Ni2 H40 C48 N4 O12"
_cell_length_a       9.256496570150698
_cell_length_b       9.368725845418084
_cell_length_c       11.865674731178602
_cell_angle_alpha    98.48295703260042
_cell_angle_beta     87.58487398390824
_cell_angle_gamma    90.25611905781948

_space_group_name_H-M_alt    "P 1"
_space_group_IT_number       1

loop_
  _space_group_symop_operation_xyz
  'x, y, z'

loop_
  _atom_site_type_symbol
  _atom_site_label
  _atom_site_symmetry_multiplicity
  _atom_site_fract_x
  _atom_site_fract_y
  _atom_site_fract_z
  _atom_site_occupancy
  Ni  Ni1       1.0  1.107523544898742e-06  3.5919116209998304e-07  0.499999422080414  1.0000
  Ni  Ni2       1.0  0.4999988090640173  0.9999985575293454  0.9999978461715316  1.0000
  H   H1        1.0  0.9675360069741713  0.9913687986535749  0.292147483924758  1.0000
  H   H2        1.0  0.4702269143224029  0.005435822861628001  0.2293069991254981  1.0000
  H   H3        1.0  0.03246800006398589  0.008636101269218  0.7078537154566932  1.0000
  H   H4        1.0  0.529766327423367  0.9945690829462847  0.7706926935802868  1.0000
  H   H5        1.0  0.13695520633475408  0.05244238761609671  0.2900586407360066  1.0000
  H   H6        1.0  0.6367589107016584  0.9564550559932177  0.2427984346184502  1.0000
  H   H7        1.0  0.8630499525442162  0.947559269570171  0.7099396362639112  1.0000
  H   H8        1.0  0.3632289378534352  0.043536903934715106  0.757199852742083  1.0000
  H   H9        1.0  0.3208259281210387  0.28700664050867897  0.8541612429851142  1.0000
  H   H10       1.0  0.8245145786553748  0.7099575446309102  0.6437698353340336  1.0000
  H   H11       1.0  0.6791898655095281  0.7129896234482871  0.14584297851747147  1.0000
  H   H12       1.0  0.17548107873562907  0.29004194772900155  0.3562199197738494  1.0000
  H   H13       1.0  0.1949296232609257  0.42238714395206506  0.5427513025619035  1.0000
  H   H14       1.0  0.6974142158760087  0.5889985971927558  0.9691426610552156  1.0000
  H   H15       1.0  0.8050709001371886  0.5776091408507186  0.45725823232394447  1.0000
  H   H16       1.0  0.3025846600571214  0.4110030523504947  0.0308481327020473  1.0000
  H   H17       1.0  0.44305972006026906  0.5254990619770936  0.9081859543947958  1.0000
  H   H18       1.0  0.933677840990903  0.46538911519996157  0.5841663483315499  1.0000
  H   H19       1.0  0.5569561127328484  0.4745036742422787  0.09181732787356371  1.0000
  H   H20       1.0  0.06631655460386549  0.5346103894955692  0.4158301727428011  1.0000
  H   H21       1.0  0.08694908971258998  0.7424060150221337  0.604633871410087  1.0000
  H   H22       1.0  0.5810545216458465  0.24706333043359757  0.8939734729954552  1.0000
  H   H23       1.0  0.9130496752610284  0.25759348330814197  0.39536089055706464  1.0000
  H   H24       1.0  0.4189582743575215  0.7529361579539116  0.1060218980629344  1.0000
  H   H25       1.0  0.4369457730410459  0.7111091861662757  0.7805508961038399  1.0000
  H   H26       1.0  0.918823800817165  0.28297783639268903  0.7140611285980042  1.0000
  H   H27       1.0  0.5630560337427469  0.28888816405623885  0.2194511539485333  1.0000
  H   H28       1.0  0.08116967790893169  0.7170151840222941  0.2859287583137942  1.0000
  H   H29       1.0  0.30053116791616924  0.9945053141483626  0.392397497109762  1.0000
  H   H30       1.0  0.780837497507555  0.9954943585756342  0.10198809690294298  1.0000
  H   H31       1.0  0.6994718308750834  0.0054941864121076  0.6076005667019047  1.0000
  H   H32       1.0  0.21915995445823455  0.0045116300829662  0.8980158657642647  1.0000
  H   H33       1.0  0.5321355268310838  0.8651369869173777  0.40191744657625605  1.0000
  H   H34       1.0  0.009027645556798802  0.1379190253146234  0.0973121171751075  1.0000
  H   H35       1.0  0.4678675171472406  0.13486251077794262  0.5980789302515035  1.0000
  H   H36       1.0  0.9909772803581948  0.8620902005128672  0.9026954671189954  1.0000
  H   H37       1.0  0.5438825177967245  0.6742690167525752  0.530255495928337  1.0000
  H   H38       1.0  0.025406995655536894  0.3374059728105436  0.9772036144123534  1.0000
  H   H39       1.0  0.4561152665439678  0.3257196848431719  0.46973466385232854  1.0000
  H   H40       1.0  0.974589402876269  0.6625946193508837  0.022798899668984473  1.0000
  C   C1        1.0  0.24986922064263692  0.3413294141140568  0.6953576140256033  1.0000
  C   C2        1.0  0.7544652376709635  0.6641776072669787  0.8105507776180688  1.0000
  C   C3        1.0  0.7501303090694121  0.6586701033972419  0.3046489387980955  1.0000
  C   C4        1.0  0.24553564722373264  0.33581865461462  0.189445261396493  1.0000
  C   C5        1.0  0.3156205395469343  0.5799889436780534  0.6528788539909485  1.0000
  C   C6        1.0  0.808425825610925  0.42328937800316885  0.8511871138147526  1.0000
  C   C7        1.0  0.6843824602484005  0.4200094776944924  0.3471190851957786  1.0000
  C   C8        1.0  0.19157400836159164  0.5767230697071855  0.148809125620943  1.0000
  C   C9        1.0  0.1753332348897061  0.19966815224027107  0.6618791313908261  1.0000
  C   C10       1.0  0.6840586091127109  0.8090361967675577  0.843590747780155  1.0000
  C   C11       1.0  0.8246663133995327  0.8003356805901518  0.33812707644069917  1.0000
  C   C12       1.0  0.3159422069972919  0.1909611485996905  0.1564079463352215  1.0000
  C   C13       1.0  0.31929106910511956  0.3699932575574607  0.7989238270401343  1.0000
  C   C14       1.0  0.8209772001876985  0.6298094308466702  0.7016183858981933  1.0000
  C   C15       1.0  0.680709767590244  0.6300062447530622  0.201074272833182  1.0000
  C   C16       1.0  0.1790281906511595  0.370185736886299  0.2983707084324863  1.0000
  C   C17       1.0  0.18843533437127039  0.7655188186791975  0.561225324314968  1.0000
  C   C18       1.0  0.6783003419090718  0.22874733586575507  0.9384288681736165  1.0000
  C   C19       1.0  0.8115654817387322  0.23447852668804356  0.4387733698004155  1.0000
  C   C20       1.0  0.3216929038530481  0.7712532531904516  0.06157032603237408  1.0000
  C   C21       1.0  0.2482374945747665  0.4468298831759301  0.6232887954556929  1.0000
  C   C22       1.0  0.7489621945156983  0.560681452979054  0.8848305959134563  1.0000
  C   C23       1.0  0.7517575743801999  0.5531707256188485  0.37672301506798084  1.0000
  C   C24       1.0  0.2510430095503438  0.4393202013420635  0.11516599410254709  1.0000
  C   C25       1.0  0.3859255325514823  0.6068702396021662  0.7561681201650003  1.0000
  C   C26       1.0  0.8744221000104417  0.39037236618816007  0.7419781684808342  1.0000
  C   C27       1.0  0.6140796439005882  0.39313681209115  0.24382993646769785  1.0000
  C   C28       1.0  0.1255657641095738  0.6096271466226851  0.2580201477623731  1.0000
  C   C29       1.0  0.387637432026068  0.502269751940915  0.8283420541053345  1.0000
  C   C30       1.0  0.8812039378099001  0.4934564833122438  0.668373048340257  1.0000
  C   C31       1.0  0.6123687853073108  0.49773190580290105  0.17165704835571918  1.0000
  C   C32       1.0  0.11878947413966762  0.5065354622125328  0.3316192444224697  1.0000
  C   C33       1.0  0.3154729714645228  0.6918840279328293  0.5767079895120162  1.0000
  C   C34       1.0  0.8036091559618797  0.3101927312189616  0.9272248660961466  1.0000
  C   C35       1.0  0.6845289020957991  0.30811439717988526  0.42329165468943586  1.0000
  C   C36       1.0  0.19639163153006223  0.6898110907084103  0.07277541926087137  1.0000
  C   C37       1.0  0.4372972752062053  0.8360081407745952  0.4505549404975114  1.0000
  C   C38       1.0  0.9173145219965947  0.16531950864889217  0.050144885651704385  1.0000
  C   C39       1.0  0.56270027617051  0.1639881294623819  0.5494445265773464  1.0000
  C   C40       1.0  0.08268497206879029  0.8346940397380109  0.9498641307882636  1.0000
  C   C41       1.0  0.30717567228936826  0.9068603700711293  0.44271408226546066  1.0000
  C   C42       1.0  0.7901837256355364  0.08638049260490992  0.05465936073886009  1.0000
  C   C43       1.0  0.6928229365376666  0.09313697991132132  0.5572863348954726  1.0000
  C   C44       1.0  0.20981904822443906  0.9136179430933778  0.9453470133674171  1.0000
  C   C45       1.0  0.4427801069311172  0.7294726044121802  0.5203633391215517  1.0000
  C   C46       1.0  0.925427226532612  0.2768326158582966  0.9844558963516051  1.0000
  C   C47       1.0  0.5572153521384848  0.27052150490127497  0.479633384289194  1.0000
  C   C48       1.0  0.0745831016098464  0.7231798431578369  0.015551971663221293  1.0000
  N   N1        1.0  0.18453553836442893  0.8732097040157999  0.49780237750285755  1.0000
  N   N2        1.0  0.6727481169535211  0.1180169368082744  0.9993588954160089  1.0000
  N   N3        1.0  0.815464219291158  0.12678764079389995  0.5021954911513902  1.0000
  N   N4        1.0  0.3272526293676989  0.8819825712325483  0.0006425784251291933  1.0000
  O   O1        1.0  0.1720618892451355  0.1086790104763082  0.7323970757694767  1.0000
  O   O2        1.0  0.6954925811769784  0.9017988537917604  0.7760385827957208  1.0000
  O   O3        1.0  0.8279213941215033  0.891329155096365  0.2676115880081227  1.0000
  O   O4        1.0  0.30450921757412164  0.09820712993415981  0.223964464256234  1.0000
  O   O5        1.0  0.11712293833878108  0.1809777068376306  0.5650628809528726  1.0000
  O   O6        1.0  0.6109447427495381  0.8270265194375597  0.9397722370372961  1.0000
  O   O7        1.0  0.8828765451821069  0.8190228927267356  0.4349454834796802  1.0000
  O   O8        1.0  0.38904967845102323  0.1729697462616215  0.06022306667025389  1.0000
  O   O9        1.0  0.044318467924306  0.0515569612952262  0.3346292109239997  1.0000
  O   O10       1.0  0.546496225186317  0.93329668580671  0.20380838130036952  1.0000
  O   O11       1.0  0.9556823421611752  0.9484468591995707  0.6653702309410646  1.0000
  O   O12       1.0  0.4534892795204968  0.06669636651979972  0.7961968146824034  1.0000
