data_image0
_chemical_formula_structural       Dy2Mn4H30C42O26
_chemical_formula_sum              "Dy2 Mn4 H30 C42 O26"
_cell_length_a       6.766159793722032
_cell_length_b       11.667807848184903
_cell_length_c       14.985
_cell_angle_alpha    89.25833832218422
_cell_angle_beta     89.40487583504091
_cell_angle_gamma    85.2837975249028

_space_group_name_H-M_alt    "P 1"
_space_group_IT_number       1

loop_
  _space_group_symop_operation_xyz
  'x, y, z'

loop_
  _atom_site_type_symbol
  _atom_site_label
  _atom_site_symmetry_multiplicity
  _atom_site_fract_x
  _atom_site_fract_y
  _atom_site_fract_z
  _atom_site_occupancy
  Dy  Dy1       1.0  0.25682400431375646  0.05963733944160048  0.4382324961552442  1.0000
  Dy  Dy2       1.0  0.743137080401411  0.9403672238989386  0.5617638365569135  1.0000
  Mn  Mn1       1.0  0.09808331363957731  0.2413186673290468  0.08407879772278903  1.0000
  Mn  Mn2       1.0  0.9020036465314476  0.7586841759434435  0.9159056173053416  1.0000
  Mn  Mn3       1.0  0.5174442232418174  0.360548624442913  0.7387955793578912  1.0000
  Mn  Mn4       1.0  0.48251277566971146  0.6394430383872418  0.2612049065403356  1.0000
  H   H1        1.0  0.8903418153064993  0.1883663723689253  0.495474125662419  1.0000
  H   H2        1.0  0.10961222755912561  0.8116252904612296  0.504531712771339  1.0000
  H   H3        1.0  0.2506154922248172  0.0029619571843895  0.094304297831556  1.0000
  H   H4        1.0  0.7495080362699157  0.99703314578187  0.9056833603772249  1.0000
  H   H5        1.0  0.3348649015394045  0.1235550682289315  0.9456640617984677  1.0000
  H   H6        1.0  0.6652984458072879  0.8764615355879641  0.054341878316130014  1.0000
  H   H7        1.0  0.43884866981402143  0.3332692051828872  0.9981858710973129  1.0000
  H   H8        1.0  0.561253713334068  0.6667499787360853  0.0018303389386602005  1.0000
  H   H9        1.0  0.4176135904914701  0.338982411215369  0.17697662846206447  1.0000
  H   H10       1.0  0.5824186998228243  0.6610307524654218  0.8230426403136308  1.0000
  H   H11       1.0  0.8904751817885243  0.2894900331405026  0.65722374340735  1.0000
  H   H12       1.0  0.10947553977356962  0.7105042097917361  0.34277607859293374  1.0000
  H   H13       1.0  0.844640854859023  0.5056234640620119  0.7220571587486406  1.0000
  H   H14       1.0  0.15531675281522442  0.4943638985980172  0.2779560469805987  1.0000
  H   H15       1.0  0.48132173537038625  0.5990472402018128  0.6739733176804281  1.0000
  H   H16       1.0  0.5186408103753095  0.4009470027304189  0.32603779354374757  1.0000
  H   H17       1.0  0.3039982171839313  0.4398248408605525  0.5794427298900546  1.0000
  H   H18       1.0  0.6959609024981077  0.5601831626160916  0.4205582487038698  1.0000
  H   H19       1.0  0.6520795506296511  0.0159880325370878  0.24161484796628946  1.0000
  H   H20       1.0  0.3479122950775421  0.9839976100548853  0.7583835331783464  1.0000
  H   H21       1.0  0.9185911936582444  0.0104304926632466  0.24996649591028594  1.0000
  H   H22       1.0  0.08139760823534205  0.9895766507793695  0.7500356868133409  1.0000
  H   H23       1.0  0.7689175210233756  0.1397993909056723  0.2733939440939892  1.0000
  H   H24       1.0  0.23104022539583724  0.8601974321286363  0.7266004802844607  1.0000
  H   H25       1.0  0.8585878057467229  0.3716181223872326  0.42550784469681  1.0000
  H   H26       1.0  0.1413545176954258  0.6283623600005868  0.5744968267158442  1.0000
  H   H27       1.0  0.11525530206616  0.3472137968750033  0.39568173075429774  1.0000
  H   H28       1.0  0.8846808827715265  0.6527787259891795  0.6043215134276352  1.0000
  H   H29       1.0  0.04522065475941161  0.36508788403037323  0.5104566649841547  1.0000
  H   H30       1.0  0.9547097567314327  0.6349140992080962  0.4895511822640728  1.0000
  C   C1        1.0  0.2963898477680473  0.1279550023042262  0.2628318584074449  1.0000
  C   C2        1.0  0.7036160816382238  0.8720564413085157  0.7371641946439951  1.0000
  C   C3        1.0  0.3236133938448874  0.1597263792803005  0.16775200417557565  1.0000
  C   C4        1.0  0.6764613768849089  0.8402790440942666  0.8322491253656852  1.0000
  C   C5        1.0  0.29722074927024533  0.0896576871414183  0.0917504844412065  1.0000
  C   C6        1.0  0.7028944320818058  0.9103546165053515  0.9082517209026335  1.0000
  C   C7        1.0  0.34217937027504763  0.1536149774939304  0.013621087873197303  1.0000
  C   C8        1.0  0.6579236216357673  0.8463999062549162  0.9863811486337613  1.0000
  C   C9        1.0  0.3965908166788878  0.2638068370320994  0.0411495433964149  1.0000
  C   C10       1.0  0.6035212868747167  0.7362063266486912  0.9588580063859597  1.0000
  C   C11       1.0  0.38484269040959873  0.2678842583477774  0.13551055947610285  1.0000
  C   C12       1.0  0.6152165695754307  0.7321263252309436  0.8645019354788206  1.0000
  C   C13       1.0  0.5551333423511126  0.2195537862415762  0.5559911478267596  1.0000
  C   C14       1.0  0.444804581007027  0.7804473369628653  0.44400199151163383  1.0000
  C   C15       1.0  0.586759603628451  0.328858090665257  0.6013758158158923  1.0000
  C   C16       1.0  0.41321426229824726  0.6711292719947721  0.3986293056559306  1.0000
  C   C17       1.0  0.7628126247845444  0.35095150475053316  0.6483248047744044  1.0000
  C   C18       1.0  0.2371358712469133  0.6490375779775448  0.3516724103354108  1.0000
  C   C19       1.0  0.7374432107465696  0.4642764682442007  0.6828424928470299  1.0000
  C   C20       1.0  0.2624920000707648  0.5357229348921919  0.31716602523091103  1.0000
  C   C21       1.0  0.544076951141669  0.5130713587242539  0.6577126930791408  1.0000
  C   C22       1.0  0.4558796995046493  0.48693320461628525  0.3422970071083213  1.0000
  C   C23       1.0  0.45099040778148247  0.4300849555199093  0.6081494825074858  1.0000
  C   C24       1.0  0.548991856265161  0.5699161676845321  0.3918474528819616  1.0000
  C   C25       1.0  0.9042734080782966  0.1496132391725169  0.07278969206060283  1.0000
  C   C26       1.0  0.09584678212047495  0.850374123487505  0.927192721144472  1.0000
  C   C27       1.0  0.002736230679914804  0.3350099140508291  0.9968976637217966  1.0000
  C   C28       1.0  0.9972724990348781  0.6649817487793257  0.003087898216648503  1.0000
  C   C29       1.0  0.9724882097615863  0.3233762337856803  0.16892534430309783  1.0000
  C   C30       1.0  0.027575710804960418  0.6766223093166843  0.8310538834462664  1.0000
  C   C31       1.0  0.6477553054162543  0.2552692792593376  0.8078708033812918  1.0000
  C   C32       1.0  0.35220565754636374  0.7447361441152296  0.19213419657586434  1.0000
  C   C33       1.0  0.4492483553890736  0.442380001950795  0.8346957300477342  1.0000
  C   C34       1.0  0.5506850121476746  0.5576219812876673  0.1653014259929506  1.0000
  C   C35       1.0  0.298965460876417  0.2867164234077322  0.7461793000086561  1.0000
  C   C36       1.0  0.7010252550730414  0.7132563186738565  0.25381587978451864  1.0000
  C   C37       1.0  0.7627248995891736  0.0125074748352247  0.3746498650710565  1.0000
  C   C38       1.0  0.237243575240747  0.9874970885053145  0.6253471003162758  1.0000
  C   C39       1.0  0.777124088258532  0.045298852165736  0.2783759648302748  1.0000
  C   C40       1.0  0.22285558499984862  0.9546996909366214  0.7216230107157103  1.0000
  C   C41       1.0  0.0032304493475762987  0.3304121721496358  0.4460881648670779  1.0000
  C   C42       1.0  0.9967136126150323  0.6695769105784422  0.5539124077080333  1.0000
  O   O1        1.0  0.3261987763062849  0.2007654829169212  0.3233683011197357  1.0000
  O   O2        1.0  0.6737803051818005  0.7992476807638765  0.6766298625114688  1.0000
  O   O3        1.0  0.24823349681617662  0.026876923336018894  0.2832389356994512  1.0000
  O   O4        1.0  0.751732664715405  0.9731439806510096  0.7167565411768708  1.0000
  O   O5        1.0  0.3911011709423776  0.2091843559941466  0.5188856381586291  1.0000
  O   O6        1.0  0.6088618957983414  0.7908270876186023  0.4811112832479908  1.0000
  O   O7        1.0  0.7044512012301425  0.1434596957188958  0.5572509845909366  1.0000
  O   O8        1.0  0.2954981810539651  0.8565440075876225  0.44275275234634404  1.0000
  O   O9        1.0  0.783352960810966  0.0843426768628177  0.06559221424599573  1.0000
  O   O10       1.0  0.21676872440318112  0.9156550062055118  0.9343974286055502  1.0000
  O   O11       1.0  0.9438754805646284  0.3953086196581665  0.9385914750389405  1.0000
  O   O12       1.0  0.056092473270268804  0.6046787430018554  0.06141167215793792  1.0000
  O   O13       1.0  0.8945351003200132  0.3747168249817037  0.22813551917648314  1.0000
  O   O14       1.0  0.10552217763946463  0.6252868783248147  0.7718336777079317  1.0000
  O   O15       1.0  0.733105800827403  0.1879974177719177  0.8545956442122673  1.0000
  O   O16       1.0  0.26687967976265986  0.8120123057727752  0.1454091974198946  1.0000
  O   O17       1.0  0.4072487522294993  0.4953555178296085  0.8988519401860914  1.0000
  O   O18       1.0  0.5927224521336572  0.5046610859872942  0.10114422371393775  1.0000
  O   O19       1.0  0.1570245904814129  0.2358952927632103  0.7504195926365969  1.0000
  O   O20       1.0  0.8429717770623242  0.7640688489781198  0.24958765934329827  1.0000
  O   O21       1.0  0.5938177815640557  0.0119028709151863  0.41378044679718334  1.0000
  O   O22       1.0  0.4061557360974391  0.9880973922552272  0.586215870945857  1.0000
  O   O23       1.0  0.9181848329936886  0.9847733607460327  0.42084634437149054  1.0000
  O   O24       1.0  0.08178931042294123  0.0152329226625554  0.5791552484327838  1.0000
  O   O25       1.0  0.9950733931834038  0.2082529391443515  0.4516613946565117  1.0000
  O   O26       1.0  0.004879415164367601  0.7917370036177545  0.5483504729090216  1.0000
