data_image0
_chemical_formula_structural       Zn2H28C52I12N2O12
_chemical_formula_sum              "Zn2 H28 C52 I12 N2 O12"
_cell_length_a       14.210056606338352
_cell_length_b       14.265336494088308
_cell_length_c       15.198476367215788
_cell_angle_alpha    90.93676238465375
_cell_angle_beta     88.79316300800876
_cell_angle_gamma    89.5359448408757

_space_group_name_H-M_alt    "P 1"
_space_group_IT_number       1

loop_
  _space_group_symop_operation_xyz
  'x, y, z'

loop_
  _atom_site_type_symbol
  _atom_site_label
  _atom_site_symmetry_multiplicity
  _atom_site_fract_x
  _atom_site_fract_y
  _atom_site_fract_z
  _atom_site_occupancy
  Zn  Zn1       1.0  0.48973819042323896  0.3866954106972997  0.48481350273419116  1.0000
  Zn  Zn2       1.0  0.47817578017011897  0.6143635095983767  0.4851225978078518  1.0000
  H   H1        1.0  0.5138000597411221  0.18888850898979107  0.762567555527859  1.0000
  H   H2        1.0  0.8873985399027544  0.7648946911169716  0.3824672260560647  1.0000
  H   H3        1.0  0.9483473866478107  0.8691993761245554  0.4084079040642763  1.0000
  H   H4        1.0  0.9878895681072137  0.8055458584586931  0.55761638188973  1.0000
  H   H5        1.0  0.028595137903472793  0.7274711429150856  0.4726387004645503  1.0000
  H   H6        1.0  0.9246376413707011  0.701473922218213  0.5334232365554215  1.0000
  H   H7        1.0  0.8236126529836196  0.1173780377715659  0.5344768418735486  1.0000
  H   H8        1.0  0.7628353179841413  0.21767702936467967  0.49374086078064755  1.0000
  H   H9        1.0  0.9386238026559608  0.1299329027126177  0.4048244253669466  1.0000
  H   H10       1.0  0.8826083501278104  0.23606495926993887  0.3760945125724718  1.0000
  H   H11       1.0  0.920970887401104  0.304957384039824  0.5272106166052168  1.0000
  H   H12       1.0  0.5368960353690468  0.0841120903212058  0.8218531024252584  1.0000
  H   H13       1.0  0.0239330317961191  0.2710814882102142  0.4668590143242071  1.0000
  H   H14       1.0  0.980536369453489  0.19894580970173342  0.5523086820669221  1.0000
  H   H15       1.0  0.5140961201873323  0.8734536627433298  0.7994804279637933  1.0000
  H   H16       1.0  0.4754799756264134  0.7757765088163281  0.7343201220825579  1.0000
  H   H17       1.0  0.3418832248725252  0.7498908361119233  0.8347007726290487  1.0000
  H   H18       1.0  0.3608024810112269  0.8577810526480575  0.8904154098699024  1.0000
  H   H19       1.0  0.5022044900457487  0.6917421435254383  0.8880321816511767  1.0000
  H   H20       1.0  0.42207768663452316  0.7186724129720047  0.9759968522764737  1.0000
  H   H21       1.0  0.5132554066425428  0.7981126834765745  0.9488390117363255  1.0000
  H   H22       1.0  0.37369634614828584  0.22130271505324117  0.8624493321900601  1.0000
  H   H23       1.0  0.40358645584176145  0.1229718049165811  0.9256909030111231  1.0000
  H   H24       1.0  0.5603635226258561  0.1980045584137642  0.9613659297095296  1.0000
  H   H25       1.0  0.4650680718197009  0.27322865768394416  0.9930726407168466  1.0000
  H   H26       1.0  0.5309475477705448  0.29511731238531524  0.8952931254495056  1.0000
  H   H27       1.0  0.7720672082647297  0.7962124789569954  0.5038497775842998  1.0000
  H   H28       1.0  0.8347966992785912  0.8991651120673723  0.5360309336929134  1.0000
  C   C1        1.0  0.48155738038790474  0.5229778757093725  0.6518338085885773  1.0000
  C   C2        1.0  0.6451083658784142  0.5445635884046993  0.026985110944053797  1.0000
  C   C3        1.0  0.5765172215556973  0.1897721624862641  0.4690422244166328  1.0000
  C   C4        1.0  0.4546169986958048  0.8116735020215914  0.556519915129563  1.0000
  C   C5        1.0  0.4682536195704471  0.19304999744840495  0.5872980369612719  1.0000
  C   C6        1.0  0.583863086916267  0.8075173812784583  0.4583236091512575  1.0000
  C   C7        1.0  0.48637381907903426  0.09785108511444919  0.6067654739674779  1.0000
  C   C8        1.0  0.6097541866582289  0.9002323493725297  0.4813914325419121  1.0000
  C   C9        1.0  0.6068200911619  0.09789245752831018  0.48716219378633957  1.0000
  C   C10       1.0  0.4779710285707495  0.9007657887406495  0.5904033434002259  1.0000
  C   C11       1.0  0.5505598891454041  0.048643331001514405  0.5490544054981115  1.0000
  C   C12       1.0  0.4722230392029302  0.5227217859051052  0.31754026738203583  1.0000
  C   C13       1.0  0.5496618201249177  0.9488398085395386  0.5432559748663267  1.0000
  C   C14       1.0  0.4436959573584787  0.043613176308369396  0.677149336214697  1.0000
  C   C15       1.0  0.6898224067953647  0.95180579876871  0.4468987644239491  1.0000
  C   C16       1.0  0.6866998589163985  0.0487819594755265  0.44727417526425484  1.0000
  C   C17       1.0  0.4356500592307384  0.9474967202449419  0.6665769315445189  1.0000
  C   C18       1.0  0.6614537249850727  0.4937485732742885  0.484710009620109  1.0000
  C   C19       1.0  0.3100765337173356  0.46514677072617866  0.4792919847500628  1.0000
  C   C20       1.0  0.7626458435128569  0.5000624247253498  0.48036258328089343  1.0000
  C   C21       1.0  0.20882764691427977  0.4677934407069699  0.47328816296493414  1.0000
  C   C22       1.0  0.8489270350453565  0.5008682178683089  0.47549383046989396  1.0000
  C   C23       1.0  0.47409184792665116  0.5149984560067437  0.0310921250422211  1.0000
  C   C24       1.0  0.12309099887956168  0.47861959398539966  0.4715948348312651  1.0000
  C   C25       1.0  0.9430412479972785  0.49742097089870896  0.47208259058803054  1.0000
  C   C26       1.0  0.029528810301627594  0.4893313734840915  0.47082280144827143  1.0000
  C   C27       1.0  0.5567042558039715  0.5255195233198576  0.1706527533580982  1.0000
  C   C28       1.0  0.39649848711963637  0.4969386613436839  0.7967429991881048  1.0000
  C   C29       1.0  0.47116044526777756  0.5233990130906463  0.2173241984492833  1.0000
  C   C30       1.0  0.4810888742150112  0.513341026403836  0.7511565228065181  1.0000
  C   C31       1.0  0.38588590441592163  0.5205242163269971  0.1723394776034368  1.0000
  C   C32       1.0  0.5658382580426462  0.5175145628744886  0.7962732759091011  1.0000
  C   C33       1.0  0.38420724800508305  0.5148310903285278  0.07869790040687263  1.0000
  C   C34       1.0  0.47871066404100293  0.5039193465255921  0.9368643604100059  1.0000
  C   C35       1.0  0.5677587690560344  0.5084611387936988  0.8891465625726838  1.0000
  C   C36       1.0  0.48138512574346487  0.1344736740803398  0.8037710739968135  1.0000
  C   C37       1.0  0.43326270314910437  0.17847465599870552  0.8842776138416115  1.0000
  C   C38       1.0  0.5012972574039694  0.23933740525440325  0.9363293930897356  1.0000
  C   C39       1.0  0.8182449807983686  0.8525397557322734  0.4797895307816376  1.0000
  C   C40       1.0  0.9071005993710697  0.8118761885889968  0.4370826084136398  1.0000
  C   C41       1.0  0.9652150325186639  0.7587558213739811  0.5039662394121365  1.0000
  C   C42       1.0  0.8089668283163646  0.15778519136254232  0.47484944503619897  1.0000
  C   C43       1.0  0.8996057428457078  0.19115991127434742  0.4319027648556641  1.0000
  C   C44       1.0  0.9594482791598081  0.24443394215142425  0.4982516647697254  1.0000
  C   C45       1.0  0.5597510370180601  0.5316918181629475  0.07771058774787323  1.0000
  C   C46       1.0  0.45172976035617296  0.834011145249917  0.778285169164981  1.0000
  C   C47       1.0  0.3968605968270822  0.7980369224126632  0.857261858388526  1.0000
  C   C48       1.0  0.46215760414629864  0.7489238335482328  0.9209698483822424  1.0000
  C   C49       1.0  0.39403047212427816  0.48637134010725447  0.8892931592858062  1.0000
  C   C50       1.0  0.30149154627962826  0.49960509044202434  0.026813374995256805  1.0000
  C   C51       1.0  0.6516194739752379  0.5152584246111188  0.9402005854519757  1.0000
  C   C52       1.0  0.31028420757336045  0.4679727220138616  0.9405985043958367  1.0000
  I   I1        1.0  0.6780308702656015  0.4874034123223793  0.24133752359103514  1.0000
  I   I2        1.0  0.3186233513854049  0.7598978809212082  0.5795132320170922  1.0000
  I   I3        1.0  0.3573060333400662  0.26570189672058575  0.6526578334900323  1.0000
  I   I4        1.0  0.6474164146383288  0.7400271296612999  0.34800163038411114  1.0000
  I   I5        1.0  0.27378426174289666  0.5205429109061797  0.7233535201183656  1.0000
  I   I6        1.0  0.2696442914763963  0.4982457156767167  0.2587284511875865  1.0000
  I   I7        1.0  0.6804790325575991  0.5687543701372209  0.7199917791554569  1.0000
  I   I8        1.0  0.16276844131240864  0.5432253476944879  0.0637359412195906  1.0000
  I   I9        1.0  0.7834685689690416  0.4597020891474557  0.8967496721586983  1.0000
  I   I10       1.0  0.20891866145981197  0.37189971414445466  0.8943042272212766  1.0000
  I   I11       1.0  0.7541138332833554  0.6323838976384765  0.07262081363002443  1.0000
  I   I12       1.0  0.6117781803867287  0.24765449571795273  0.3465307758818171  1.0000
  N   N1        1.0  0.5099595653751194  0.23581220767130157  0.5178711420464808  1.0000
  N   N2        1.0  0.5072518176292178  0.7659487720423  0.4944102399199864  1.0000
  O   O1        1.0  0.4882295359098165  0.4454306777307408  0.6109440455392559  1.0000
  O   O2        1.0  0.7692520080857719  0.9079402499152067  0.4151375290841557  1.0000
  O   O3        1.0  0.7614344392661534  0.0960543578611919  0.4129083258292568  1.0000
  O   O4        1.0  0.39118867667270524  0.8981266451305245  0.7309562420781008  1.0000
  O   O5        1.0  0.4641357954338971  0.6037818341343524  0.353550635664746  1.0000
  O   O6        1.0  0.48451322694484833  0.4450204409721223  0.3538969835125486  1.0000
  O   O7        1.0  0.4764864003129005  0.6046714734421099  0.6203089297076049  1.0000
  O   O8        1.0  0.6298102482931538  0.41052621282555884  0.48741164996016556  1.0000
  O   O9        1.0  0.3478363205196686  0.5440414738463204  0.4916640785018558  1.0000
  O   O10       1.0  0.34960993118035316  0.3846289586250506  0.47300857736199486  1.0000
  O   O11       1.0  0.6160394169828293  0.5704573386907724  0.4850172320294135  1.0000
  O   O12       1.0  0.41112335901847524  0.08374903761465188  0.7537796825530378  1.0000
