data_image0
_chemical_formula_structural       K4H32Pt4C20N4Cl8O8
_chemical_formula_sum              "K4 H32 Pt4 C20 N4 Cl8 O8"
_cell_length_a       7.67514759607714
_cell_length_b       8.900409049007827
_cell_length_c       14.222150792149094
_cell_angle_alpha    90.00014846416921
_cell_angle_beta     90.00050790349933
_cell_angle_gamma    89.99996609855673

_space_group_name_H-M_alt    "P 1"
_space_group_IT_number       1

loop_
  _space_group_symop_operation_xyz
  'x, y, z'

loop_
  _atom_site_type_symbol
  _atom_site_label
  _atom_site_symmetry_multiplicity
  _atom_site_fract_x
  _atom_site_fract_y
  _atom_site_fract_z
  _atom_site_occupancy
  K   K1        1.0  0.49999949668981714  0.4999880391450021  0.49999982624603917  1.0000
  K   K2        1.0  0.9999990018554001  0.4999890327536535  0.500001033271239  1.0000
  K   K3        1.0  0.9999988335084923  0.9999986362989971  0.5000000319181124  1.0000
  K   K4        1.0  0.5000022708209144  1.3265454484199999e-05  0.49999871824806513  1.0000
  H   H1        1.0  0.5577866588143294  0.8175874352818794  0.753292432581304  1.0000
  H   H2        1.0  0.44221775966954624  0.18240991686791827  0.7532965611293958  1.0000
  H   H3        1.0  0.5577814475499494  0.18241108384369653  0.24670328014750703  1.0000
  H   H4        1.0  0.4422173323124526  0.8175920329656137  0.24670421866351688  1.0000
  H   H5        1.0  0.9459108224393589  0.8843797839580458  0.759921113158043  1.0000
  H   H6        1.0  0.054092400998129606  0.1156209662997583  0.7599232596268377  1.0000
  H   H7        1.0  0.9459055483045091  0.11561740990385522  0.24007858285833084  1.0000
  H   H8        1.0  0.05409051792583601  0.8843789381770576  0.24007845876607084  1.0000
  H   H9        1.0  0.7710013374056218  0.008816753898585699  0.7859237843701404  1.0000
  H   H10       1.0  0.22900230921028003  0.9911818570697192  0.7859260839833835  1.0000
  H   H11       1.0  0.7709950505400798  0.9911794073288716  0.21407577029059144  1.0000
  H   H12       1.0  0.2289966837918627  0.0088202035864242  0.21407577575664752  1.0000
  H   H13       1.0  0.7222840084808057  0.8811938429994584  0.9390643610950062  1.0000
  H   H14       1.0  0.27772213039435206  0.11880315574704528  0.9390661861637921  1.0000
  H   H15       1.0  0.7222758167589802  0.11880234354890719  0.06093495834889499  1.0000
  H   H16       1.0  0.2777147282156491  0.8811955089547965  0.060935205664946986  1.0000
  H   H17       1.0  0.9538677564578892  0.8852362756277967  0.930370036004035  1.0000
  H   H18       1.0  0.0461382409251314  0.11476068707568741  0.9303721426724035  1.0000
  H   H19       1.0  0.9538623147643577  0.11475641992168309  0.06962899529666088  1.0000
  H   H20       1.0  0.046130977522729204  0.8852369744503575  0.06963024043073317  1.0000
  H   H21       1.0  0.9638254032341962  0.6345566424820674  0.8624954536487122  1.0000
  H   H22       1.0  0.0361794895256367  0.3654411623789855  0.862496511978783  1.0000
  H   H23       1.0  0.9638222002795092  0.3654382949820771  0.13750503199280217  1.0000
  H   H24       1.0  0.0361761053549685  0.6345576278644385  0.13750511992422784  1.0000
  H   H25       1.0  0.8033484514878354  0.6122343022232144  0.952992612066019  1.0000
  H   H26       1.0  0.19665400535762254  0.3877650013581259  0.952996590729121  1.0000
  H   H27       1.0  0.8033476694102362  0.3877629657287116  0.047004286269952886  1.0000
  H   H28       1.0  0.19665176921913033  0.6122359525703942  0.04700722222286659  1.0000
  H   H29       1.0  0.5816319799895879  0.6363128100328338  0.847619145225657  1.0000
  H   H30       1.0  0.418372670701011  0.36368268607674276  0.8476241553635757  1.0000
  H   H31       1.0  0.5816290202816036  0.36368232606715617  0.1523766826335091  1.0000
  H   H32       1.0  0.4183682244991687  0.6363136584390645  0.1523800249312259  1.0000
  Pt  Pt1       1.0  0.7269885991988972  0.4517019245922284  0.7360082391925358  1.0000
  Pt  Pt2       1.0  0.2730168409110973  0.5482987265371051  0.7360135496616848  1.0000
  Pt  Pt3       1.0  0.7269834228579057  0.5482976301344988  0.2639875873329629  1.0000
  Pt  Pt4       1.0  0.2730117296091806  0.45170780542694916  0.26399274136106493  1.0000
  C   C1        1.0  0.7348612702896844  0.7417760538561636  0.6505397044609538  1.0000
  C   C2        1.0  0.2651453846242831  0.25821750166975477  0.6505367727033045  1.0000
  C   C3        1.0  0.734852468620339  0.25822462033236343  0.3494603788379465  1.0000
  C   C4        1.0  0.2651453776902741  0.7417811695493339  0.3494561208791039  1.0000
  C   C5        1.0  0.6936667835238381  0.7778476504042899  0.7518485024183402  1.0000
  C   C6        1.0  0.3063363085714101  0.2221530663960252  0.7518548517989385  1.0000
  C   C7        1.0  0.6936615690049948  0.22215192164262726  0.24814786635447206  1.0000
  C   C8        1.0  0.306337234372684  0.7778512011568495  0.24814949072075615  1.0000
  C   C9        1.0  0.8186874904750213  0.8936637321305624  0.7947228633436081  1.0000
  C   C10       1.0  0.18131629934374874  0.10633491531655889  0.7947256090231816  1.0000
  C   C11       1.0  0.8186816562156951  0.10633577494391487  0.20527692155455665  1.0000
  C   C12       1.0  0.1813138436390958  0.8936626759491445  0.20527672361647825  1.0000
  C   C13       1.0  0.8346671874460159  0.8434617534321376  0.8972474386894828  1.0000
  C   C14       1.0  0.16533305925572964  0.15653619550035808  0.8972487822576906  1.0000
  C   C15       1.0  0.8346609537544154  0.1565343747011596  0.10275031397100068  1.0000
  C   C16       1.0  0.16533157465075027  0.8434636511556092  0.10275136383182117  1.0000
  C   C17       1.0  0.8369420491148106  0.6730133889995286  0.8885791376178599  1.0000
  C   C18       1.0  0.1630619652553378  0.32698340045728  0.8885828556523874  1.0000
  C   C19       1.0  0.8369371446425262  0.32698161441012985  0.11142003228524539  1.0000
  C   C20       1.0  0.1630594335685558  0.6730153238413054  0.11142009198273677  1.0000
  N   N1        1.0  0.7019759783507737  0.6413248403302491  0.8149977915857459  1.0000
  N   N2        1.0  0.29802944435465406  0.3586750147180453  0.8150029157070333  1.0000
  N   N3        1.0  0.701969644192765  0.3586736038544629  0.18499861730109754  1.0000
  N   N4        1.0  0.2980255256689547  0.6413281336096404  0.18500138669367056  1.0000
  Cl  Cl1       1.0  0.7510707386354555  0.2522131170429276  0.6312771410285121  1.0000
  Cl  Cl2       1.0  0.24893169413445554  0.7477859763635875  0.631281955178906  1.0000
  Cl  Cl3       1.0  0.7510684352906054  0.7477864251621967  0.3687166923893556  1.0000
  Cl  Cl4       1.0  0.2489297244887041  0.25221832102705105  0.36872281330700213  1.0000
  Cl  Cl5       1.0  0.6969199194261295  0.2966239336098297  0.8648071254094629  1.0000
  Cl  Cl6       1.0  0.3030876168047953  0.7033761279312927  0.864812832220039  1.0000
  Cl  Cl7       1.0  0.6969138454417562  0.7033733896544161  0.13518714968033405  1.0000
  Cl  Cl8       1.0  0.3030792109005632  0.2966270177744477  0.13519430710532987  1.0000
  O   O1        1.0  0.7525389645343168  0.5996533195343047  0.627246390056946  1.0000
  O   O2        1.0  0.2474660084504237  0.4003502513372013  0.6272513375475055  1.0000
  O   O3        1.0  0.7525343549493755  0.4003450983717372  0.3727509660858387  1.0000
  O   O4        1.0  0.24746256755371124  0.5996619116241247  0.37275412699326427  1.0000
  O   O5        1.0  0.7488292171765919  0.8441487510160214  0.59159233752095  1.0000
  O   O6        1.0  0.25117387267742697  0.15586478394798317  0.591600422587284  1.0000
  O   O7        1.0  0.7488279582781133  0.15585528653659247  0.4084050007234409  1.0000
  O   O8        1.0  0.2511747560635342  0.8441597360661672  0.4084043567473471  1.0000
