data_image0
_chemical_formula_structural       Ni4H62C30N12Cl6
_chemical_formula_sum              "Ni4 H62 C30 N12 Cl6"
_cell_length_a       11.082537748345505
_cell_length_b       11.084532293706259
_cell_length_c       11.846851598604243
_cell_angle_alpha    107.9954446484843
_cell_angle_beta     110.97858958162358
_cell_angle_gamma    106.61588258578287

_space_group_name_H-M_alt    "P 1"
_space_group_IT_number       1

loop_
  _space_group_symop_operation_xyz
  'x, y, z'

loop_
  _atom_site_type_symbol
  _atom_site_label
  _atom_site_symmetry_multiplicity
  _atom_site_fract_x
  _atom_site_fract_y
  _atom_site_fract_z
  _atom_site_occupancy
  Ni  Ni1       1.0  0.01128134022844314  0.5582129858993242  0.17243847006593427  1.0000
  Ni  Ni2       1.0  0.11425885508444371  0.16108903738413724  0.6722938200779254  1.0000
  Ni  Ni3       1.0  0.9887137935524282  0.4417892264839693  0.8275612198264852  1.0000
  Ni  Ni4       1.0  0.8857435832099867  0.838910040528056  0.3277116002087511  1.0000
  H   H1        1.0  0.7597058986965877  0.2013304934835247  0.15189334862323287  1.0000
  H   H2        1.0  0.45055171678231437  0.39211213624269453  0.651602752737837  1.0000
  H   H3        1.0  0.24029354147673843  0.7986706395409442  0.8481015436503299  1.0000
  H   H4        1.0  0.5494483648199451  0.6078880352940389  0.3484098012787271  1.0000
  H   H5        1.0  0.7277911492895726  0.24759229058640386  0.015988359845280825  1.0000
  H   H6        1.0  0.2687465006615142  0.28802495573958  0.5155380975670241  1.0000
  H   H7        1.0  0.27220636254377695  0.7524130864208374  0.9840096494500797  1.0000
  H   H8        1.0  0.7312554717226902  0.7119773157238641  0.48447146443801614  1.0000
  H   H9        1.0  0.04345162817960358  0.2670007396431017  0.2971450202236809  1.0000
  H   H10       1.0  0.5302386006877596  0.2539153350879745  0.7969672967682797  1.0000
  H   H11       1.0  0.9565477970323286  0.7330025064928307  0.702849631099312  1.0000
  H   H12       1.0  0.46976666598980904  0.746090071531647  0.2030349697992406  1.0000
  H   H13       1.0  0.9887163296270743  0.394809484123634  0.3607318884627589  1.0000
  H   H14       1.0  0.46579638990375133  0.3720862801465117  0.8604410496249812  1.0000
  H   H15       1.0  0.011281670404052669  0.6051905907959779  0.6392630679268122  1.0000
  H   H16       1.0  0.5342079239021515  0.6279191330654826  0.13956259247301264  1.0000
  H   H17       1.0  0.25896915300333495  0.49487163822282554  0.4612036997413682  1.0000
  H   H18       1.0  0.46648995222901857  0.2025657237329668  0.9613916631095165  1.0000
  H   H19       1.0  0.7410259587990639  0.5051305604352336  0.5387934465650588  1.0000
  H   H20       1.0  0.53351585392943  0.797434412824565  0.038613485586189794  1.0000
  H   H21       1.0  0.23652278598411405  0.4561067661875881  0.29486374006722826  1.0000
  H   H22       1.0  0.3393418986969153  0.05871025870369811  0.7951741749220389  1.0000
  H   H23       1.0  0.7634766831847629  0.54389650739882  0.7051359984277497  1.0000
  H   H24       1.0  0.660665790608242  0.9412940954670933  0.20482858867357134  1.0000
  H   H25       1.0  0.07677074287134643  0.28406386436960673  0.08439814889391073  1.0000
  H   H26       1.0  0.3006537289090474  0.0078135031023976  0.584661901548074  1.0000
  H   H27       1.0  0.9232257654253857  0.7159372426812142  0.9155923913511046  1.0000
  H   H28       1.0  0.6993477641489465  0.9921834637156339  0.41534428735765533  1.0000
  H   H29       1.0  0.9012159770347455  0.2332651296390225  0.9581210031342452  1.0000
  H   H30       1.0  0.2251171874757247  0.056929116570721305  0.45815056323534253  1.0000
  H   H31       1.0  0.09877718506736241  0.766737054753321  0.041873807061151146  1.0000
  H   H32       1.0  0.7748862259779303  0.9430678462127062  0.5418545703334274  1.0000
  H   H33       1.0  0.9277618037186457  0.1367406152072874  0.05471156732176747  1.0000
  H   H34       1.0  0.4181398487923502  0.1268822183381602  0.5545780917995558  1.0000
  H   H35       1.0  0.07223423165078924  0.8632615585580726  0.945280812006196  1.0000
  H   H36       1.0  0.5818626044634743  0.8731147464625696  0.4454275694376905  1.0000
  H   H37       1.0  0.1433763300096943  0.774689035614209  0.4829906263131249  1.0000
  H   H38       1.0  0.2079633250935942  0.3395100731732086  0.982568850430731  1.0000
  H   H39       1.0  0.8566216550600315  0.22531315241686659  0.5170040891258696  1.0000
  H   H40       1.0  0.7920365657194708  0.6604921016731071  0.017423113947316427  1.0000
  H   H41       1.0  0.2341500023302459  0.7004139649691155  0.5800052925217541  1.0000
  H   H42       1.0  0.3791327296707223  0.3458642267800229  0.07987800302753101  1.0000
  H   H43       1.0  0.7658470445201219  0.29958823880449603  0.41999249417171575  1.0000
  H   H44       1.0  0.6208705573837605  0.6541453917968241  0.9201214455278047  1.0000
  H   H45       1.0  0.045327308697380934  0.6044637074663655  0.45891052354831174  1.0000
  H   H46       1.0  0.35422119387728673  0.41345824420053406  0.9585192331476975  1.0000
  H   H47       1.0  0.9546692285949021  0.39553954014640175  0.5410848629181189  1.0000
  H   H48       1.0  0.645780653962234  0.5865439494865755  0.0414759152033782  1.0000
  H   H49       1.0  0.35373337483038375  0.6779357912514926  0.3300389944059248  1.0000
  H   H50       1.0  0.1525467614995649  0.9765513880042107  0.8304588486078259  1.0000
  H   H51       1.0  0.6462637016336997  0.32206430856080454  0.669960728962117  1.0000
  H   H52       1.0  0.8474642666740593  0.023451884249972504  0.1695387971754131  1.0000
  H   H53       1.0  0.40903440293008936  0.747228593020182  0.5087713959879991  1.0000
  H   H54       1.0  0.26185337321953034  0.09995152221745941  0.009127394981312896  1.0000
  H   H55       1.0  0.5909621862634608  0.2527704420948779  0.49122701596557045  1.0000
  H   H56       1.0  0.73815718966204  0.9000506990647209  0.9908714829734465  1.0000
  H   H57       1.0  0.3174012801595368  0.8181274614527824  0.4080685729689648  1.0000
  H   H58       1.0  0.09025700651039159  0.09079629482088342  0.908454434838383  1.0000
  H   H59       1.0  0.6825986469752436  0.18187685853055063  0.5919290854924952  1.0000
  H   H60       1.0  0.9097521388256099  0.909200637558428  0.09154414127153392  1.0000
  H   H61       1.0  0.5932035958710385  0.3434110837725867  0.2502544281699243  1.0000
  H   H62       1.0  0.40679549075708377  0.6565763333363038  0.7497456855645979  1.0000
  C   C1        1.0  0.7701396981553827  0.410563440928108  0.1997143962530572  1.0000
  C   C2        1.0  0.2888159609104336  0.4292393592966663  0.69902030708203  1.0000
  C   C3        1.0  0.2298564257461139  0.5894345432149495  0.8002852478720328  1.0000
  C   C4        1.0  0.7111821649017005  0.57075230435278  0.30098324386781183  1.0000
  C   C5        1.0  0.7921851065409626  0.28920429562988664  0.12679026246753017  1.0000
  C   C6        1.0  0.3375769996166937  0.33443545986465034  0.6263824378562859  1.0000
  C   C7        1.0  0.2078138756664672  0.7107957909976578  0.8732067098395575  1.0000
  C   C8        1.0  0.6624216052125719  0.6655636306918282  0.3736259409662921  1.0000
  C   C9        1.0  0.038561048212017175  0.36544374740779534  0.29846146926800543  1.0000
  C   C10       1.0  0.4330949327489577  0.26004607702655863  0.7983460317014349  1.0000
  C   C11       1.0  0.9614359693337209  0.6345584380655039  0.7015329259774745  1.0000
  C   C12       1.0  0.5669084361295875  0.7399551028296474  0.20165692424218662  1.0000
  C   C13       1.0  0.1887913400614352  0.48238252939619747  0.36033067352558124  1.0000
  C   C14       1.0  0.3782164434024793  0.1717973931524099  0.8604579045810183  1.0000
  C   C15       1.0  0.8112076345107582  0.5176196749178884  0.6396669056929268  1.0000
  C   C16       1.0  0.6217907729753805  0.8282080277329273  0.13954669809753992  1.0000
  C   C17       1.0  0.6752779544019774  0.42535241583640027  0.25030516693417587  1.0000
  C   C18       1.0  0.32472106474531864  0.5746455714049076  0.7496945899094739  1.0000
  C   C19       1.0  0.9630057883888268  0.24226553168685436  0.058384004227853795  1.0000
  C   C20       1.0  0.31635013443820265  0.0954298086941847  0.558400347925442  1.0000
  C   C21       1.0  0.03698979664994086  0.7577334779950392  0.9416098482222068  1.0000
  C   C22       1.0  0.6836493866319416  0.9045692523945233  0.44160241605667494  1.0000
  C   C23       1.0  0.15014369526526394  0.677494591205658  0.4801967613431373  1.0000
  C   C24       1.0  0.3024698594199294  0.3300328032141806  0.9799573326352089  1.0000
  C   C25       1.0  0.8498509292666017  0.32250654275516416  0.5197990735488248  1.0000
  C   C26       1.0  0.6975315374707662  0.6699704709127091  0.020042198384807416  1.0000
  C   C27       1.0  0.32507345120125564  0.7214888075153213  0.4074284095515068  1.0000
  C   C28       1.0  0.18625637543622284  0.08254211196304342  0.9077429624195048  1.0000
  C   C29       1.0  0.6749245634821791  0.2785112765544397  0.5925682425620593  1.0000
  C   C30       1.0  0.8137455163602425  0.9174601091745344  0.09225727310355583  1.0000
  N   N1        1.0  0.8547981165838507  0.5387039490043861  0.21957857240248305  1.0000
  N   N2        1.0  0.18046206850171134  0.364516827214544  0.7188605937584923  1.0000
  N   N3        1.0  0.14519515571970487  0.461296181752516  0.7804275009494503  1.0000
  N   N4        1.0  0.8195360411126985  0.6354854385928661  0.2811485353344595  1.0000
  N   N5        1.0  0.9456082730893344  0.3411252362421422  0.15962726822825607  1.0000
  N   N6        1.0  0.31861783336113103  0.21404697458228844  0.6595016557169373  1.0000
  N   N7        1.0  0.05439020657708233  0.6588780210612555  0.8403696064872078  1.0000
  N   N8        1.0  0.6813836444263828  0.7859542276088335  0.34050574701163333  1.0000
  N   N9        1.0  0.18395221671535472  0.6175327502540214  0.3727806967730984  1.0000
  N   N10       1.0  0.2553626567439906  0.18888499318796192  0.8727933351492965  1.0000
  N   N11       1.0  0.8160457903328435  0.38246945150228845  0.6272165622518955  1.0000
  N   N12       1.0  0.7446440653462646  0.8111172361634259  0.12720765347936677  1.0000
  Cl  Cl1       1.0  0.06124652148433543  0.8113715762073284  0.24996768639403644  1.0000
  Cl  Cl2       1.0  0.9387481399874034  0.18862745836725037  0.7500309330344875  1.0000
  Cl  Cl3       1.0  0.1681711116609393  0.5556340680883097  0.07904371799982363  1.0000
  Cl  Cl4       1.0  0.0235318428426155  0.9110144608756912  0.5792541820145801  1.0000
  Cl  Cl5       1.0  0.831825927245113  0.4443723756334778  0.9209561303784926  1.0000
  Cl  Cl6       1.0  0.9764662008363771  0.08898776375600902  0.4207473163203943  1.0000
