data_image0
_chemical_formula_structural       Zn8H32C96N8O74
_chemical_formula_sum              "Zn8 H32 C96 N8 O74"
_cell_length_a       23.694484684320695
_cell_length_b       23.696144974676663
_cell_length_c       23.69398069940438
_cell_angle_alpha    65.89858428346487
_cell_angle_beta     72.7992763631789
_cell_angle_gamma    107.21098874581708

_space_group_name_H-M_alt    "P 1"
_space_group_IT_number       1

loop_
  _space_group_symop_operation_xyz
  'x, y, z'

loop_
  _atom_site_type_symbol
  _atom_site_label
  _atom_site_symmetry_multiplicity
  _atom_site_fract_x
  _atom_site_fract_y
  _atom_site_fract_z
  _atom_site_occupancy
  Zn  Zn1       1.0  0.05580913297700347  0.9554657568893814  0.48470741625602215  1.0000
  Zn  Zn2       1.0  0.05580648671137569  0.1003545856120098  0.45948407494594806  1.0000
  Zn  Zn3       1.0  0.9441778816028118  0.9847046182035866  0.4554577926219779  1.0000
  Zn  Zn4       1.0  0.9441923414495005  0.959474291616274  0.6003643749756622  1.0000
  Zn  Zn5       1.0  0.9401612968599837  0.5405148534600741  0.015291549636941692  1.0000
  Zn  Zn6       1.0  0.0598392004688648  0.5152924424690896  0.04051878331856786  1.0000
  Zn  Zn7       1.0  0.9401562950853801  0.399641319556359  0.044550522175029444  1.0000
  Zn  Zn8       1.0  0.05982478910540581  0.5445366496025982  0.8996440363705889  1.0000
  H   H1        1.0  0.9216968865893096  0.6495807130165121  0.11201866253600183  1.0000
  H   H2        1.0  0.07830253941505555  0.6120041548748032  0.14963952903573138  1.0000
  H   H3        1.0  0.9249933870981122  0.8895239530019124  0.34359525794118906  1.0000
  H   H4        1.0  0.07497730968592013  0.8435945219781402  0.38955673285217096  1.0000
  H   H5        1.0  0.07832159867420073  0.4662575921359533  0.7721195370507274  1.0000
  H   H6        1.0  0.9217045147799252  0.272064089344191  0.966306970407999  1.0000
  H   H7        1.0  0.0749832653462406  0.2313917353497104  0.5354708100674871  1.0000
  H   H8        1.0  0.9249935946293988  0.0354767352632664  0.7313845237919169  1.0000
  H   H9        1.0  0.7331321745738038  0.46452383332863423  0.11047009818176423  1.0000
  H   H10       1.0  0.7331318830187286  0.2686124441912128  0.15639262600869586  1.0000
  H   H11       1.0  0.26162153629518764  0.22792368016553158  0.350355544868343  1.0000
  H   H12       1.0  0.26161714419304627  0.03373462154451093  0.38792963229214206  1.0000
  H   H13       1.0  0.2668711217349369  0.6104558023810753  0.9645322252467781  1.0000
  H   H14       1.0  0.2668534886893425  0.6563907862369618  0.7686072115185852  1.0000
  H   H15       1.0  0.7383831274483939  0.8503527382680716  0.7279322866839878  1.0000
  H   H16       1.0  0.7383616352058908  0.8879391180019242  0.5337339863522319  1.0000
  H   H17       1.0  0.1205591796067649  0.7780254570445847  0.1739906273559841  1.0000
  H   H18       1.0  0.8794124730726622  0.673939264579751  0.27804033309974596  1.0000
  H   H19       1.0  0.011742200015397861  0.6840502577370131  0.35893979043434865  1.0000
  H   H20       1.0  0.9882320141030191  0.858905392055405  0.18405953629731206  1.0000
  H   H21       1.0  0.8794206143143201  0.20545467713168372  0.8425452889182169  1.0000
  H   H22       1.0  0.12057149528278893  0.34249064360499654  0.7055014565184198  1.0000
  H   H23       1.0  0.9882302301440403  0.12931393735714605  0.8277030150497213  1.0000
  H   H24       1.0  0.011752517376308367  0.32769659216315716  0.6293299325855133  1.0000
  H   H25       1.0  0.542967293038508  0.1722984964834068  0.3159310654326505  1.0000
  H   H26       1.0  0.5429759498184765  0.3706780559174518  0.14106902511025515  1.0000
  H   H27       1.0  0.4520010239919685  0.15750322390170618  0.2219077008307481  1.0000
  H   H28       1.0  0.4519989855534234  0.2945345460728959  0.3260200980059481  1.0000
  H   H29       1.0  0.45701439886354883  0.8159278302591558  0.6722960334870226  1.0000
  H   H30       1.0  0.4570243936822676  0.641067337953636  0.8706774685741084  1.0000
  H   H31       1.0  0.5479871465935775  0.7219304370454508  0.6574824676970439  1.0000
  H   H32       1.0  0.5480100161329559  0.8260098031401809  0.7945512082803606  1.0000
  C   C1        1.0  0.17863605165639027  0.08933682767244729  0.4106510822473482  1.0000
  C   C2        1.0  0.9999808208204897  0.13621485710145712  0.3637787060673858  1.0000
  C   C3        1.0  0.9999947077887015  0.9079807949010714  0.40797371215841616  1.0000
  C   C4        1.0  0.8213585568296152  0.9106457615473784  0.5893389097552988  1.0000
  C   C5        1.0  2.1148728421787157e-05  0.8637886900073822  0.6362213426445963  1.0000
  C   C6        1.0  0.9999998160651131  0.09202500556165917  0.5920220759816888  1.0000
  C   C7        1.0  5.185909145597579e-06  0.5893083906227331  0.08932987388339349  1.0000
  C   C8        1.0  1.5685185487582802e-06  0.36378096087756256  0.13623196745687244  1.0000
  C   C9        1.0  0.8159484355490035  0.40797377460480516  0.09202638116956055  1.0000
  C   C10       1.0  5.452344850350839e-07  0.4106558668520747  0.9107026624294436  1.0000
  C   C11       1.0  0.9999900452791618  0.6362174238215274  0.8637766284768137  1.0000
  C   C12       1.0  0.18404599829030846  0.5920232902246028  0.9079734610401432  1.0000
  C   C13       1.0  1.2075571404912104e-05  0.8052815165924583  0.694721726898152  1.0000
  C   C14       1.0  0.9999942268878143  0.6947207636806992  0.8052754488310827  1.0000
  C   C15       1.0  0.956591917452215  0.7761469045095594  0.7655582558376823  1.0000
  C   C16       1.0  0.0417044111286912  0.7221475067493939  0.734437486765643  1.0000
  C   C17       1.0  0.958291757751425  0.7238544432911452  0.8195549563491514  1.0000
  C   C18       1.0  0.04342002378446347  0.7778533199594547  0.6804430008240915  1.0000
  C   C19       1.0  0.9999967016052267  0.19471891982390585  0.30526867373622935  1.0000
  C   C20       1.0  8.84381783095939e-06  0.30527865729516884  0.19472044234433386  1.0000
  C   C21       1.0  0.9565854238164776  0.18044750066923862  0.27783246992513716  1.0000
  C   C22       1.0  0.04171264420683938  0.3195487018028089  0.22386418138846417  1.0000
  C   C23       1.0  0.9582985399936844  0.23444681951212212  0.22212901562463844  1.0000
  C   C24       1.0  0.04341642141790202  0.2655498901821645  0.2761490883129626  1.0000
  C   C25       1.0  0.9999975377663121  0.6268418079524453  0.12688586003033475  1.0000
  C   C26       1.0  0.9555619978904488  0.6543537370678576  0.1344868210444688  1.0000
  C   C27       1.0  0.9531002570035695  0.6869465899211632  0.17192480450594871  1.0000
  C   C28       1.0  0.9999953490617698  0.6975919725684107  0.1976181111425961  1.0000
  C   C29       1.0  0.04689218108625667  0.671905535555183  0.18698822064232715  1.0000
  C   C30       1.0  0.04443521750792449  0.6344638211435053  0.15439655324419738  1.0000
  C   C31       1.0  0.999987389267922  0.7332539368074366  0.23328945398268522  1.0000
  C   C32       1.0  0.9999866213460533  0.764074663361988  0.26409752057983166  1.0000
  C   C33       1.0  0.9999836184847479  0.7997337468502507  0.2997622085350361  1.0000
  C   C34       1.0  0.9596149630562534  0.8337347499301654  0.3020907283095941  1.0000
  C   C35       1.0  0.9582332240726572  0.8662817913529466  0.33956866060701435  1.0000
  C   C36       1.0  0.9999858332611208  0.8704569523103982  0.37046937010484315  1.0000
  C   C37       1.0  0.041731702436962136  0.8395553149312176  0.3663159456897562  1.0000
  C   C38       1.0  0.040349299139720164  0.8020712049801945  0.3337750324074379  1.0000
  C   C39       1.0  1.3126966486240106e-05  0.373104308893815  0.8731637942437234  1.0000
  C   C40       1.0  0.04444841544956545  0.40993019125298247  0.8012140012722431  1.0000
  C   C41       1.0  0.04690755159148091  0.3749516574303299  0.766165606911763  1.0000
  C   C42       1.0  5.668452587315126e-06  0.30237518140289416  0.8024082452383683  1.0000
  C   C43       1.0  0.953106119292208  0.2661160349681919  0.8749943029630177  1.0000
  C   C44       1.0  0.9555712291871714  0.301168050165778  0.909981135506506  1.0000
  C   C45       1.0  0.9999963553571618  0.2667087194219845  0.766742935753101  1.0000
  C   C46       1.0  0.9999933142049288  0.2359069273649582  0.7359182681278398  1.0000
  C   C47       1.0  0.9999870638259266  0.20024913438964378  0.7002503409487917  1.0000
  C   C48       1.0  0.04035467135127386  0.23828205805036615  0.6258783196090508  1.0000
  C   C49       1.0  0.04173662678041981  0.20218346752869112  0.5919545487246367  1.0000
  C   C50       1.0  0.9999904689372627  0.12953950935961706  0.6295339306577648  1.0000
  C   C51       1.0  0.958235382743652  0.09195670272477925  0.7021811397726553  1.0000
  C   C52       1.0  0.9596146526705738  0.1258816749399258  0.7382802659846561  1.0000
  C   C53       1.0  0.7409226421328796  0.3704619056775583  0.12954115532839697  1.0000
  C   C54       1.0  0.7058579969723553  0.4080418628058666  0.13370937083967513  1.0000
  C   C55       1.0  0.6358339958703496  0.3741175763154699  0.1662500605113026  1.0000
  C   C56       1.0  0.5994932655391878  0.299747419293773  0.20025054745029552  1.0000
  C   C57       1.0  0.6358339498035832  0.2617195521463245  0.1979118377257764  1.0000
  C   C58       1.0  0.705858908730896  0.2978187728761625  0.16043226628924867  1.0000
  C   C59       1.0  0.5281673036145095  0.26408316945084925  0.23590990014666605  1.0000
  C   C60       1.0  0.46654162786675357  0.23328504312927115  0.26670467331480563  1.0000
  C   C61       1.0  0.39520786656804313  0.19762035722077803  0.3023640005311138  1.0000
  C   C62       1.0  0.35888328510051787  0.2338777737739903  0.3130044388078091  1.0000
  C   C63       1.0  0.2888460174312186  0.19882276214220704  0.3455920590675561  1.0000
  C   C64       1.0  0.2537250819208481  0.12688602247078506  0.3730863629827256  1.0000
  C   C65       1.0  0.28884670127624906  0.09006282547052538  0.36547540488036406  1.0000
  C   C66       1.0  0.35887551417878427  0.12504481218082464  0.3280360219344019  1.0000
  C   C67       1.0  0.2590724081022983  0.6295315255905293  0.8704641836336153  1.0000
  C   C68       1.0  0.2941425908492049  0.6336951854563395  0.9080474201741638  1.0000
  C   C69       1.0  0.36416613528011516  0.6662380681645673  0.874122312232807  1.0000
  C   C70       1.0  0.4004998236087188  0.7002435584187551  0.7997504551088712  1.0000
  C   C71       1.0  0.3641560849278844  0.6979049679759014  0.761716900294836  1.0000
  C   C72       1.0  0.2941313083498187  0.6604254808439123  0.7978156258682959  1.0000
  C   C73       1.0  0.47182470580581554  0.7359062212414145  0.7640886865952795  1.0000
  C   C74       1.0  0.5334512855706066  0.7667100046867504  0.7332913694084056  1.0000
  C   C75       1.0  0.6047847380983667  0.8023712800639513  0.6976250641178298  1.0000
  C   C76       1.0  0.6411173706169039  0.8130065256995707  0.7338855092247557  1.0000
  C   C77       1.0  0.7111537122722705  0.84559197903512  0.6988290287814398  1.0000
  C   C78       1.0  0.7462662209398591  0.8730881177631746  0.6268885984258505  1.0000
  C   C79       1.0  0.7111364847188995  0.8654846149949905  0.5900642104172961  1.0000
  C   C80       1.0  0.6411080916179303  0.8280495986311536  0.6250437257322545  1.0000
  C   C81       1.0  0.10001917867211323  0.681037813398042  0.21010056690023762  1.0000
  C   C82       1.0  0.8999736131731239  0.7100536687648141  0.18103789663493336  1.0000
  C   C83       1.0  0.08452722842256574  0.7675135588656588  0.3360929378102639  1.0000
  C   C84       1.0  0.9154443692628573  0.8360509491034661  0.2675197583346078  1.0000
  C   C85       1.0  0.8999760805192096  0.18988801225171392  0.9189934716728065  1.0000
  C   C86       1.0  0.10004135734869388  0.4189460689391211  0.689934926300076  1.0000
  C   C87       1.0  0.9154422705657338  0.07938968786854153  0.8170150246031941  1.0000
  C   C88       1.0  0.08452892738341689  0.31701528129180184  0.5793905806749181  1.0000
  C   C89       1.0  0.6035895838572856  0.1829885957204098  0.2324670498606452  1.0000
  C   C90       1.0  0.603591621648718  0.4206092918515696  0.16392922117542244  1.0000
  C   C91       1.0  0.3911125298248734  0.08105183095727844  0.31890144265847215  1.0000
  C   C92       1.0  0.3911112850266535  0.3101018865808599  0.2899122888774954  1.0000
  C   C93       1.0  0.3963964588996944  0.7324606746333586  0.682981527457102  1.0000
  C   C94       1.0  0.3964188244690873  0.6639190595900716  0.9206135808244014  1.0000
  C   C95       1.0  0.6088645821036848  0.8189246098568076  0.581045008510522  1.0000
  C   C96       1.0  0.6088980905497647  0.7899073005230476  0.8101163730298783  1.0000
  N   N1        1.0  0.906439709558889  0.7998188849018961  0.7851216151315014  1.0000
  N   N2        1.0  0.0849401961653412  0.6915585436222073  0.7148733050165746  1.0000
  N   N3        1.0  0.9150456498552375  0.7001762723691203  0.8933820806974991  1.0000
  N   N4        1.0  0.09357878666608609  0.8084452226530416  0.606617865809213  1.0000
  N   N5        1.0  0.9064206116127379  0.10662724168288663  0.30841092148659766  1.0000
  N   N6        1.0  0.08494708027605906  0.3933674355288941  0.2002126815027553  1.0000
  N   N7        1.0  0.9150612510514404  0.21489141331490194  0.19153021671578327  1.0000
  N   N8        1.0  0.09356795900333026  0.28510742686084706  0.29983353268037405  1.0000
  O   O1        1.0  0.9999907254030302  0.9999993632231747  0.5000077791453563  1.0000
  O   O2        1.0  0.14991098066613517  0.022248743194367572  0.44399442215610224  1.0000
  O   O3        1.0  0.019636041816163196  0.1512257058411919  0.40249893127651865  1.0000
  O   O4        1.0  0.9533360164545355  0.924753785209823  0.42010692706898606  1.0000
  O   O5        1.0  0.14990386099017167  0.12769355934496926  0.40606028950035994  1.0000
  O   O6        1.0  0.04665846315320014  0.9201270974022007  0.42474247963032513  1.0000
  O   O7        1.0  0.9803154748707072  0.07784278249628326  0.3684201996324107  1.0000
  O   O8        1.0  0.8500778912278194  0.9439898469430049  0.5222463706222841  1.0000
  O   O9        1.0  0.9803669120453476  0.902497312450933  0.6512375731861513  1.0000
  O   O10       1.0  0.8500931366243094  0.9060463855878639  0.627695214894672  1.0000
  O   O11       1.0  0.01967521997667599  0.868429403614925  0.5778461837793362  1.0000
  O   O12       1.0  0.04666786572253299  0.1265424377268687  0.5285945314080395  1.0000
  O   O13       1.0  0.9533428294538807  0.02859777620120221  0.6265375002038597  1.0000
  O   O14       1.0  0.9999927295500585  0.499994393858742  0.9999991364628192  1.0000
  O   O15       1.0  0.9662527633058178  0.5939161592810578  0.05599014320860361  1.0000
  O   O16       1.0  0.0537389498332316  0.42215395386708104  0.09751793870945855  1.0000
  O   O17       1.0  0.8448583789624349  0.37345940751892925  0.07987874203403336  1.0000
  O   O18       1.0  0.033768891940425705  0.5559799774878584  0.09392979684758983  1.0000
  O   O19       1.0  0.8448610458277201  0.47140248055256234  0.07526024744876741  1.0000
  O   O20       1.0  0.9462753478702837  0.3487717459073067  0.13159222731160022  1.0000
  O   O21       1.0  0.9662444104156477  0.37229936785876555  0.9777921381688731  1.0000
  O   O22       1.0  0.053715875008798195  0.6315721712764669  0.848761250339401  1.0000
  O   O23       1.0  0.03373896636358597  0.47774392690704554  0.8723376792688955  1.0000
  O   O24       1.0  0.9462619792226974  0.5975104567668126  0.9221452148658217  1.0000
  O   O25       1.0  0.15513575198608723  0.5752556178139301  0.9714086032476816  1.0000
  O   O26       1.0  0.15513010001368588  0.5798798326445079  0.8734569401408978  1.0000
  O   O27       1.0  0.8601165306176949  0.7838064476638847  0.7715603828577717  1.0000
  O   O28       1.0  0.9155066078934978  0.8316501267574735  0.8144060399344684  1.0000
  O   O29       1.0  0.0553697556646426  0.6316881372765977  0.7284121046713  1.0000
  O   O30       1.0  0.14605490639706903  0.7298975851158717  0.6856100366332003  1.0000
  O   O31       1.0  0.9446068926694765  0.7161909965380318  0.9237009165780705  1.0000
  O   O32       1.0  0.8539335561937096  0.6683381201254053  0.9161373321165839  1.0000
  O   O33       1.0  0.13990717575145353  0.8683151590867199  0.5763189698896342  1.0000
  O   O34       1.0  0.08450693518662435  0.7701033758095974  0.5838435291736489  1.0000
  O   O35       1.0  0.8600911428998542  0.07631869038070967  0.36828272951623836  1.0000
  O   O36       1.0  0.9154920301883537  0.08386464975065892  0.2700595537008611  1.0000
  O   O37       1.0  0.05537935167076567  0.4236708328350786  0.21623399694005507  1.0000
  O   O38       1.0  0.1460636644352106  0.4161351102608676  0.16838219752403924  1.0000
  O   O39       1.0  0.9446286604110838  0.22845101853962274  0.1316503244238235  1.0000
  O   O40       1.0  0.8539460365595205  0.18561048272902544  0.2298750288377037  1.0000
  O   O41       1.0  0.13988970523205782  0.27155280058772047  0.28382319797572825  1.0000
  O   O42       1.0  0.0844989599184558  0.3143807273194739  0.33167383987867544  1.0000
  O   O43       1.0  0.13687032870365112  0.7461396616813047  0.19550411939841442  1.0000
  O   O44       1.0  0.11173655131611315  0.6333588040802027  0.23775070798259898  1.0000
  O   O45       1.0  0.8631212092750786  0.6954679141194263  0.2461362200390694  1.0000
  O   O46       1.0  0.8882710114233204  0.7377019072503683  0.1333454478476314  1.0000
  O   O47       1.0  0.057210504069523445  0.6998820851309305  0.353358766526121  1.0000
  O   O48       1.0  0.14116473732567406  0.797502211625634  0.32605628855907304  1.0000
  O   O49       1.0  0.9427597630794297  0.8533088999791475  0.19988882579401968  1.0000
  O   O50       1.0  0.8588019064496349  0.8260057888722868  0.29750424264550906  1.0000
  O   O51       1.0  0.8631208203063283  0.1676309434654614  0.8907393645988009  1.0000
  O   O52       1.0  0.8882612873284615  0.1505297677387319  0.9783880276768502  1.0000
  O   O53       1.0  0.1368731952872082  0.390683474228844  0.6676782427124411  1.0000
  O   O54       1.0  0.1117599753845937  0.478341076733109  0.6505801970695658  1.0000
  O   O55       1.0  0.9427601774609895  0.08943590676730655  0.8573369989963029  1.0000
  O   O56       1.0  0.858799165657487  0.032797385698060635  0.8436612608414865  1.0000
  O   O57       1.0  0.05722014896780079  0.357332396418677  0.5894472917659358  1.0000
  O   O58       1.0  0.14116590501127746  0.34367045436894017  0.5327850247181943  1.0000
  O   O59       1.0  0.5532128514510432  0.14266709057095273  0.30009508010864056  1.0000
  O   O60       1.0  0.6235391268834007  0.156340645208431  0.20247961479844173  1.0000
  O   O61       1.0  0.5532202926681437  0.41055648880572443  0.1466605982321597  1.0000
  O   O62       1.0  0.6235402809268394  0.4672014192963445  0.17397218546665272  1.0000
  O   O63       1.0  0.4416315292102481  0.1093131838563721  0.25380542706492554  1.0000
  O   O64       1.0  0.3710721993269742  0.021657417806721934  0.36658118291071434  1.0000
  O   O65       1.0  0.44162440201794334  0.33235693303016234  0.3045077130875031  1.0000
  O   O66       1.0  0.3710703815242198  0.34946142200597313  0.26227536661255624  1.0000
  O   O67       1.0  0.4467653924898159  0.8000896288404036  0.6426625703768495  1.0000
  O   O68       1.0  0.3764458159346872  0.7024666991003271  0.6563317634820366  1.0000
  O   O69       1.0  0.44678424701092473  0.6466518491792784  0.9105615968804984  1.0000
  O   O70       1.0  0.37647901921111776  0.6739597261770311  0.9672150767534051  1.0000
  O   O71       1.0  0.5583521389986855  0.7538298224790267  0.6092923880602471  1.0000
  O   O72       1.0  0.6288979277911645  0.866610922166522  0.5216504619277205  1.0000
  O   O73       1.0  0.5583886636134137  0.8044985205786758  0.8323752921126657  1.0000
  O   O74       1.0  0.6289420590403694  0.7622719040951936  0.8494716904711271  1.0000
