data_image0
_chemical_formula_structural       ZnH18PdC18N6O2
_chemical_formula_sum              "Zn1 H18 Pd1 C18 N6 O2"
_cell_length_a       8.155855408723754
_cell_length_b       8.193117090153851
_cell_length_c       9.000231794103227
_cell_angle_alpha    115.78286721752683
_cell_angle_beta     105.17581190822737
_cell_angle_gamma    99.61168035863503

_space_group_name_H-M_alt    "P 1"
_space_group_IT_number       1

loop_
  _space_group_symop_operation_xyz
  'x, y, z'

loop_
  _atom_site_type_symbol
  _atom_site_label
  _atom_site_symmetry_multiplicity
  _atom_site_fract_x
  _atom_site_fract_y
  _atom_site_fract_z
  _atom_site_occupancy
  Zn  Zn1       1.0  0.5000002248113233  0.9999995921572947  0.4999991218080737  1.0000
  H   H1        1.0  0.22036537695052522  0.6737567648621621  0.3995188663536311  1.0000
  H   H2        1.0  0.7796353131434374  0.3262443215533111  0.6004819143479379  1.0000
  H   H3        1.0  0.5086251091582811  0.38305433648078235  0.5446944297587208  1.0000
  H   H4        1.0  0.4913751502439325  0.6169453200625626  0.45530456962755755  1.0000
  H   H5        1.0  0.41678661879052487  0.6656925888659303  0.7026750786478856  1.0000
  H   H6        1.0  0.5832123697637285  0.3343070662477103  0.29732361772724397  1.0000
  H   H7        1.0  0.25787038823166614  0.6583304704461883  0.9082129492411184  1.0000
  H   H8        1.0  0.7421311383168004  0.34166918262786794  0.09178857249928303  1.0000
  H   H9        1.0  0.20077544897240782  0.3705519167967354  0.9415529708089135  1.0000
  H   H10       1.0  0.7992265138203578  0.6294491734979248  0.05844700323229564  1.0000
  H   H11       1.0  0.4230944670048657  0.03542179628188789  0.8412839361016179  1.0000
  H   H12       1.0  0.5769045215493876  0.9645778588317526  0.15871476027351863  1.0000
  H   H13       1.0  0.22523428047305327  0.07244811387909783  0.8759769147600733  1.0000
  H   H14       1.0  0.7747659770783101  0.9275515402147576  0.12402319429769193  1.0000
  H   H15       1.0  0.12756892877280288  0.7555759656763074  0.6349567861459063  1.0000
  H   H16       1.0  0.8724300579306075  0.24442368698784386  0.3650430199007245  1.0000
  H   H17       1.0  0.0667674606703699  0.8891843979100217  0.5302041634098273  1.0000
  H   H18       1.0  0.9332319567247893  0.1108166846262648  0.46979742395210156  1.0000
  Pd  Pd1       1.0  4.325425991e-07  1.4323216249e-06  6.716438037e-07  1.0000
  C   C1        1.0  0.4415410495045862  0.3875298916233092  0.6355150159367041  1.0000
  C   C2        1.0  0.5584600463521312  0.6124683315786186  0.3644847244884063  1.0000
  C   C3        1.0  0.389632459209686  0.5443646240354881  0.7238720074067471  1.0000
  C   C4        1.0  0.6103656854866701  0.4556364546216046  0.2761303866155346  1.0000
  C   C5        1.0  0.3019791447644452  0.5396726745299676  0.8363611619962866  1.0000
  C   C6        1.0  0.6980223817840213  0.4603269785440958  0.16364035974412164  1.0000
  C   C7        1.0  0.2700017158297144  0.3788842153794505  0.8554309264667663  1.0000
  C   C8        1.0  0.729998134108051  0.6211182994784608  0.14457133253895907  1.0000
  C   C9        1.0  0.3288784030455573  0.22747710545643682  0.7649063170046373  1.0000
  C   C10       1.0  0.671120583657853  0.7725225472077144  0.23509348904199368  1.0000
  C   C11       1.0  0.2948865426117068  0.05232382987134802  0.7829085426376207  1.0000
  C   C12       1.0  0.7051124440917036  0.9476758227928032  0.21709126340901017  1.0000
  C   C13       1.0  0.1817877445609923  0.8675264130348239  0.6077443767084886  1.0000
  C   C14       1.0  0.8182104038370638  0.13247467052125472  0.3922557979707974  1.0000
  C   C15       1.0  0.1969069602218383  0.9828792447463146  0.1695840500258898  1.0000
  C   C16       1.0  0.8030793328087994  0.017120413216765905  0.8304038485373862  1.0000
  C   C17       1.0  0.0763840421815658  0.280899790848828  0.15853252038680668  1.0000
  C   C18       1.0  0.9236149482235377  0.7190998667143021  0.8414650663168286  1.0000
  N   N1        1.0  0.41451480836450827  0.23333989507106176  0.656104184220929  1.0000
  N   N2        1.0  0.5854841783388951  0.7666597575930966  0.34389562182570205  1.0000
  N   N3        1.0  0.31390177435541494  0.9722797320307422  0.2690578768739371  1.0000
  N   N4        1.0  0.686108206331902  0.027718486482143603  0.7309506426581149  1.0000
  N   N5        1.0  0.11982526152926452  0.44738932697396194  0.2480365592486606  1.0000
  N   N6        1.0  0.88017329448239  0.5526088958180538  0.7519614654826725  1.0000
  O   O1        1.0  0.29150136838357105  0.8052615201413718  0.5072613931745806  1.0000
  O   O2        1.0  0.7084984834050374  0.1947409971660292  0.49273975615965054  1.0000
