data_image0
_chemical_formula_structural       Zn4H36Ir4C68N12O16
_chemical_formula_sum              "Zn4 H36 Ir4 C68 N12 O16"
_cell_length_a       13.976451592958522
_cell_length_b       14.96273687904721
_cell_length_c       15.218086251146826
_cell_angle_alpha    85.65367816666723
_cell_angle_beta     85.40362404508609
_cell_angle_gamma    86.85371488821545

_space_group_name_H-M_alt    "P 1"
_space_group_IT_number       1

loop_
  _space_group_symop_operation_xyz
  'x, y, z'

loop_
  _atom_site_type_symbol
  _atom_site_label
  _atom_site_symmetry_multiplicity
  _atom_site_fract_x
  _atom_site_fract_y
  _atom_site_fract_z
  _atom_site_occupancy
  Zn  Zn1       1.0  0.6936663387355749  0.6135425979802278  0.3506222481243597  1.0000
  Zn  Zn2       1.0  0.3063362740353952  0.3864569822002295  0.6493787708336642  1.0000
  Zn  Zn3       1.0  0.8989472624739957  0.6026730379899448  0.3355416154274523  1.0000
  Zn  Zn4       1.0  0.10105694271238261  0.3973238551513561  0.6644568679769876  1.0000
  H   H1        1.0  0.20809438166597263  0.6467786214158195  0.4792201346755007  1.0000
  H   H2        1.0  0.7919060797611763  0.3532209453094667  0.5207797276189297  1.0000
  H   H3        1.0  0.03222932116970868  0.634608801560617  0.4705027401141706  1.0000
  H   H4        1.0  0.967772731897071  0.36538808033687786  0.5294952436280129  1.0000
  H   H5        1.0  0.06798872955759089  0.5754954536286763  0.20828104900791541  1.0000
  H   H6        1.0  0.9320138077405673  0.42450546423665253  0.7917185572752601  1.0000
  H   H7        1.0  0.2461899882276199  0.5792583543162876  0.2062245867230459  1.0000
  H   H8        1.0  0.7538110352310524  0.42074390405782225  0.7937763397832713  1.0000
  H   H9        1.0  0.9555442158925728  0.58731265184651  0.048973490612972605  1.0000
  H   H10       1.0  0.04445999162113879  0.4126842346606452  0.9510230217875062  1.0000
  H   H11       1.0  0.6496032829105971  0.6377818293566689  0.07488669623763401  1.0000
  H   H12       1.0  0.3503992897966413  0.362218426300366  0.9251155873869266  1.0000
  H   H13       1.0  0.641234366370334  0.33435989220279067  0.3822303500115538  1.0000
  H   H14       1.0  0.3587632968993475  0.665638333639926  0.6177737627484206  1.0000
  H   H15       1.0  0.9456274015901088  0.3249007182904577  0.3064015494177426  1.0000
  H   H16       1.0  0.05437082836574798  0.6751001859328057  0.6935996855461823  1.0000
  H   H17       1.0  0.6417056588400597  0.8983784175142661  0.38088302356143094  1.0000
  H   H18       1.0  0.3582969916673163  0.10162049382375929  0.6191187017340098  1.0000
  H   H19       1.0  0.948411935550503  0.8892280523190266  0.3089675913966516  1.0000
  H   H20       1.0  0.0515927577461426  0.11077286573320319  0.6910292295421812  1.0000
  H   H21       1.0  0.5288221631033423  0.586167514545636  0.4848399507465544  1.0000
  H   H22       1.0  0.471181847970584  0.413832738287489  0.5151595999800165  1.0000
  H   H23       1.0  0.3510093558864824  0.5768531836168833  0.4870721115203622  1.0000
  H   H24       1.0  0.6489953712676809  0.423147076649805  0.512928700762501  1.0000
  H   H25       1.0  0.3768289461878566  0.6539688197869965  0.20598733504111522  1.0000
  H   H26       1.0  0.6231742702299172  0.3460327721429479  0.7940121694596058  1.0000
  H   H27       1.0  0.5545713140420645  0.6528593727364935  0.21586930534034818  1.0000
  H   H28       1.0  0.44543246673455883  0.34714490420814315  0.7841292923682843  1.0000
  H   H29       1.0  0.6359920284773608  0.6181694285161258  0.6439799624776725  1.0000
  H   H30       1.0  0.3640104341237773  0.3818328248226948  0.35601757412933205  1.0000
  H   H31       1.0  0.9451321613691731  0.6175046058316908  0.6140163130921934  1.0000
  H   H32       1.0  0.05486814368192942  0.38249765174298733  0.3859853228617922  1.0000
  H   H33       1.0  0.6452385808109966  0.6411930553594943  0.9101062800395567  1.0000
  H   H34       1.0  0.3547646325036737  0.35880854541597534  0.08989585246644792  1.0000
  H   H35       1.0  0.9517660664491032  0.5923479928854362  0.884023554694288  1.0000
  H   H36       1.0  0.04823655020074818  0.4076515762381304  0.11597417925712959  1.0000
  Ir  Ir1       1.0  0.6062593919489672  0.11007306941911574  0.3958908795182481  1.0000
  Ir  Ir2       1.0  0.3937417933161811  0.8899264826259383  0.604103674319262  1.0000
  Ir  Ir3       1.0  0.9833814014279555  0.0999390156336091  0.3028621658732434  1.0000
  Ir  Ir4       1.0  0.016622638848829807  0.9000605926822585  0.6971453182052869  1.0000
  C   C1        1.0  0.2430472451357417  0.6133486367018365  0.3431231631715691  1.0000
  C   C2        1.0  0.7569566126652417  0.38665429813516283  0.6568755332092736  1.0000
  C   C3        1.0  0.18102819981704954  0.6291649578536466  0.4179764575763231  1.0000
  C   C4        1.0  0.8189751714252224  0.37083394764966476  0.5820225872674811  1.0000
  C   C5        1.0  0.7872590676826547  0.6086001447411463  0.516979034217492  1.0000
  C   C6        1.0  0.21273939644939333  0.39139672431371497  0.483019868757765  1.0000
  C   C7        1.0  0.8053054614347985  0.6125498824643074  0.17014619295256486  1.0000
  C   C8        1.0  0.19469201470442238  0.38745168316782497  0.8298530741176436  1.0000
  C   C9        1.0  0.08279842812156349  0.6237599118363307  0.41366654109193496  1.0000
  C   C10       1.0  0.9172019947934017  0.3762403259427742  0.5863332718664012  1.0000
  C   C11       1.0  0.7944354634827278  0.4335644338907372  0.3489925528662924  1.0000
  C   C12       1.0  0.20556284272171874  0.5664351304362756  0.651009437771158  1.0000
  C   C13       1.0  0.10283885593063499  0.5909520818115939  0.26648109110834634  1.0000
  C   C14       1.0  0.8971622476555011  0.4090488256093678  0.73351730606489  1.0000
  C   C15       1.0  0.8029021022254169  0.6130982117175917  0.0716826901650265  1.0000
  C   C16       1.0  0.19709692471392506  0.38690134677470667  0.9283166200207944  1.0000
  C   C17       1.0  0.7982022668379899  0.6178201182921582  0.8872657442548118  1.0000
  C   C18       1.0  0.2018017442359366  0.38218013454096683  0.1127338064717662  1.0000
  C   C19       1.0  0.7940795081272042  0.33308274446554975  0.34788604875370777  1.0000
  C   C20       1.0  0.20592102799697187  0.6669154867862516  0.6521158832168938  1.0000
  C   C21       1.0  0.2018517712941517  0.5945419692898853  0.26585994448543454  1.0000
  C   C22       1.0  0.7981528426508006  0.40546029750410634  0.7341387487851563  1.0000
  C   C23       1.0  0.7951843805884877  0.8824982771091072  0.3446386508454893  1.0000
  C   C24       1.0  0.2048189898780066  0.11750063060558348  0.6553610509996446  1.0000
  C   C25       1.0  0.8880215635250722  0.5995260824392331  0.017894554632945908  1.0000
  C   C26       1.0  0.1119819594385945  0.40047014548296284  0.9821066585592391  1.0000
  C   C27       1.0  0.7153400407409548  0.6277313334592095  0.0325525524391566  1.0000
  C   C28       1.0  0.2846649198136149  0.3722648938504562  0.9674465848563615  1.0000
  C   C29       1.0  0.7056536706396415  0.29142685924465184  0.369769927640256  1.0000
  C   C30       1.0  0.29434470638295096  0.7085713806657666  0.6302374176799717  1.0000
  C   C31       1.0  0.7949660497748641  0.782690674977772  0.3415614929607358  1.0000
  C   C32       1.0  0.2050214942800395  0.21730883755302702  0.658439313368028  1.0000
  C   C33       1.0  0.8825132226314097  0.286356453321602  0.3259208329422307  1.0000
  C   C34       1.0  0.11748497113960346  0.7136451153213417  0.6740783816816248  1.0000
  C   C35       1.0  0.7950520958051256  0.15343890784861713  0.3516743032633158  1.0000
  C   C36       1.0  0.2049498417251172  0.846559987210327  0.6483235324705561  1.0000
  C   C37       1.0  0.7954587513037056  0.0607674097963766  0.3507275474949836  1.0000
  C   C38       1.0  0.20454530371283405  0.9392321565032803  0.6492674535584442  1.0000
  C   C39       1.0  0.7092361846120454  0.9312767800660922  0.36644691601970447  1.0000
  C   C40       1.0  0.2907658276152247  0.06872077951936012  0.6335529893903314  1.0000
  C   C41       1.0  0.8812269495145628  0.9263155998617661  0.3259630223665015  1.0000
  C   C42       1.0  0.11877498568834709  0.0736833018313163  0.6740367843713315  1.0000
  C   C43       1.0  0.347993708131682  0.6156445075360466  0.3459630722008882  1.0000
  C   C44       1.0  0.6520116211177366  0.3843577689028947  0.6540375396273178  1.0000
  C   C45       1.0  0.4913269038789209  0.5997626950961036  0.42475980337029273  1.0000
  C   C46       1.0  0.5086770293948675  0.4002389020560315  0.5752403056853979  1.0000
  C   C47       1.0  0.39221125044988264  0.5963247026134082  0.4253647951461588  1.0000
  C   C48       1.0  0.6077934004556979  0.4036768975495306  0.5746352614631789  1.0000
  C   C49       1.0  0.4070946376520367  0.6370159602482415  0.2692048651744727  1.0000
  C   C50       1.0  0.5929085001898288  0.36298697821209214  0.7307958546566837  1.0000
  C   C51       1.0  0.505715829379163  0.637751153218474  0.2738977582594729  1.0000
  C   C52       1.0  0.4942873100142506  0.36225178081910764  0.7261016475690454  1.0000
  C   C53       1.0  0.7899828164364919  0.6153648358881441  0.6140920652250017  1.0000
  C   C54       1.0  0.2100183241102656  0.38463540490176484  0.3859076952869813  1.0000
  C   C55       1.0  0.7062046722273649  0.6183579469093914  0.6709202364939344  1.0000
  C   C56       1.0  0.293797108151047  0.3816436412103243  0.3290800299008083  1.0000
  C   C57       1.0  0.8764883303196669  0.6188828385654547  0.653836500018123  1.0000
  C   C58       1.0  0.1235126946905538  0.38111941538589633  0.34616311248554865  1.0000
  C   C59       1.0  0.795157836280616  0.6208046031357098  0.7903477371494532  1.0000
  C   C60       1.0  0.2048432264660036  0.3791969819732088  0.20965258169164264  1.0000
  C   C61       1.0  0.7127305925704448  0.6297844427412684  0.9413713330441524  1.0000
  C   C62       1.0  0.28727130412028157  0.37021513000563294  0.058628424357578986  1.0000
  C   C63       1.0  0.8859726026441095  0.6021092604458146  0.9264743210619246  1.0000
  C   C64       1.0  0.11403012876650818  0.3978882977276896  0.07352421789912711  1.0000
  C   C65       1.0  0.7047799291138618  0.19750563041692712  0.37242123526636567  1.0000
  C   C66       1.0  0.2952205315375096  0.8024939385197386  0.6275792840293876  1.0000
  C   C67       1.0  0.884229063469725  0.19238111269341832  0.32743117380768894  1.0000
  C   C68       1.0  0.11577223034997526  0.8076164460926095  0.6725694410500225  1.0000
  N   N1        1.0  0.0443041379565514  0.6047106068103502  0.3393377501613841  1.0000
  N   N2        1.0  0.9556991947735368  0.39528896974677963  0.6606612453463256  1.0000
  N   N3        1.0  0.5472525414004537  0.6194435653986616  0.350387233271519  1.0000
  N   N4        1.0  0.4527519939685831  0.3805600479257194  0.6496126753295073  1.0000
  N   N5        1.0  0.881491752000734  0.016631284373716  0.3283224277695211  1.0000
  N   N6        1.0  0.11850954259474376  0.9833662722009324  0.6716775300868678  1.0000
  N   N7        1.0  0.7077340083822675  0.6202583691197604  0.7582431393991841  1.0000
  N   N8        1.0  0.29226633673256686  0.37974321297835445  0.24175723188826484  1.0000
  N   N9        1.0  0.7094093052575234  0.02141938159847  0.3699632515925657  1.0000
  N   N10       1.0  0.29059331216810597  0.9785801853137099  0.630033825357529  1.0000
  N   N11       1.0  0.8798464960734407  0.6224621558170043  0.7408650158503249  1.0000
  N   N12       1.0  0.12015237604140341  0.3775400891019345  0.2591347539923987  1.0000
  O   O1        1.0  0.7248150575313375  0.6223099617508366  0.21507915142079537  1.0000
  O   O2        1.0  0.2751751706960377  0.37769290040122167  0.784915942431482  1.0000
  O   O3        1.0  0.7049583681500948  0.6039988362678415  0.48772187072273004  1.0000
  O   O4        1.0  0.29503918113460503  0.39600139831355813  0.5122807800262947  1.0000
  O   O5        1.0  0.8678344794219797  0.607757055171348  0.4718070591924572  1.0000
  O   O6        1.0  0.1321628583196954  0.3922344372200044  0.5281916863630086  1.0000
  O   O7        1.0  0.8872896136413644  0.602699467341921  0.2016045561370845  1.0000
  O   O8        1.0  0.11270116575666832  0.3973061174182675  0.7984007999455613  1.0000
  O   O9        1.0  0.7130265776251291  0.4766542970894605  0.3548788899803199  1.0000
  O   O10       1.0  0.28696481874355584  0.5233405485983198  0.6451265984786545  1.0000
  O   O11       1.0  0.8758461336555996  0.7414877713159883  0.3267169730539479  1.0000
  O   O12       1.0  0.1241497641678322  0.2585037283220331  0.673285819402146  1.0000
  O   O13       1.0  0.875940117874265  0.46833933474734835  0.3458186988628498  1.0000
  O   O14       1.0  0.12405460560165685  0.5316601990459802  0.6541789549971142  1.0000
  O   O15       1.0  0.7133757758158907  0.7480996955296605  0.3545952077987025  1.0000
  O   O16       1.0  0.28661788109129566  0.2519058813713357  0.6454040254866485  1.0000
