data_image0
_chemical_formula_structural       K4H12C16S4N8O8
_chemical_formula_sum              "K4 H12 C16 S4 N8 O8"
_cell_length_a       3.8574000460034434
_cell_length_b       11.20842453933563
_cell_length_c       14.518747448465232
_cell_angle_alpha    97.5865905685986
_cell_angle_beta     90.00005995658151
_cell_angle_gamma    90.00013179007729

_space_group_name_H-M_alt    "P 1"
_space_group_IT_number       1

loop_
  _space_group_symop_operation_xyz
  'x, y, z'

loop_
  _atom_site_type_symbol
  _atom_site_label
  _atom_site_symmetry_multiplicity
  _atom_site_fract_x
  _atom_site_fract_y
  _atom_site_fract_z
  _atom_site_occupancy
  K   K1        1.0  0.05635710243401349  9.974348031999679e-07  0.25000112670082325  1.0000
  K   K2        1.0  0.9436422525791883  6.181441988995692e-07  0.7499998044848224  1.0000
  K   K3        1.0  0.6082616057496467  0.5000015404765463  0.24999720038726275  1.0000
  K   K4        1.0  0.3917410968423026  0.49999979297686536  0.749997651449007  1.0000
  H   H1        1.0  0.650132566817959  0.07786118885605478  0.051300364873860395  1.0000
  H   H2        1.0  0.650133579346132  0.9221401362370328  0.4487007575924266  1.0000
  H   H3        1.0  0.34986754336642895  0.9221401522976009  0.9487006866259192  1.0000
  H   H4        1.0  0.3498691232547983  0.07786030485333839  0.5513002028259278  1.0000
  H   H5        1.0  0.5043032261073462  0.245527762416053  0.809352267093054  1.0000
  H   H6        1.0  0.5043021048399652  0.7544719246744264  0.6906472101523204  1.0000
  H   H7        1.0  0.49569429165276085  0.7544726778164018  0.19064800447279848  1.0000
  H   H8        1.0  0.4956954129201492  0.24552851555802852  0.3093530614135318  1.0000
  H   H9        1.0  0.007509161106618499  0.4234429580222497  0.049018147922950596  1.0000
  H   H10       1.0  0.007510461259592198  0.5765578172731622  0.4509813614088855  1.0000
  H   H11       1.0  0.9924909490750692  0.5765583814199999  0.9509815258737289  1.0000
  H   H12       1.0  0.9924896489234454  0.4234435230247868  0.5490190012393369  1.0000
  C   C1        1.0  0.6076398103521325  0.2467774368547352  0.8793022901255794  1.0000
  C   C2        1.0  0.6076384066032076  0.7532214391615638  0.6206978227477717  1.0000
  C   C3        1.0  0.39235770740614123  0.7532221041690335  0.12069857920992887  1.0000
  C   C4        1.0  0.39236170357479244  0.24677810186331328  0.37930304658820546  1.0000
  C   C5        1.0  0.8504027736288788  0.2502706600780513  0.06170541461710139  1.0000
  C   C6        1.0  0.8504051834811291  0.7497290339836763  0.4382942213534803  1.0000
  C   C7        1.0  0.1495973365496184  0.7497297792997983  0.9382941680976697  1.0000
  C   C8        1.0  0.14959751911845126  0.2502714062509952  0.561706050213317  1.0000
  C   C9        1.0  0.5643642962512985  0.1449335469118438  0.9249528474454676  1.0000
  C   C10       1.0  0.5643685803097255  0.8550643912775797  0.5750464696410588  1.0000
  C   C11       1.0  0.435635813920811  0.8550650923372344  0.0750465531055013  1.0000
  C   C12       1.0  0.43563671470185017  0.14493424797370838  0.4249529309108624  1.0000
  C   C13       1.0  0.7742991311326434  0.3503969283678146  0.9234418195729929  1.0000
  C   C14       1.0  0.7742994530847582  0.6496029889997955  0.5765577565882934  1.0000
  C   C15       1.0  0.2256983866229234  0.6496026109445481  0.0765576720594012  1.0000
  C   C16       1.0  0.22570324951801268  0.3503983512992619  0.423442606060405  1.0000
  S   S1        1.0  0.9980568619224925  0.25475555083257717  0.17139878358160124  1.0000
  S   S2        1.0  0.998056219480517  0.745246070144873  0.3286017774983137  1.0000
  S   S3        1.0  0.0019458406770879995  0.7452448894020873  0.828601487985196  1.0000
  S   S4        1.0  0.0019438907025203995  0.25475527015307614  0.671398585149916  1.0000
  N   N1        1.0  0.8885841598782988  0.34618632146035816  0.0144066499730329  1.0000
  N   N2        1.0  0.8885861129152486  0.6538152061501421  0.4855938710009581  1.0000
  N   N3        1.0  0.1114133578849987  0.6538150188364895  0.9855937126747207  1.0000
  N   N4        1.0  0.11141658968887208  0.34618613500461487  0.5144071804993047  1.0000
  N   N5        1.0  0.6908648447468052  0.15208658130977432  0.0158788134798087  1.0000
  N   N6        1.0  0.6908680915428463  0.8479138767485705  0.4841208551245515  1.0000
  N   N7        1.0  0.3091326730133091  0.8479138589226809  0.9841214580860437  1.0000
  N   N8        1.0  0.30913461105672724  0.15208656348609398  0.5158794164422531  1.0000
  O   O1        1.0  0.42460654786792423  0.046158232048227894  0.889287691036344  1.0000
  O   O2        1.0  0.4246116329994079  0.9538377868149228  0.6107113926848982  1.0000
  O   O3        1.0  0.5753909698871595  0.9538404089111553  0.1107130872172561  1.0000
  O   O4        1.0  0.575391069586054  0.046159052306478494  0.3892878257027448  1.0000
  O   O5        1.0  0.828180236856731  0.446962791705758  0.8880810958638604  1.0000
  O   O6        1.0  0.8281800508523742  0.5530371724719387  0.6119191888887625  1.0000
  O   O7        1.0  0.17181987332175908  0.5530376476720988  0.11191848685091088  1.0000
  O   O8        1.0  0.17182265174671574  0.44696236940975353  0.3880823692992407  1.0000
