data_image0
_chemical_formula_structural       Dy8H96C120N8O88
_chemical_formula_sum              "Dy8 H96 C120 N8 O88"
_cell_length_a       12.32857150605973
_cell_length_b       13.749175808177045
_cell_length_c       28.245666045476906
_cell_angle_alpha    89.99942897333483
_cell_angle_beta     89.99965624980175
_cell_angle_gamma    90.00010079334795

_space_group_name_H-M_alt    "P 1"
_space_group_IT_number       1

loop_
  _space_group_symop_operation_xyz
  'x, y, z'

loop_
  _atom_site_type_symbol
  _atom_site_label
  _atom_site_symmetry_multiplicity
  _atom_site_fract_x
  _atom_site_fract_y
  _atom_site_fract_z
  _atom_site_occupancy
  Dy  Dy1       1.0  0.0935808214050056  0.5350240838787953  0.9305756779351315  1.0000
  Dy  Dy2       1.0  0.406410075923425  0.9649730197576499  0.43057291501301626  1.0000
  Dy  Dy3       1.0  0.90641064687469  0.53502402370664  0.5694257577935887  1.0000
  Dy  Dy4       1.0  0.5935883410087825  0.9649753975506669  0.0694238133876581  1.0000
  Dy  Dy5       1.0  0.9064002251225034  0.464975480707011  0.0694270971005153  1.0000
  Dy  Dy6       1.0  0.5935920598513958  0.0350236356185576  0.5694259655993434  1.0000
  Dy  Dy7       1.0  0.09359554450428931  0.4649762682252855  0.4305759550975524  1.0000
  Dy  Dy8       1.0  0.4063862165538693  0.03502198512470759  0.9305747132223985  1.0000
  H   H1        1.0  0.3367398392623571  0.5602632348072163  0.8949620473072315  1.0000
  H   H2        1.0  0.16326858160353194  0.9397455066211932  0.39495968916527613  1.0000
  H   H3        1.0  0.6632670921052436  0.5602584436866705  0.6050399738540407  1.0000
  H   H4        1.0  0.8367305947216933  0.9397329763688869  0.1050368078094124  1.0000
  H   H5        1.0  0.6632525630323512  0.43973851177953793  0.10503647926888253  1.0000
  H   H6        1.0  0.8367489655540724  0.06025624001345878  0.6050360050850188  1.0000
  H   H7        1.0  0.33674802162763484  0.43973457508511865  0.39496209307971253  1.0000
  H   H8        1.0  0.16325126292647238  0.060258587745202895  0.8949652591713857  1.0000
  H   H9        1.0  0.32790467642879406  0.5235528522215206  0.9477079391257703  1.0000
  H   H10       1.0  0.17209652983132173  0.9764577201869499  0.4477067956493316  1.0000
  H   H11       1.0  0.6720908239192624  0.5235331516950622  0.5522956766014886  1.0000
  H   H12       1.0  0.8279083996169022  0.9764593465944101  0.05229270923572221  1.0000
  H   H13       1.0  0.6720893481133315  0.47644598510478176  0.052290233418666815  1.0000
  H   H14       1.0  0.8279137172095049  0.0235454810712312  0.5522892526435896  1.0000
  H   H15       1.0  0.3279096895434393  0.4764460480193974  0.4477099307510955  1.0000
  H   H16       1.0  0.17207589141061416  0.023548945782479794  0.9477107738477102  1.0000
  H   H17       1.0  0.12291369343836318  0.3682854506516761  0.9952287951517036  1.0000
  H   H18       1.0  0.3770898897070295  0.13171511764983276  0.4952245418755866  1.0000
  H   H19       1.0  0.8770895998753047  0.36828521333866593  0.5047734507114043  1.0000
  H   H20       1.0  0.6229027633927444  0.1317137700478952  0.0047723407711686  1.0000
  H   H21       1.0  0.877079519937091  0.6317097500344956  0.0047750419884807  1.0000
  H   H22       1.0  0.6229154905747478  0.8682851743212864  0.5047732766138467  1.0000
  H   H23       1.0  0.1229117247745961  0.6317128966659596  0.4952257839350979  1.0000
  H   H24       1.0  0.3770872055302235  0.8682857945916779  0.9952258317768143  1.0000
  H   H25       1.0  0.18437774905913076  0.34852409793924  0.9450578799748542  1.0000
  H   H26       1.0  0.3156208463996323  0.15147385940419866  0.4450536915185239  1.0000
  H   H27       1.0  0.8156230703668895  0.34852274239232617  0.5549448159472519  1.0000
  H   H28       1.0  0.6843791473451902  0.15147303345433732  0.0549399087840783  1.0000
  H   H29       1.0  0.8156187088047419  0.6514732846838738  0.05494737330224101  1.0000
  H   H30       1.0  0.6843902117631371  0.8485249779602665  0.5549420027473317  1.0000
  H   H31       1.0  0.18439042111822354  0.6514680944328931  0.44505689695731127  1.0000
  H   H32       1.0  0.3156140660799096  0.8485207126751815  0.9450564935907195  1.0000
  H   H33       1.0  0.09109698478718539  0.6865618798170201  0.8606739697016366  1.0000
  H   H34       1.0  0.4088883851742793  0.8134410166984621  0.36067052041877196  1.0000
  H   H35       1.0  0.9088988497848476  0.6865545759142364  0.6393242514910469  1.0000
  H   H36       1.0  0.5911040432268706  0.8134266881178857  0.1393262362205689  1.0000
  H   H37       1.0  0.9088775728076682  0.3134384121670734  0.1393203084619685  1.0000
  H   H38       1.0  0.5911210507568255  0.18655709337378562  0.6393226955946646  1.0000
  H   H39       1.0  0.09110896379586819  0.313436260852427  0.36068277197016846  1.0000
  H   H40       1.0  0.40886726977464605  0.18653796527344468  0.8606768929492433  1.0000
  H   H41       1.0  0.2083123963851108  0.7162478952175204  0.8818019413534232  1.0000
  H   H42       1.0  0.29167998302390424  0.7837429323214732  0.3817992970648519  1.0000
  H   H43       1.0  0.7916891769292675  0.7162539383379353  0.6181957815243493  1.0000
  H   H44       1.0  0.7083148178839167  0.7837364854295784  0.1181961877027788  1.0000
  H   H45       1.0  0.7916629723307481  0.2837494875018862  0.11819233681619322  1.0000
  H   H46       1.0  0.7083335085164748  0.21624717727065954  0.6181942729993253  1.0000
  H   H47       1.0  0.20832755905942693  0.2837419897076146  0.3818055773269862  1.0000
  H   H48       1.0  0.2916564951615399  0.21624489627699006  0.8818030470236238  1.0000
  H   H49       1.0  0.17148057252657622  0.14448576204120664  0.7231790433308377  1.0000
  H   H50       1.0  0.3285502757191239  0.3555210950257361  0.22317453775674068  1.0000
  H   H51       1.0  0.8284857613843853  0.1444907998028455  0.7768278303315553  1.0000
  H   H52       1.0  0.6715004259949849  0.3555164411208266  0.2768216114305702  1.0000
  H   H53       1.0  0.8285312967037726  0.8555174391313399  0.2768255018387293  1.0000
  H   H54       1.0  0.6714924162367099  0.6444864700824481  0.7768285912154411  1.0000
  H   H55       1.0  0.17148717391638968  0.8555167652636442  0.22317423662204317  1.0000
  H   H56       1.0  0.3284935985474887  0.6444874874125046  0.7231772691747338  1.0000
  H   H57       1.0  0.1514876264972713  0.4551540173371009  0.7042008900664598  1.0000
  H   H58       1.0  0.34851509348600723  0.04485395498887359  0.20419642554204392  1.0000
  H   H59       1.0  0.848497189061426  0.4551565153824839  0.795799871627466  1.0000
  H   H60       1.0  0.6515114487636353  0.044849610353878695  0.2957984008522346  1.0000
  H   H61       1.0  0.84852180936317  0.544853547727939  0.29580400913230426  1.0000
  H   H62       1.0  0.6515138094406225  0.955156519486394  0.7957957283060324  1.0000
  H   H63       1.0  0.1515098134870101  0.5448525044002182  0.2041965306921867  1.0000
  H   H64       1.0  0.3485060983705566  0.9551506816155494  0.7042004797311351  1.0000
  H   H65       1.0  0.1328417406295301  0.47415425302054354  0.7911975776754687  1.0000
  H   H66       1.0  0.36717519393236847  0.0258490316230606  0.29119138649132736  1.0000
  H   H67       1.0  0.8671625808424324  0.4741549210184885  0.7088048618621414  1.0000
  H   H68       1.0  0.6328529316054414  0.025848619231190594  0.2088038862690382  1.0000
  H   H69       1.0  0.8671758064525791  0.5258474935019278  0.20880909170989537  1.0000
  H   H70       1.0  0.6328553312329319  0.9741476238505268  0.7088000593149746  1.0000
  H   H71       1.0  0.13284766620271427  0.5258453709852445  0.2911901243280042  1.0000
  H   H72       1.0  0.3671638043910974  0.9741502180868904  0.791196764501997  1.0000
  H   H73       1.0  0.31882001237508456  0.1770352645160003  0.6711920349224771  1.0000
  H   H74       1.0  0.18118965067022694  0.3229741098868999  0.1711909053343561  1.0000
  H   H75       1.0  0.6811293547045308  0.17705429122276675  0.8288104321372742  1.0000
  H   H76       1.0  0.8188455729266196  0.32295843282369663  0.3288092964419889  1.0000
  H   H77       1.0  0.6811748232676536  0.822952663047971  0.3288079078304875  1.0000
  H   H78       1.0  0.8188278964421513  0.6770429103000735  0.8288136397942126  1.0000
  H   H79       1.0  0.3188241136841157  0.8229700021732567  0.17118490810546663  1.0000
  H   H80       1.0  0.18116305183180256  0.6770396771755711  0.671191000304809  1.0000
  H   H81       1.0  0.29915864811992077  0.27016958605354796  0.5262871260486648  1.0000
  H   H82       1.0  0.20084570821536124  0.22984275058229994  0.026286751573003597  1.0000
  H   H83       1.0  0.7008201103257719  0.27016749724455735  0.9737159506128706  1.0000
  H   H84       1.0  0.79915525724757  0.22983790063839382  0.473715672911439  1.0000
  H   H85       1.0  0.7008378097708815  0.7298350697617478  0.4737152949178381  1.0000
  H   H86       1.0  0.7991442606859848  0.7701713603294564  0.9737167314888637  1.0000
  H   H87       1.0  0.2991430915474708  0.7298560688388561  0.026279743655514706  1.0000
  H   H88       1.0  0.20084363402099825  0.7701653005569467  0.5262856859455667  1.0000
  H   H89       1.0  0.0863037235426276  0.3966028580677232  0.6295393979239564  1.0000
  H   H90       1.0  0.4136919122635162  0.10339864001918637  0.1295383727825339  1.0000
  H   H91       1.0  0.9136639383769348  0.39660610996530465  0.8704620023154847  1.0000
  H   H92       1.0  0.5863266387450281  0.10339194363214688  0.37045900146400623  1.0000
  H   H93       1.0  0.9136967899463639  0.6033996157727158  0.3704658553354677  1.0000
  H   H94       1.0  0.5863094124060168  0.8966067431667637  0.8704590916632284  1.0000
  H   H95       1.0  0.08631548593422879  0.6034029097640567  0.1295375863697785  1.0000
  H   H96       1.0  0.41368198601772127  0.8966032571126801  0.6295402331800163  1.0000
  C   C1        1.0  0.14852017171145354  0.34797946365149096  0.85896684449677  1.0000
  C   C2        1.0  0.3514844748269041  0.1520137078037678  0.3589604353553  1.0000
  C   C3        1.0  0.8514782132158915  0.347980038756468  0.6410376242531726  1.0000
  C   C4        1.0  0.6485203867595145  0.1520183409914324  0.1410352865243496  1.0000
  C   C5        1.0  0.8514754750100978  0.6520142823676808  0.1410405330099067  1.0000
  C   C6        1.0  0.6485346945556998  0.8479727651784541  0.6410363210398273  1.0000
  C   C7        1.0  0.1485320338000875  0.6520107981061186  0.35896019425286607  1.0000
  C   C8        1.0  0.3514671487750505  0.8479746777849257  0.858964302189179  1.0000
  C   C9        1.0  0.14392224208075532  0.32271665985305725  0.806902995330809  1.0000
  C   C10       1.0  0.35609447641693487  0.1772863037150643  0.3068982215552722  1.0000
  C   C11       1.0  0.8560777133101071  0.32271835951663513  0.6931008880879972  1.0000
  C   C12       1.0  0.6439242260798964  0.1772833198310692  0.19309737753032152  1.0000
  C   C13       1.0  0.8560847604126138  0.67729090521739  0.1931011957979081  1.0000
  C   C14       1.0  0.6439360487110903  0.8227096243879116  0.6930985348020258  1.0000
  C   C15       1.0  0.14393334482960538  0.6772841143896426  0.3068987005717858  1.0000
  C   C16       1.0  0.35607466519527964  0.8227096989610769  0.8069015030951192  1.0000
  C   C17       1.0  0.15205543122848297  0.23003714279303722  0.7859693788271188  1.0000
  C   C18       1.0  0.3479680642306562  0.2699655213929971  0.2859655921596485  1.0000
  C   C19       1.0  0.847937845177107  0.2300398568944786  0.7140342468358227  1.0000
  C   C20       1.0  0.6520613728741296  0.26996721304900717  0.21403061870074683  1.0000
  C   C21       1.0  0.8479540046329461  0.7699595125452416  0.21403375021507295  1.0000
  C   C22       1.0  0.6520665165075314  0.7300304066985602  0.7140325803388023  1.0000
  C   C23       1.0  0.15206834620430237  0.7699604350410637  0.2859671120187032  1.0000
  C   C24       1.0  0.347937518405672  0.7300374427934528  0.7859693240062741  1.0000
  C   C25       1.0  0.16547093310332164  0.21797874564535386  0.7373074118511554  1.0000
  C   C26       1.0  0.3345532317982247  0.2820300045511742  0.23730218553448176  1.0000
  C   C27       1.0  0.8345028516036094  0.21798844520429125  0.7626976885561021  1.0000
  C   C28       1.0  0.665485152386509  0.28201762991692897  0.2626943207661014  1.0000
  C   C29       1.0  0.8345409361236377  0.7820259101526047  0.2626978413881034  1.0000
  C   C30       1.0  0.6654837823049033  0.7179804698361207  0.762699173254987  1.0000
  C   C31       1.0  0.1654822505892852  0.7820198472347355  0.23729977590381424  1.0000
  C   C32       1.0  0.33451130551463143  0.7179804800767896  0.7373056219599976  1.0000
  C   C33       1.0  0.1690612583300393  0.2988253574465459  0.7071231110451706  1.0000
  C   C34       1.0  0.3309535883024425  0.2011818278197878  0.20712005713919274  1.0000
  C   C35       1.0  0.8309045808938578  0.29882425215773617  0.7928777021785721  1.0000
  C   C36       1.0  0.6690830079165195  0.20118338794424764  0.29287507177179617  1.0000
  C   C37       1.0  0.8309489886662078  0.7011771164301663  0.29287930990859934  1.0000
  C   C38       1.0  0.6690761257171117  0.7988221007729945  0.7928756370898782  1.0000
  C   C39       1.0  0.1690740322833761  0.7011869495018885  0.2071236566855319  1.0000
  C   C40       1.0  0.33092156123527167  0.7988205405934107  0.7071241628563314  1.0000
  C   C41       1.0  0.15181185340151163  0.3910924897818616  0.7270296802565568  1.0000
  C   C42       1.0  0.34820271939517516  0.1089150158745653  0.22702490530407005  1.0000
  C   C43       1.0  0.8481760753234369  0.3911005452266209  0.7729721007550765  1.0000
  C   C44       1.0  0.6518263875319336  0.10890386520203067  0.2729720880999054  1.0000
  C   C45       1.0  0.8482048825678489  0.6089107113871179  0.272975572979874  1.0000
  C   C46       1.0  0.6518261835078505  0.8910961858808405  0.7729707889083953  1.0000
  C   C47       1.0  0.1518228159945778  0.6089033833574218  0.22702217736785715  1.0000
  C   C48       1.0  0.34818467060797786  0.8910964267588921  0.7270271465285632  1.0000
  C   C49       1.0  0.1405328508358537  0.40207446015215  0.7757139513592293  1.0000
  C   C50       1.0  0.3594867300877098  0.09792550442392667  0.2757092002656947  1.0000
  C   C51       1.0  0.8594664561196694  0.4020711634471681  0.7242888384157666  1.0000
  C   C52       1.0  0.6405399209619773  0.09793278758538547  0.2242871384193066  1.0000
  C   C53       1.0  0.8594871296148199  0.5979287409975597  0.22429342609265035  1.0000
  C   C54       1.0  0.6405446061798585  0.9020689690723528  0.7242850778377701  1.0000
  C   C55       1.0  0.1405397352785869  0.5979313104590673  0.2757103962137677  1.0000
  C   C56       1.0  0.3594670815589751  0.9020660497434604  0.7757117421813859  1.0000
  C   C57       1.0  0.19761153563697317  0.28762304113158876  0.6566884608568557  1.0000
  C   C58       1.0  0.30239183794823526  0.21238662977433617  0.15668578126970095  1.0000
  C   C59       1.0  0.8023437360225288  0.2876368627575586  0.8433127608108535  1.0000
  C   C60       1.0  0.6976399144730719  0.2123762921510775  0.34331106341772977  1.0000
  C   C61       1.0  0.8023857333600262  0.7123808873426681  0.3433164383666565  1.0000
  C   C62       1.0  0.6976216535736555  0.7876282085076551  0.8433141613934796  1.0000
  C   C63       1.0  0.19762757708192416  0.7123830667431147  0.1566836415289785  1.0000
  C   C64       1.0  0.30236546581487295  0.7876276364052829  0.6566864010262563  1.0000
  C   C65       1.0  0.2794645073642598  0.22175018961182494  0.644337592445325  1.0000
  C   C66       1.0  0.22054471397481734  0.2782575518065187  0.14433763925703863  1.0000
  C   C67       1.0  0.7204922515158289  0.22176581740481532  0.8556618250592721  1.0000
  C   C68       1.0  0.7794823067101504  0.27824417575297383  0.3556631338298076  1.0000
  C   C69       1.0  0.7205376284146965  0.7782457384552899  0.3556605800955666  1.0000
  C   C70       1.0  0.7794679664135487  0.7217551045150401  0.8556633655223465  1.0000
  C   C71       1.0  0.2794644613584509  0.7782555667175045  0.1443345772961351  1.0000
  C   C72       1.0  0.220521451292214  0.72175393422453  0.6443389331064324  1.0000
  C   C73       1.0  0.31730213264333423  0.2156550556239479  0.5978058173449698  1.0000
  C   C74       1.0  0.1826979953279704  0.28435363701740357  0.0978062875916308  1.0000
  C   C75       1.0  0.6826594804514201  0.21566385661094495  0.9021975241876561  1.0000
  C   C76       1.0  0.8173168709931601  0.2843459125840084  0.402195517987586  1.0000
  C   C77       1.0  0.6826927030115398  0.7843423270558461  0.4021937713484008  1.0000
  C   C78       1.0  0.8173025181699743  0.715657564618915  0.9021989656465905  1.0000
  C   C79       1.0  0.31729966579143104  0.78435898213862  0.0977995862342596  1.0000
  C   C80       1.0  0.18268850928205888  0.7156551066925798  0.5978033626099306  1.0000
  C   C81       1.0  0.2706133259912633  0.2734995738929483  0.5626916783326622  1.0000
  C   C82       1.0  0.2293913406597099  0.22650692732648273  0.0626908913238324  1.0000
  C   C83       1.0  0.7293727393983146  0.2735011815632332  0.9373117361672102  1.0000
  C   C84       1.0  0.7706161069550818  0.22649841468535206  0.4373111953325052  1.0000
  C   C85       1.0  0.729389620887865  0.7264992634002707  0.4373103886028744  1.0000
  C   C86       1.0  0.7706010616147195  0.7735035470127299  0.9373118836704537  1.0000
  C   C87       1.0  0.270597762565707  0.7265122020754403  0.0626860823360573  1.0000
  C   C88       1.0  0.2293884621804025  0.7735062411432948  0.562690517550152  1.0000
  C   C89       1.0  0.1861120377210383  0.3370268366842808  0.5742197748136136  1.0000
  C   C90       1.0  0.3138876036163509  0.1629816108395801  0.07421659711523888  1.0000
  C   C91       1.0  0.8138652355209003  0.33701935219612267  0.9257847472001401  1.0000
  C   C92       1.0  0.6861229583108112  0.16297684316176483  0.42577942552557607  1.0000
  C   C93       1.0  0.8138763089196176  0.6629843649464886  0.4257851244039088  1.0000
  C   C94       1.0  0.6861104765514411  0.8370252269657142  0.9257819294410794  1.0000
  C   C95       1.0  0.18611418879304148  0.6629947587438778  0.07421519550936752  1.0000
  C   C96       1.0  0.3138718773657772  0.8370227214959484  0.5742173308695797  1.0000
  C   C97       1.0  0.15099411066304216  0.34544283485004007  0.6211682418136206  1.0000
  C   C98       1.0  0.34901056266340197  0.15456028899875923  0.12116784541859  1.0000
  C   C99       1.0  0.8489710130209076  0.34545163670284035  0.8788316368088261  1.0000
  C   C100      1.0  0.6510097154597503  0.15454770039740137  0.3788310504389401  1.0000
  C   C101      1.0  0.8490104584438213  0.6545552750991276  0.3788366574144817  1.0000
  C   C102      1.0  0.6509923842501164  0.8454530946498763  0.8788313891886901  1.0000
  C   C103      1.0  0.1509946222074703  0.6545602923139952  0.1211647655578787  1.0000
  C   C104      1.0  0.34899485367708394  0.8454511369115136  0.6211696003480185  1.0000
  C   C105      1.0  0.41116946086087575  0.1511495480519471  0.5873911561419832  1.0000
  C   C106      1.0  0.08882513250676992  0.3488520843262747  0.0873915586016736  1.0000
  C   C107      1.0  0.5887960756173953  0.15116017667065754  0.9126121447637204  1.0000
  C   C108      1.0  0.9111768880674448  0.3488522888899935  0.4126095795535107  1.0000
  C   C109      1.0  0.5888245637007258  0.8488492893033024  0.41260418410954003  1.0000
  C   C110      1.0  0.9111632141161505  0.6511489348651053  0.9126144027504353  1.0000
  C   C111      1.0  0.4111655039781112  0.8488604801064381  0.08738744391661872  1.0000
  C   C112      1.0  0.0888293033270884  0.6511465484346175  0.5873896550848556  1.0000
  C   C113      1.0  0.13412986002141034  0.39527068276166927  0.5356683002595872  1.0000
  C   C114      1.0  0.36586787826045963  0.10473273429879269  0.03566774781373281  1.0000
  C   C115      1.0  0.8658605106202797  0.39526321583966245  0.9643341685588  1.0000
  C   C116      1.0  0.634132830749067  0.10472928218095487  0.4643310361126325  1.0000
  C   C117      1.0  0.865872275735022  0.6047317911089393  0.4643341207047911  1.0000
  C   C118      1.0  0.6341156016829858  0.8952741035063595  0.9643297166518323  1.0000
  C   C119      1.0  0.1341172914128066  0.6047378033763519  0.0356686064775573  1.0000
  C   C120      1.0  0.365870116141835  0.8952739190210649  0.5356699687024573  1.0000
  N   N1        1.0  0.1427888682662157  0.14008527924609374  0.8136506703101531  1.0000
  N   N2        1.0  0.3572269462782458  0.3599175463754136  0.3136464223480004  1.0000
  N   N3        1.0  0.8572090904556332  0.14008493658009505  0.6863558706683719  1.0000
  N   N4        1.0  0.642796186235735  0.35991978994154294  0.1863504135703806  1.0000
  N   N5        1.0  0.8572019117428624  0.8599201038595365  0.18635387488170352  1.0000
  N   N6        1.0  0.6428125011398151  0.6400681992116759  0.6863595389743581  1.0000
  N   N7        1.0  0.1428173790383767  0.8599233558575247  0.3136447800669586  1.0000
  N   N8        1.0  0.3572075717887485  0.6400761381231773  0.8136481130050158  1.0000
  O   O1        1.0  0.0989442803765641  0.42608727143455366  0.8696784514292519  1.0000
  O   O2        1.0  0.4010521075462847  0.0739049536963208  0.369674770349839  1.0000
  O   O3        1.0  0.9010477757009241  0.4260888675398391  0.6303235135967001  1.0000
  O   O4        1.0  0.5989534050150169  0.07390827657195588  0.1303241633397576  1.0000
  O   O5        1.0  0.9010383883783388  0.5739064746001715  0.130326447838101  1.0000
  O   O6        1.0  0.5989630062003073  0.9260800646284859  0.6303241102738184  1.0000
  O   O7        1.0  0.0989689603274755  0.5739077878799391  0.369672180667024  1.0000
  O   O8        1.0  0.40103494163622605  0.926084742194149  0.8696764874825504  1.0000
  O   O9        1.0  0.291499208100511  0.5228498220243337  0.917172684439521  1.0000
  O   O10       1.0  0.2085072849762071  0.9771693750911224  0.41717144226286257  1.0000
  O   O11       1.0  0.7085052131908043  0.5228360979978816  0.5828288104577339  1.0000
  O   O12       1.0  0.791496023682349  0.9771608673201155  0.08282664304469022  1.0000
  O   O13       1.0  0.7084842718353741  0.4771686528130486  0.0828276122906999  1.0000
  O   O14       1.0  0.7915135066501835  0.022827280299139798  0.58282743832509  1.0000
  O   O15       1.0  0.2915066560320838  0.4771598300114304  0.4171757347295043  1.0000
  O   O16       1.0  0.2084736671115621  0.022824150955997893  0.9171736537848505  1.0000
  O   O17       1.0  0.20280520310390673  0.2976169150352844  0.8881218110877996  1.0000
  O   O18       1.0  0.2971933644953637  0.20237929699241156  0.3881152992845359  1.0000
  O   O19       1.0  0.7971938896962669  0.2976107312005071  0.6118825483424999  1.0000
  O   O20       1.0  0.7028059225067408  0.20238533533465386  0.1118759294433573  1.0000
  O   O21       1.0  0.7971807101545707  0.7023819222197712  0.11188273412632553  1.0000
  O   O22       1.0  0.7028266160355726  0.7976071760266094  0.6118779167433744  1.0000
  O   O23       1.0  0.202830146390113  0.7023793783018631  0.3881205806964942  1.0000
  O   O24       1.0  0.297179990803471  0.7976069561603366  0.8881201189079064  1.0000
  O   O25       1.0  0.16963950248615586  0.3973383908262207  0.9703363490273491  1.0000
  O   O26       1.0  0.3303611785870331  0.10266050437527238  0.4703337753280295  1.0000
  O   O27       1.0  0.8303614170181177  0.397335392307447  0.52966504760996  1.0000
  O   O28       1.0  0.6696435818232301  0.1026616276301766  0.029661478284317908  1.0000
  O   O29       1.0  0.8303553331363104  0.6026582644902019  0.029667842143787506  1.0000
  O   O30       1.0  0.6696450128189326  0.8973376056511096  0.5296636891290305  1.0000
  O   O31       1.0  0.1696472077302218  0.6026576264703177  0.47033595722243865  1.0000
  O   O32       1.0  0.3303496316057988  0.8973335731356111  0.9703345700503264  1.0000
  O   O33       1.0  0.08880182365705018  0.14243699752457667  0.8510277968373359  1.0000
  O   O34       1.0  0.41120455432682956  0.3575672459297721  0.35102554327087193  1.0000
  O   O35       1.0  0.9112034400011807  0.14243604565506726  0.6489787327065957  1.0000
  O   O36       1.0  0.5888064064896312  0.357569444950087  0.14897413637609702  1.0000
  O   O37       1.0  0.9111776006608705  0.8575691129539607  0.1489703757085366  1.0000
  O   O38       1.0  0.5888267818685194  0.6424090445787982  0.6489765236823005  1.0000
  O   O39       1.0  0.08884006306119119  0.8575758833191  0.3510275825834555  1.0000
  O   O40       1.0  0.41119735152525283  0.6424337562525435  0.851026868437927  1.0000
  O   O41       1.0  0.1522101591724265  0.6626410315743597  0.8790388892013965  1.0000
  O   O42       1.0  0.3477733358813069  0.8373571255914384  0.3790376078308526  1.0000
  O   O43       1.0  0.8477856263825955  0.6626412842126184  0.6209573239798871  1.0000
  O   O44       1.0  0.6522118414585022  0.8373432645889378  0.12095549224712702  1.0000
  O   O45       1.0  0.8477619650538627  0.33735780578248853  0.12095468089570012  1.0000
  O   O46       1.0  0.6522320444317841  0.16263807521970358  0.6209549001217242  1.0000
  O   O47       1.0  0.1522278650852726  0.337351734532625  0.3790472212122965  1.0000
  O   O48       1.0  0.3477408157693845  0.16262138890413516  0.8790363077754081  1.0000
  O   O49       1.0  0.18759457590176254  0.06585483942445339  0.798220106155  1.0000
  O   O50       1.0  0.31242226205710477  0.43414902898043545  0.2982134905345859  1.0000
  O   O51       1.0  0.8124072862626832  0.06585702307467758  0.701787149519653  1.0000
  O   O52       1.0  0.6876002115189975  0.4341481153095329  0.20178156857004131  1.0000
  O   O53       1.0  0.8124018819475013  0.9341425431769466  0.20178727134178595  1.0000
  O   O54       1.0  0.6876082629850943  0.5658534448319442  0.7017967191981783  1.0000
  O   O55       1.0  0.18761188314888952  0.9341410869940531  0.2982071285908888  1.0000
  O   O56       1.0  0.312416524490466  0.5658514493429649  0.7982173120161493  1.0000
  O   O57       1.0  0.4489375455557436  0.09679471057283706  0.6201778616390143  1.0000
  O   O58       1.0  0.0510517300214346  0.40319752375544476  0.12017845288772122  1.0000
  O   O59       1.0  0.5510351796305316  0.09680667989127298  0.8798225170236976  1.0000
  O   O60       1.0  0.9489447240903531  0.4032057286191914  0.3798245454214638  1.0000
  O   O61       1.0  0.5510637790954505  0.903207036009789  0.3798217270352709  1.0000
  O   O62       1.0  0.9489236386114683  0.5967925856885469  0.8798268004346355  1.0000
  O   O63       1.0  0.4489288333722996  0.903217613516311  0.12017246916862942  1.0000
  O   O64       1.0  0.0510687674149892  0.5967858355513015  0.6201743351884161  1.0000
  O   O65       1.0  0.45575885286618245  0.1530497517879965  0.5463093924386585  1.0000
  O   O66       1.0  0.04423955014778609  0.3469527204167732  0.046309566757472  1.0000
  O   O67       1.0  0.544207498641029  0.15305292758775826  0.9536914209950781  1.0000
  O   O68       1.0  0.9557640887651574  0.34695215230488685  0.4536937048457901  1.0000
  O   O69       1.0  0.5442343605358602  0.8469476308833348  0.4536909043300739  1.0000
  O   O70       1.0  0.9557463631125813  0.6530432075802253  0.9536942703904927  1.0000
  O   O71       1.0  0.45575894770835396  0.8469560921643902  0.046304981377630804  1.0000
  O   O72       1.0  0.04424210262728679  0.6530517762231368  0.5463065918900583  1.0000
  O   O73       1.0  0.1757180874868638  0.3902482893802882  0.49439962596753173  1.0000
  O   O74       1.0  0.32427496241481885  0.1097457499694627  0.9944000060598982  1.0000
  O   O75       1.0  0.8242767178230891  0.3902472282362552  0.0056030812474219  1.0000
  O   O76       1.0  0.6757172562805492  0.10974591967080728  0.5056010177527099  1.0000
  O   O77       1.0  0.8242856704967636  0.6097505478845945  0.5056052732598602  1.0000
  O   O78       1.0  0.6757020284946831  0.8902509053552303  0.005602060914895901  1.0000
  O   O79       1.0  0.17570027311801786  0.6097588822332157  0.9943957993748641  1.0000
  O   O80       1.0  0.32428082387809803  0.8902543722839624  0.4943978628561183  1.0000
  O   O81       1.0  0.051079673926231806  0.44621103156408276  0.5451210627825631  1.0000
  O   O82       1.0  0.4489219899370198  0.053797283466259706  0.0451212485974182  1.0000
  O   O83       1.0  0.948918101281592  0.4461937006252156  0.9548769101018239  1.0000
  O   O84       1.0  0.5510834814134996  0.05379026292906269  0.4548745964869383  1.0000
  O   O85       1.0  0.948920839631647  0.5538016247917313  0.4548756935733564  1.0000
  O   O86       1.0  0.5510712235161038  0.9462095543787963  0.9548730295258779  1.0000
  O   O87       1.0  0.051077545449501806  0.5538022273537847  0.045129405289714014  1.0000
  O   O88       1.0  0.4489194654748161  0.946205665116956  0.5451257002725853  1.0000
