data_image0
_chemical_formula_structural       Zn3H24C38N12O8
_chemical_formula_sum              "Zn3 H24 C38 N12 O8"
_cell_length_a       11.563437723689596
_cell_length_b       11.611889218070743
_cell_length_c       11.798067746200097
_cell_angle_alpha    64.51463045638968
_cell_angle_beta     81.1853538030985
_cell_angle_gamma    72.28505404032512

_space_group_name_H-M_alt    "P 1"
_space_group_IT_number       1

loop_
  _space_group_symop_operation_xyz
  'x, y, z'

loop_
  _atom_site_type_symbol
  _atom_site_label
  _atom_site_symmetry_multiplicity
  _atom_site_fract_x
  _atom_site_fract_y
  _atom_site_fract_z
  _atom_site_occupancy
  Zn  Zn1       1.0  4.125671416900327e-06  2.5852197182998425e-06  0.5000020186876597  1.0000
  Zn  Zn2       1.0  0.9999898810028544  0.5000047876982591  0.49999893207633783  1.0000
  Zn  Zn3       1.0  2.6123624649853424e-06  0.9999987313180229  3.325335143123979e-06  1.0000
  H   H1        1.0  0.7902350556845477  0.9796934795429377  0.6959012523545528  1.0000
  H   H2        1.0  0.6353950239898084  0.41645683579145054  0.35758253182363836  1.0000
  H   H3        1.0  0.5721815216984325  0.10076267444227228  0.7079413383945408  1.0000
  H   H4        1.0  0.19764833381331207  0.3697774993887819  0.7144384355112197  1.0000
  H   H5        1.0  0.8493566294443866  0.2797111210528911  0.3597696838650038  1.0000
  H   H6        1.0  0.4211907033861663  0.2624871842598751  0.7316877575794791  1.0000
  H   H7        1.0  0.4455780011622182  0.4375287388537572  0.3260107834292185  1.0000
  H   H8        1.0  0.2218011019394126  0.5381827325266143  0.3268222205766805  1.0000
  H   H9        1.0  0.5288076033876055  0.20999993758634614  0.956415928466342  1.0000
  H   H10       1.0  0.856372522702003  0.8027723205256971  0.02632408261314386  1.0000
  H   H11       1.0  0.6439853171955151  0.7920444836575483  0.03289643348066556  1.0000
  H   H12       1.0  0.7469688969069496  0.20093785018249108  0.9517431689141989  1.0000
  H   H13       1.0  0.20975832760890262  0.020312240202095197  0.3040944544639359  1.0000
  H   H14       1.0  0.36461650256512734  0.5835498384312955  0.6424117613318928  1.0000
  H   H15       1.0  0.4278124232266053  0.8992479647965366  0.29204625368889486  1.0000
  H   H16       1.0  0.8023462764752198  0.6302232288448548  0.28554989353703064  1.0000
  H   H17       1.0  0.1506505879721872  0.7202916394275362  0.6402345484058573  1.0000
  H   H18       1.0  0.5788026985898825  0.7375185015272977  0.26830033250809043  1.0000
  H   H19       1.0  0.5544162785204065  0.5624769411093667  0.6739763308331845  1.0000
  H   H20       1.0  0.7781900955999531  0.46181404218280164  0.6731674550308144  1.0000
  H   H21       1.0  0.4711992755376285  0.7899899007092587  0.04358030311210106  1.0000
  H   H22       1.0  0.14362984620617422  0.19721072285533836  0.9737028415218917  1.0000
  H   H23       1.0  0.3560182792805052  0.2079444105713435  0.9671091655325486  1.0000
  H   H24       1.0  0.2530352460969853  0.7990451475925933  0.04827418683959202  1.0000
  C   C1        1.0  0.7515516176580449  0.07781760253874381  0.6241575467128586  1.0000
  C   C2        1.0  0.026709851576605104  0.21844687433770105  0.6179702472328543  1.0000
  C   C3        1.0  0.04375474497744145  0.9619912030146336  0.7689077138701563  1.0000
  C   C4        1.0  0.45366825620406803  0.3401265442913227  0.5295110487498392  1.0000
  C   C5        1.0  0.6648359751971142  0.3198133344363682  0.43457982211923274  1.0000
  C   C6        1.0  0.6305497649266346  0.14617402443742827  0.6300992086542296  1.0000
  C   C7        1.0  0.2569581536546793  0.3832261688917171  0.630798235343292  1.0000
  C   C8        1.0  0.057278750821964805  0.2458292167376754  0.48245529856063035  1.0000
  C   C9        1.0  0.021922674151113607  0.10751163156675857  0.7296751843827778  1.0000
  C   C10       1.0  0.5839399211800967  0.2696476345711005  0.532396516595405  1.0000
  C   C11       1.0  0.784613243328437  0.24550550158717502  0.43562189382124933  1.0000
  C   C12       1.0  0.3813003841338728  0.3232864896489147  0.6395765097182036  1.0000
  C   C13       1.0  0.3952369841776573  0.42210300885189866  0.41495947331961963  1.0000
  C   C14       1.0  0.2704271341051339  0.47801735873951406  0.4145532799111962  1.0000
  C   C15       1.0  0.5644213290578578  0.0005436781392588995  0.9970393401175671  1.0000
  C   C16       1.0  0.5970217607432462  0.11645507632463391  0.9725713135201774  1.0000
  C   C17       1.0  0.7799355329242491  0.8903848677962287  0.011450542334983898  1.0000
  C   C18       1.0  0.6604546760978709  0.8858146575060246  0.015425935499564293  1.0000
  C   C19       1.0  0.7187817466669558  0.11287664188893125  0.9696751522820791  1.0000
  C   C20       1.0  0.24844201477093722  0.9221871121124395  0.3758351612053944  1.0000
  C   C21       1.0  0.9732904262304845  0.7815628284587177  0.3820320579738168  1.0000
  C   C22       1.0  0.9562532458410403  0.03801553978144061  0.2311006382272539  1.0000
  C   C23       1.0  0.5463260234785635  0.6598791356718011  0.4704760655125638  1.0000
  C   C24       1.0  0.33516831170735645  0.6801943348761554  0.5654125819863154  1.0000
  C   C25       1.0  0.3694465068496201  0.8538306614223289  0.3698880328782295  1.0000
  C   C26       1.0  0.7430349441287093  0.616773577215447  0.36919158536535696  1.0000
  C   C27       1.0  0.9427149360913987  0.7541716003281139  0.5175526249883546  1.0000
  C   C28       1.0  0.9780832632890863  0.8924891718781112  0.2703343110757359  1.0000
  C   C29       1.0  0.4160576160416057  0.7303590347358835  0.4675913858734475  1.0000
  C   C30       1.0  0.21539175984496955  0.7544992090402332  0.5643742081351419  1.0000
  C   C31       1.0  0.6186988409887845  0.6767132458746943  0.3604132506417771  1.0000
  C   C32       1.0  0.6047582629852998  0.5778987035591641  0.5850274935899478  1.0000
  C   C33       1.0  0.7295649369891067  0.5219794176920444  0.5854371124780046  1.0000
  C   C34       1.0  0.4355855519432198  0.9994461563832432  0.0029560451574325236  1.0000
  C   C35       1.0  0.40298097463296056  0.8835337935435346  0.02742849089072052  1.0000
  C   C36       1.0  0.22007265762743336  0.10960307145359138  0.9885649510243157  1.0000
  C   C37       1.0  0.3395465384698042  0.11417324532806108  0.9845787457854771  1.0000
  C   C38       1.0  0.2812247009266501  0.8871112863704129  0.030337214906935965  1.0000
  N   N1        1.0  0.9984669753649911  0.32280474046746116  0.650942191052771  1.0000
  N   N2        1.0  0.8268994770750243  0.12582382857824112  0.5281633985092854  1.0000
  N   N3        1.0  0.2018136436766298  0.4581613788592093  0.5203974564484639  1.0000
  N   N4        1.0  0.9763423047696731  0.282961595392841  0.7743030378592693  1.0000
  N   N5        1.0  0.9907326438107235  0.15278053386762738  0.82217116509991  1.0000
  N   N6        1.0  0.8086632986234717  0.0017820408591120002  0.9896877582399457  1.0000
  N   N7        1.0  0.0015290016071177164  0.6772010334942564  0.3490666680554925  1.0000
  N   N8        1.0  0.17310147647479834  0.8741759443475201  0.4718354121450261  1.0000
  N   N9        1.0  0.7981779499049962  0.5418373700290999  0.47959047070684585  1.0000
  N   N10       1.0  0.023657413481672204  0.7170431841367059  0.22570653577901822  1.0000
  N   N11       1.0  0.009272566981316295  0.8472232471278431  0.17783886402494173  1.0000
  N   N12       1.0  0.19133996874973763  0.998200958966926  0.01032972703556814  1.0000
  O   O1        1.0  0.0872363369933851  0.1517845945860685  0.4469541837332827  1.0000
  O   O2        1.0  0.05182718171026582  0.366327171326688  0.40949492600797316  1.0000
  O   O3        1.0  0.049608039281913804  0.9154215460362636  0.6884231023890949  1.0000
  O   O4        1.0  0.05443587567927466  0.890634931250091  0.8868269384957659  1.0000
  O   O5        1.0  0.9127734865569297  0.8482181974724695  0.5530581230067427  1.0000
  O   O6        1.0  0.9481457273187819  0.6336835548658823  0.5905042376313149  1.0000
  O   O7        1.0  0.9504054606840313  0.08458416804097621  0.3115789347674109  1.0000
  O   O8        1.0  0.9455702231985657  0.10936882505585291  0.1131778832867525  1.0000
