data_image0
_chemical_formula_structural       Zn8H60C64O30
_chemical_formula_sum              "Zn8 H60 C64 O30"
_cell_length_a       17.957062911348835
_cell_length_b       18.480963379300874
_cell_length_c       20.38813533330211
_cell_angle_alpha    61.00819528878055
_cell_angle_beta     62.69911778047007
_cell_angle_gamma    89.90113325009756

_space_group_name_H-M_alt    "P 1"
_space_group_IT_number       1

loop_
  _space_group_symop_operation_xyz
  'x, y, z'

loop_
  _atom_site_type_symbol
  _atom_site_label
  _atom_site_symmetry_multiplicity
  _atom_site_fract_x
  _atom_site_fract_y
  _atom_site_fract_z
  _atom_site_occupancy
  Zn  Zn1       1.0  0.13072571079931805  0.5439670303647617  0.9234619091747761  1.0000
  Zn  Zn2       1.0  0.959756899173527  0.5480192646664648  0.0694712657175316  1.0000
  Zn  Zn3       1.0  0.9681694958342034  0.3791940395955535  0.0624335380366432  1.0000
  Zn  Zn4       1.0  0.9562261337461918  0.5440670798593459  0.9128379440561574  1.0000
  Zn  Zn5       1.0  0.3768948334875192  0.9692056407973694  0.06232079829050012  1.0000
  Zn  Zn6       1.0  0.5445535726722069  0.12900710862923134  0.9192453081034416  1.0000
  Zn  Zn7       1.0  0.5404498275984865  0.960023349125791  0.9139709613359841  1.0000
  Zn  Zn8       1.0  0.5532372657533813  0.9606270876534709  0.0683897043232804  1.0000
  H   H1        1.0  0.42910948305268454  0.8244433075905279  0.34514563980131646  1.0000
  H   H2        1.0  0.20197377643597736  0.8375505760820089  0.32443674767716874  1.0000
  H   H3        1.0  0.08515014517535488  0.682313508432209  0.6384967402220455  1.0000
  H   H4        1.0  0.3120300725143537  0.6710104035818245  0.6596645663157336  1.0000
  H   H5        1.0  0.6759886591278456  0.084579189191963  0.6419343397226885  1.0000
  H   H6        1.0  0.6671678279611938  0.30987161059282187  0.65373098572519  1.0000
  H   H7        1.0  0.8225051259173028  0.4228396846242574  0.3411292963911734  1.0000
  H   H8        1.0  0.8330857879464159  0.1977150866818391  0.3292198172844536  1.0000
  H   H9        1.0  0.21742728338688252  0.3155769181616107  0.8840545945173164  1.0000
  H   H10       1.0  0.1316823988306268  0.228285439360853  0.9865985434883273  1.0000
  H   H11       1.0  0.2244395890789618  0.1393516742721416  0.9806887167564612  1.0000
  H   H12       1.0  0.31055083586085175  0.228190909078691  0.8799867719055428  1.0000
  H   H13       1.0  0.19988442596455508  0.10894234883718916  0.1247096836018926  1.0000
  H   H14       1.0  0.27120230141885315  0.1727639591544019  0.12644465033931604  1.0000
  H   H15       1.0  0.11060820541045759  0.20146819412916978  0.12835390539403593  1.0000
  H   H16       1.0  0.18471742662177348  0.266639015259905  0.12615804208670062  1.0000
  H   H17       1.0  0.3228536367653732  0.41100825121507256  0.8806755125763814  1.0000
  H   H18       1.0  0.3080825463782444  0.39273464393402663  0.9793751927869824  1.0000
  H   H19       1.0  0.3966698648996425  0.2997013540643961  0.9815026595765348  1.0000
  H   H20       1.0  0.41406074777959384  0.3207304115635025  0.8810506361055986  1.0000
  H   H21       1.0  0.9082858798299824  0.816404085128248  0.8768270386167601  1.0000
  H   H22       1.0  0.8873036641915064  0.7909260095024351  0.9805023115356876  1.0000
  H   H23       1.0  0.7982318113625337  0.8834266338707336  0.9797174469486267  1.0000
  H   H24       1.0  0.8185452111710774  0.9072518626812353  0.8767398744357565  1.0000
  H   H25       1.0  0.67257443286924  0.7584788737948713  0.12009256657030684  1.0000
  H   H26       1.0  0.6020011192173269  0.6945186465328917  0.11793872313798204  1.0000
  H   H27       1.0  0.7610037247017941  0.6651981254478726  0.12009423519434388  1.0000
  H   H28       1.0  0.6909574867856778  0.6027718564664967  0.1160221231242602  1.0000
  H   H29       1.0  0.8095481206024289  0.7264809635689955  0.8694922585030798  1.0000
  H   H30       1.0  0.7213383633169668  0.6384757567893117  0.9665130713796659  1.0000
  H   H31       1.0  0.6304774833529336  0.7291081823662823  0.9690310763779023  1.0000
  H   H32       1.0  0.7185097529529116  0.8167620755987954  0.8712315720333591  1.0000
  H   H33       1.0  0.17658374066537874  0.8105271756667917  0.9178354194988501  1.0000
  H   H34       1.0  0.2671314587584489  0.7800180785388448  0.8637700981579358  1.0000
  H   H35       1.0  0.3585684176946913  0.8746019452574315  0.8590743106127904  1.0000
  H   H36       1.0  0.2675159398793241  0.9042572752618769  0.9137214084077102  1.0000
  H   H37       1.0  0.40130296507510355  0.7499952572647146  0.9456312862467443  1.0000
  H   H38       1.0  0.3418933722191325  0.6913596291256425  0.06175950268640659  1.0000
  H   H39       1.0  0.3089588215143451  0.6542051826319832  0.9519274249821594  1.0000
  H   H40       1.0  0.24911529317289896  0.597352388636601  0.06796160873432912  1.0000
  H   H41       1.0  0.08899447119323163  0.7269726174299863  0.08517569015729262  1.0000
  H   H42       1.0  0.11856935175498509  0.6396955992183991  0.14624479833572934  1.0000
  H   H43       1.0  0.21057514375094402  0.7334773591922071  0.14177811108216082  1.0000
  H   H44       1.0  0.18077327606163607  0.8206362923877109  0.08109311883497841  1.0000
  H   H45       1.0  0.9148628866337699  0.28181729551013024  0.9056717272591543  1.0000
  H   H46       1.0  0.8781412520565083  0.3658700077586585  0.8491010112596842  1.0000
  H   H47       1.0  0.7929903372697921  0.2669151731206155  0.8527206621692117  1.0000
  H   H48       1.0  0.8262588989274774  0.18241385485861622  0.9136463615161433  1.0000
  H   H49       1.0  0.6623392696820501  0.3077631340186924  0.9311797800863745  1.0000
  H   H50       1.0  0.599663280996907  0.24891601646678652  0.0472310680057006  1.0000
  H   H51       1.0  0.7479765513223455  0.40283106125571067  0.931655483234117  1.0000
  H   H52       1.0  0.6870166255866793  0.341357153993073  0.04777901694463791  1.0000
  H   H53       1.0  0.8282843245427854  0.19226543903471338  0.07329410559139402  1.0000
  H   H54       1.0  0.7372903881481603  0.21797527138900114  0.13197850688906956  1.0000
  H   H55       1.0  0.645127303156542  0.12554015031749796  0.13521961169837485  1.0000
  H   H56       1.0  0.7355409590482649  0.0959477848592343  0.08117558263406721  1.0000
  H   H57       1.0  0.4584374180242321  0.783061130061597  0.43099510506368693  1.0000
  H   H58       1.0  0.05599482424970151  0.7239205974900217  0.5532703324603858  1.0000
  H   H59       1.0  0.7204556086376143  0.05507684948324943  0.5593064251283694  1.0000
  H   H60       1.0  0.7856142058419451  0.45257383358451625  0.4234207292635758  1.0000
  C   C1        1.0  0.13830842664196302  0.6375638830078358  0.004029592990939097  1.0000
  C   C2        1.0  0.8790290355449173  0.3723921947738519  0.22970992254277436  1.0000
  C   C3        1.0  0.14684586421218176  0.3656870289443005  0.997966752585768  1.0000
  C   C4        1.0  0.8642084691620793  0.3676359103654576  0.9865918870761448  1.0000
  C   C5        1.0  0.13535531858560296  0.625038066526585  0.7547857583315151  1.0000
  C   C6        1.0  0.8620954528763105  0.6429748559923635  0.988118491211438  1.0000
  C   C7        1.0  0.36535514068557967  0.14559610456089422  0.994945925918309  1.0000
  C   C8        1.0  0.6180861639921245  0.13510407477531314  0.7534115934461526  1.0000
  C   C9        1.0  0.3597005069721605  0.8640496474251835  0.9947563046279483  1.0000
  C   C10       1.0  0.6437162129962032  0.864533031810339  0.9896200731963206  1.0000
  C   C11       1.0  0.3778946456028152  0.8833758420693915  0.22903080583979119  1.0000
  C   C12       1.0  0.648762240537337  0.13888169380147974  0.9921608677796886  1.0000
  C   C13       1.0  0.3579137184417647  0.808489982037301  0.37900161701246304  1.0000
  C   C14       1.0  0.22971804039448065  0.8164354109681966  0.3659603698135643  1.0000
  C   C15       1.0  0.17539775172938474  0.7717914287218409  0.45622995240079695  1.0000
  C   C16       1.0  0.2103499922955976  0.7437887646491674  0.5123405457222107  1.0000
  C   C17       1.0  0.15634833055333527  0.698492176414533  0.6047672448358412  1.0000
  C   C18       1.0  0.2843386407240232  0.6914326330342675  0.6180783155353212  1.0000
  C   C19       1.0  0.3387916291188943  0.7354942840749885  0.5278012197582528  1.0000
  C   C20       1.0  0.3040196970637297  0.7632886969325912  0.4715119978936572  1.0000
  C   C21       1.0  0.3212877826909449  0.8348171531505247  0.32715721750703614  1.0000
  C   C22       1.0  0.1927611712780716  0.6727551268612756  0.6567760797389328  1.0000
  C   C23       1.0  0.6934884142078985  0.1549030519685885  0.6058471411757652  1.0000
  C   C24       1.0  0.6875509077645108  0.28202337694215623  0.6140457754277833  1.0000
  C   C25       1.0  0.7335713365249674  0.3351441074395679  0.523384220930602  1.0000
  C   C26       1.0  0.7606887761696868  0.29998316628087446  0.46979448215042663  1.0000
  C   C27       1.0  0.8060064631302524  0.3525473326185206  0.3772101010514107  1.0000
  C   C28       1.0  0.8124683313971913  0.22550166338373154  0.3689387092959819  1.0000
  C   C29       1.0  0.7679450563322092  0.17241102265283806  0.4595311653390085  1.0000
  C   C30       1.0  0.7400439936637111  0.20752005976774507  0.5132064415692598  1.0000
  C   C31       1.0  0.6673790845083262  0.19158352094160577  0.6552962372301822  1.0000
  C   C32       1.0  0.8312016449291805  0.3158723388956588  0.32777640073491915  1.0000
  C   C33       1.0  0.20013286199886687  0.26503823616277317  0.9510924302417935  1.0000
  C   C34       1.0  0.2613246788309809  0.20600499342105372  0.9483914373934399  1.0000
  C   C35       1.0  0.3084681302830035  0.20662525890360672  0.9954845345659821  1.0000
  C   C36       1.0  0.23846547550015626  0.1751807112647654  0.09142817100830311  1.0000
  C   C37       1.0  0.17965783459418813  0.23661597551905095  0.09254270254350423  1.0000
  C   C38       1.0  0.20766141501532326  0.3082907479602211  0.9974126715790848  1.0000
  C   C39       1.0  0.3031587280762338  0.35988757704340196  0.948152031566025  1.0000
  C   C40       1.0  0.3627478453439536  0.29932087991282685  0.9484103896677709  1.0000
  C   C41       1.0  0.8558896346191248  0.7932835714485336  0.9444963479875597  1.0000
  C   C42       1.0  0.796305051281756  0.8542232772800346  0.9444757719393168  1.0000
  C   C43       1.0  0.7007765425836825  0.8032319952506343  0.9893290923829597  1.0000
  C   C44       1.0  0.6706092541361315  0.7299516847433125  0.08440186435775132  1.0000
  C   C45       1.0  0.7296443960455008  0.6688316585242192  0.08376786881436263  1.0000
  C   C46       1.0  0.8013800806444562  0.7008101509189971  0.9882865100538539  1.0000
  C   C47       1.0  0.758444333159133  0.7041543580908679  0.9371783369362562  1.0000
  C   C48       1.0  0.698382351317086  0.7642716047422697  0.9383624280438525  1.0000
  C   C49       1.0  0.23189207002697293  0.7863822705992048  0.9203401679863675  1.0000
  C   C50       1.0  0.29251780815449274  0.848860462952743  0.9173924705021435  1.0000
  C   C51       1.0  0.2984614242380276  0.8010159372614964  0.0008778800377271986  1.0000
  C   C52       1.0  0.3353040052347537  0.7246531374880192  0.003826207238667201  1.0000
  C   C53       1.0  0.2740890834732852  0.66188594677471  0.0075837870339370015  1.0000
  C   C54       1.0  0.19594135485198183  0.6959030645856786  0.005971787077442104  1.0000
  C   C55       1.0  0.14538086430930258  0.7040616599626688  0.08540973140701881  1.0000
  C   C56       1.0  0.20626572889702993  0.7661996158617442  0.08251908218331748  1.0000
  C   C57       1.0  0.8560672331675434  0.30105778083275686  0.9082148120098807  1.0000
  C   C58       1.0  0.7980114888208047  0.2358421985875409  0.9115100706328789  1.0000
  C   C59       1.0  0.7050127658898971  0.1985843698080315  0.9940652538038749  1.0000
  C   C60       1.0  0.6668047027377921  0.27467013771845905  0.9902258394180097  1.0000
  C   C61       1.0  0.7245867004593693  0.337228720281921  0.9899001692198722  1.0000
  C   C62       1.0  0.8038806761501504  0.30559589565040546  0.9906300718878004  1.0000
  C   C63       1.0  0.7715403205702954  0.21448126866521022  0.073421422871931  1.0000
  C   C64       1.0  0.7111392411637565  0.1517078808694734  0.0766325056832429  1.0000
  O   O1        1.0  0.0025668381038526956  0.5054568423811004  0.9911902349087854  1.0000
  O   O2        1.0  0.17743748980090143  0.6186484737260188  0.9465270566902646  1.0000
  O   O3        1.0  0.8923361485122214  0.4537823007614604  0.19505067857602404  1.0000
  O   O4        1.0  0.06514738292583637  0.32765883496242754  0.04309777804973441  1.0000
  O   O5        1.0  0.056107326348872284  0.6135401703662425  0.057922735753841395  1.0000
  O   O6        1.0  0.18139580325466656  0.44689170583436766  0.9526441322910914  1.0000
  O   O7        1.0  0.9027045591048903  0.3342452383610421  0.18858068792332724  1.0000
  O   O8        1.0  0.8942597630999953  0.33349795199560356  0.03693792614033952  1.0000
  O   O9        1.0  0.05266786009627112  0.6085134643085509  0.7879063790811642  1.0000
  O   O10       1.0  0.8815097539947132  0.44847517302769546  0.9325405083032835  1.0000
  O   O11       1.0  0.17452467934078436  0.6047796473812281  0.7972697340395812  1.0000
  O   O12       1.0  0.8882273257746435  0.6240857685778495  0.04163775723070269  1.0000
  O   O13       1.0  0.8831035822029916  0.6190858934824205  0.9343878165203494  1.0000
  O   O14       1.0  0.504806532076472  0.0027995677225758873  0.9918543867406272  1.0000
  O   O15       1.0  0.32623738673102304  0.0661302788675826  0.034875091881986  1.0000
  O   O16       1.0  0.5936296185006354  0.17331142588128742  0.7945063309283641  1.0000
  O   O17       1.0  0.4407488873401134  0.8875189969286766  0.9365702264373682  1.0000
  O   O18       1.0  0.44753075744853976  0.1778586675988263  0.9546657727197713  1.0000
  O   O19       1.0  0.3254640169363866  0.8894687345513362  0.04715951317862022  1.0000
  O   O20       1.0  0.604462599707162  0.05364952132465098  0.7882274218510973  1.0000
  O   O21       1.0  0.6173754247704156  0.8881030128173535  0.9359318733858899  1.0000
  O   O22       1.0  0.4603514662069939  0.8943640023438068  0.19495682929088082  1.0000
  O   O23       1.0  0.6277516702771848  0.8882437114451351  0.043009352698462094  1.0000
  O   O24       1.0  0.338097471005632  0.909948277450255  0.18729580867574916  1.0000
  O   O25       1.0  0.6326704181402076  0.17512699713213187  0.9304369618670308  1.0000
  O   O26       1.0  0.6227074096674129  0.05832931794856219  0.050606113506596315  1.0000
  O   O27       1.0  0.4266409410577623  0.7512716731770085  0.49499834164345213  1.0000
  O   O28       1.0  0.08752255135375711  0.7558336491060372  0.48927640001588923  1.0000
  O   O29       1.0  0.7517210396553081  0.08556383417081277  0.4954101169762098  1.0000
  O   O30       1.0  0.7518086912112948  0.4220743515859411  0.48736874199705943  1.0000
