data_image0
_chemical_formula_structural       Dy2Ag2H16C24N8O20
_chemical_formula_sum              "Dy2 Ag2 H16 C24 N8 O20"
_cell_length_a       6.746580513699165
_cell_length_b       9.26728250556162
_cell_length_c       15.025159149152307
_cell_angle_alpha    95.23409465688047
_cell_angle_beta     107.88189892428213
_cell_angle_gamma    103.79130326897979

_space_group_name_H-M_alt    "P 1"
_space_group_IT_number       1

loop_
  _space_group_symop_operation_xyz
  'x, y, z'

loop_
  _atom_site_type_symbol
  _atom_site_label
  _atom_site_symmetry_multiplicity
  _atom_site_fract_x
  _atom_site_fract_y
  _atom_site_fract_z
  _atom_site_occupancy
  Dy  Dy1       1.0  0.0905166607653102  0.5104944275286983  0.2728277209149752  1.0000
  Dy  Dy2       1.0  0.9094797257761229  0.4895053734499442  0.7271715688013883  1.0000
  Ag  Ag1       1.0  0.40716565893099244  0.1763938918321983  0.19904024443678742  1.0000
  Ag  Ag2       1.0  0.592851321823808  0.8236032334526584  0.8009611761826534  1.0000
  H   H1        1.0  0.6740180067030722  0.7285840647402752  0.16013938660479715  1.0000
  H   H2        1.0  0.3259876193398696  0.27142235168540196  0.8398621789384819  1.0000
  H   H3        1.0  0.5917006108630646  0.657537437532085  0.9828356597739187  1.0000
  H   H4        1.0  0.4083175701703468  0.34246863743689454  0.017169313177831207  1.0000
  H   H5        1.0  0.5680187687407425  0.0466139534240355  0.3842664988440845  1.0000
  H   H6        1.0  0.431960180320381  0.9533884293958935  0.6157316798838154  1.0000
  H   H7        1.0  0.7273347353233176  0.1377258299453175  0.5622536935016527  1.0000
  H   H8        1.0  0.2726659335686534  0.8622672558066782  0.4377415236285458  1.0000
  H   H9        1.0  0.04871686918112764  0.6131758824176927  0.0815573164388894  1.0000
  H   H10       1.0  0.9512651892765405  0.3868311869717899  0.9184376081197528  1.0000
  H   H11       1.0  0.9012182848552115  0.4449654244027812  0.06837148309341498  1.0000
  H   H12       1.0  0.09877211546476869  0.5550323797917187  0.9316236211267821  1.0000
  H   H13       1.0  0.41283485409950765  0.7613971841047373  0.2921540864655725  1.0000
  H   H14       1.0  0.5871586130553439  0.238610052860345  0.7078574942116022  1.0000
  H   H15       1.0  0.23315864906900433  0.8208277036281829  0.22194149970884075  1.0000
  H   H16       1.0  0.7668488032071751  0.1791799129076921  0.7780583742913549  1.0000
  C   C1        1.0  0.698990191248612  0.8148724193127778  0.11663592216937256  1.0000
  C   C2        1.0  0.3010219206786431  0.18513712209682612  0.8833699802446873  1.0000
  C   C3        1.0  0.6545369652932751  0.7749307186418337  0.01891825822295356  1.0000
  C   C4        1.0  0.3454869536721786  0.22507544024880125  0.9810833765580115  1.0000
  C   C5        1.0  0.7647128225791491  0.0261418553526696  0.008752685335437617  1.0000
  C   C6        1.0  0.23531001145652647  0.9738519053515517  0.9912457890716836  1.0000
  C   C7        1.0  0.8097618148718838  0.06418235205154589  0.10690711984707242  1.0000
  C   C8        1.0  0.19026989774643957  0.935835164751097  0.8930936873446385  1.0000
  C   C9        1.0  0.9051119848231863  0.22440950501540868  0.15987724826121053  1.0000
  C   C10       1.0  0.09491266450278595  0.7755908850704499  0.8401253218112998  1.0000
  C   C11       1.0  0.7998918764892623  0.14196937591587752  0.946245098021528  1.0000
  C   C12       1.0  0.2001252332766725  0.8580344766068608  0.053758899930983345  1.0000
  C   C13       1.0  0.6164564995606625  0.16623648188937784  0.41459649448039226  1.0000
  C   C14       1.0  0.3835276385591655  0.8337553637149567  0.5854053983698436  1.0000
  C   C15       1.0  0.7028972815123637  0.2158474797957197  0.5126552904557755  1.0000
  C   C16       1.0  0.29708741062033533  0.7841366501880174  0.4873406862690715  1.0000
  C   C17       1.0  0.7341535487925411  0.46121523938060704  0.4895497387032108  1.0000
  C   C18       1.0  0.26582976241977013  0.5387776625131054  0.5104541484393437  1.0000
  C   C19       1.0  0.6521183751199331  0.4116862686066228  0.3908998107092216  1.0000
  C   C20       1.0  0.3478579751504469  0.5883071265721043  0.6090959863540704  1.0000
  C   C21       1.0  0.6345136240015847  0.5211428142230049  0.3216015400600654  1.0000
  C   C22       1.0  0.3654784231199316  0.47885694079106866  0.6783999171593891  1.0000
  C   C23       1.0  0.7985116719136656  0.6271699454113602  0.5336381517657927  1.0000
  C   C24       1.0  0.2014725154166471  0.3728313931304329  0.46635653741670785  1.0000
  N   N1        1.0  0.7727422219649895  0.9590303681796049  0.1604415112489833  1.0000
  N   N2        1.0  0.2272777379651387  0.04098168732164001  0.8395574960758055  1.0000
  N   N3        1.0  0.6846070477062369  0.8802644799131728  0.9656530623436268  1.0000
  N   N4        1.0  0.3154178608520794  0.11973239376374069  0.0343512441873557  1.0000
  N   N5        1.0  0.589182402574508  0.26319679151821873  0.3536565717162858  1.0000
  N   N6        1.0  0.41079322126479667  0.7368010065921525  0.646342844430862  1.0000
  N   N7        1.0  0.7577205990473176  0.3626118810875596  0.5496998583717669  1.0000
  N   N8        1.0  0.24226760831714245  0.6373889561617292  0.4503039177253855  1.0000
  O   O1        1.0  0.1077364044712183  0.2865380305752083  0.1816957818584726  1.0000
  O   O2        1.0  0.892271136493072  0.7134770302222933  0.8182920538070418  1.0000
  O   O3        1.0  0.7843933950330781  0.2942518238892547  0.18442162561302675  1.0000
  O   O4        1.0  0.21563929351579242  0.7057462319595159  0.815579667954097  1.0000
  O   O5        1.0  0.835581615861571  0.2801254121163765  0.9797915645840263  1.0000
  O   O6        1.0  0.1643885608967679  0.7198694687338119  0.020198982774630326  1.0000
  O   O7        1.0  0.7928815063896623  0.09224084990391651  0.8635005219494474  1.0000
  O   O8        1.0  0.20714287004166465  0.9077528808507154  0.13649812628998603  1.0000
  O   O9        1.0  0.4550256614550533  0.5508412036108437  0.2890557018651592  1.0000
  O   O10       1.0  0.5449733387495002  0.44916078986445035  0.710944736682741  1.0000
  O   O11       1.0  0.796673447317076  0.5684579653859744  0.29588776387956284  1.0000
  O   O12       1.0  0.20332103524594913  0.43152776194940407  0.7041194685060789  1.0000
  O   O13       1.0  0.7677950652782286  0.7199052473754364  0.4798466801155854  1.0000
  O   O14       1.0  0.2321951231459209  0.2800912928059489  0.5201509617300104  1.0000
  O   O15       1.0  0.8794182031958472  0.6540896409840968  0.6251080747006484  1.0000
  O   O16       1.0  0.12057530071725604  0.3458999422935562  0.3748906987264959  1.0000
  O   O17       1.0  0.9637494089674518  0.5425391947463466  0.11262287521828539  1.0000
  O   O18       1.0  0.036232628814417536  0.4574617623012926  0.8873802055496398  1.0000
  O   O19       1.0  0.26639211385079886  0.7719650842820373  0.2806714903902048  1.0000
  O   O20       1.0  0.7335946910720851  0.22803708088328994  0.7193289019992335  1.0000
