data_image0
_chemical_formula_structural       Ag4H28C28S4O28
_chemical_formula_sum              "Ag4 H28 C28 S4 O28"
_cell_length_a       7.735749622658021
_cell_length_b       10.903281513297152
_cell_length_c       11.783257866180753
_cell_angle_alpha    103.22412074981737
_cell_angle_beta     89.98897978070397
_cell_angle_gamma    110.77924863684947

_space_group_name_H-M_alt    "P 1"
_space_group_IT_number       1

loop_
  _space_group_symop_operation_xyz
  'x, y, z'

loop_
  _atom_site_type_symbol
  _atom_site_label
  _atom_site_symmetry_multiplicity
  _atom_site_fract_x
  _atom_site_fract_y
  _atom_site_fract_z
  _atom_site_occupancy
  Ag  Ag1       1.0  0.8097316445925744  0.9712387235785799  0.5887007041198303  1.0000
  Ag  Ag2       1.0  0.838505774811388  0.0288618888438918  0.9112416328327058  1.0000
  Ag  Ag3       1.0  0.19026730159905716  0.028759969885548704  0.41129778691573193  1.0000
  Ag  Ag4       1.0  0.16149497232893154  0.9711378216387632  0.08875876841393195  1.0000
  H   H1        1.0  0.9679393698831973  0.21708283945945078  0.4371292588011644  1.0000
  H   H2        1.0  0.7508741539083985  0.7829224876290367  0.0627578182106774  1.0000
  H   H3        1.0  0.032060083352348674  0.7829168683653194  0.5628702933062543  1.0000
  H   H4        1.0  0.24912838933608583  0.21707822919322686  0.9372410963520824  1.0000
  H   H5        1.0  0.3282013382606267  0.7634376532602759  0.411689005004945  1.0000
  H   H6        1.0  0.5645061961912815  0.23654728103215922  0.08836250022146432  1.0000
  H   H7        1.0  0.6717989030469055  0.2365610455314666  0.5883111843935681  1.0000
  H   H8        1.0  0.435496348264337  0.7634534384598339  0.9116372635650338  1.0000
  H   H9        1.0  0.6576196540104106  0.1552343162793619  0.7427914213015968  1.0000
  H   H10       1.0  0.5025274225786235  0.8448263229197295  0.7571955878345237  1.0000
  H   H11       1.0  0.3423805872971144  0.8447643825123875  0.2572087680969162  1.0000
  H   H12       1.0  0.4974746160442082  0.15517338488135127  0.24280396410384955  1.0000
  H   H13       1.0  0.4895515910731875  0.0827624395988522  0.6454233610341831  1.0000
  H   H14       1.0  0.4069021455787336  0.9173329364663162  0.8545706861424807  1.0000
  H   H15       1.0  0.5104481431904234  0.9172352448322556  0.3545757672924595  1.0000
  H   H16       1.0  0.5930993884224378  0.0826657623135816  0.1454295031715063  1.0000
  H   H17       1.0  0.11964151680048479  0.44542813961130195  0.4483011148359496  1.0000
  H   H18       1.0  0.6739233641177194  0.5546025645767045  0.0515549510306741  1.0000
  H   H19       1.0  0.8803592315509616  0.5545715735410894  0.5517001356344267  1.0000
  H   H20       1.0  0.32607681612196165  0.44540118201435064  0.9484429008825688  1.0000
  H   H21       1.0  0.5792885185312358  0.6582874045061402  0.7130519175067465  1.0000
  H   H22       1.0  0.9209646366181018  0.3415885339846553  0.7870403128807624  1.0000
  H   H23       1.0  0.42071172398742357  0.3417112969553386  0.28694912111549803  1.0000
  H   H24       1.0  0.07903532608362708  0.6584121935402223  0.21296199874599617  1.0000
  H   H25       1.0  0.5096945999972463  0.44941294904079865  0.7855937232717597  1.0000
  H   H26       1.0  0.0606894405815695  0.550464395164255  0.7145476353257508  1.0000
  H   H27       1.0  0.49030564009915883  0.5505857470812217  0.21440561690301516  1.0000
  H   H28       1.0  0.939312093419595  0.44953430361564983  0.285452553988229  1.0000
  C   C1        1.0  0.2770565758738783  0.3320858643710878  0.6584940111080756  1.0000
  C   C2        1.0  0.9451510180103212  0.6678518738200693  0.8414896283424299  1.0000
  C   C3        1.0  0.7229454627489461  0.667913843429993  0.34150554083029766  1.0000
  C   C4        1.0  0.054850232540530966  0.3321488430140392  0.15850928630485586  1.0000
  C   C5        1.0  0.16800476664987943  0.32791635432453603  0.5607305651354154  1.0000
  C   C6        1.0  0.8400048391859015  0.6720260077079274  0.939148824552234  1.0000
  C   C7        1.0  0.8319959804904401  0.6720833561581188  0.4392698361112224  1.0000
  C   C8        1.0  0.159996131548013  0.3279767351895728  0.06085136309957312  1.0000
  C   C9        1.0  0.20427039299482172  0.4463488581274504  0.5224055682744507  1.0000
  C   C10       1.0  0.7577052537090126  0.5536019872034714  0.9774683358347576  1.0000
  C   C11       1.0  0.7957303541454975  0.5536508523552115  0.47759483297218713  1.0000
  C   C12       1.0  0.24229751434020136  0.4464017647033602  0.022531214356909943  1.0000
  C   C13       1.0  0.3494441694479136  0.5653665259294272  0.579192341620079  1.0000
  C   C14       1.0  0.7838155435833727  0.43454055786585855  0.9207565766637277  1.0000
  C   C15       1.0  0.6505565776924057  0.4346331845532276  0.42080805962655193  1.0000
  C   C16       1.0  0.21618542593941475  0.5654621823619125  0.07924276176434121  1.0000
  C   C17       1.0  0.4619981055821471  0.566807777199472  0.6729470892299859  1.0000
  C   C18       1.0  0.8951420298349149  0.4330793972512764  0.827095473695373  1.0000
  C   C19       1.0  0.538000843031746  0.4331909216041154  0.3270531002530533  1.0000
  C   C20       1.0  0.1048584362773469  0.5669223366250408  0.17290535133204096  1.0000
  C   C21       1.0  0.4244437235619928  0.45016481217868426  0.7125601173886481  1.0000
  C   C22       1.0  0.9745505811747252  0.5497413451784467  0.7875295926150231  1.0000
  C   C23       1.0  0.5755557308846806  0.5498348983158152  0.287440283942516  1.0000
  C   C24       1.0  0.02544937789360799  0.4502593743372358  0.21247017134052731  1.0000
  C   C25       1.0  0.38880903422719376  0.6926394684958197  0.5408753171999976  1.0000
  C   C26       1.0  0.6956828333402284  0.30731265147555575  0.9591098909440279  1.0000
  C   C27       1.0  0.61118912631472  0.3073602393407953  0.45912423499195404  1.0000
  C   C28       1.0  0.304316845911181  0.6926900941035186  0.04089114601604394  1.0000
  S   S1        1.0  0.2241464524399674  0.18651350887920162  0.714852051573125  1.0000
  S   S2        1.0  0.03757505885491967  0.813444958886713  0.7851298458095926  1.0000
  S   S3        1.0  0.7758537876564375  0.8134851872428115  0.28514728860164956  1.0000
  S   S4        1.0  0.9624256858631454  0.1865547462564834  0.2148688569895683  1.0000
  O   O1        1.0  0.028112383982687634  0.14889947518562963  0.7404404328639843  1.0000
  O   O2        1.0  0.8789906374644332  0.8508184782473192  0.7594857754250911  1.0000
  O   O3        1.0  0.9718860563761569  0.851098206587594  0.2595578463234532  1.0000
  O   O4        1.0  0.12100909679917753  0.1491792061837884  0.2405133529015516  1.0000
  O   O5        1.0  0.2573863578591187  0.079542358666572  0.6248379108036204  1.0000
  O   O6        1.0  0.17750566447136157  0.9205360033693424  0.8751827165810725  1.0000
  O   O7        1.0  0.7426097829850279  0.9204533104155956  0.3751633416670402  1.0000
  O   O8        1.0  0.8224937887641915  0.0794637044554278  0.12481683552635303  1.0000
  O   O9        1.0  0.3519553956294034  0.22902308393064896  0.8209689737852629  1.0000
  O   O10       1.0  0.12311274109710993  0.7710791533214946  0.6790422225884428  1.0000
  O   O11       1.0  0.6480430447294412  0.7709745978425744  0.17902930540216747  1.0000
  O   O12       1.0  0.876888003620948  0.2289205518217017  0.3209564802107181  1.0000
  O   O13       1.0  0.03331165790203981  0.20866859285400352  0.5076451869235897  1.0000
  O   O14       1.0  0.8246022818069889  0.7913144857079429  0.9922157639270852  1.0000
  O   O15       1.0  0.9666877965446404  0.7913311176404961  0.4923552144075743  1.0000
  O   O16       1.0  0.1753999816205649  0.20868825717771242  0.007784423640188707  1.0000
  O   O17       1.0  0.2949479665900372  0.677048153417431  0.44180341157078834  1.0000
  O   O18       1.0  0.6175968092820484  0.322953829983966  0.0582605892089489  1.0000
  O   O19       1.0  0.7050522735063609  0.3229505427045822  0.5581959286039793  1.0000
  O   O20       1.0  0.3824031509974191  0.6770468922014388  0.9417400239703398  1.0000
  O   O21       1.0  0.5006948650914256  0.803307729776961  0.5990717561799601  1.0000
  O   O22       1.0  0.6966923245749684  0.19657456587061972  0.9008933605170811  1.0000
  O   O23       1.0  0.4992978400144778  0.19669399349150038  0.4009256724596568  1.0000
  O   O24       1.0  0.3033099400637198  0.8034281796847651  0.09910767627393113  1.0000
  O   O25       1.0  0.6270961829165459  0.12137221016343601  0.656611949050273  1.0000
  O   O26       1.0  0.5057984864777795  0.8786967536030305  0.843372592542764  1.0000
  O   O27       1.0  0.37290327031900733  0.8786274976613343  0.34338760305715255  1.0000
  O   O28       1.0  0.4942012489969656  0.12130093349780681  0.15662738500761722  1.0000
