data_image0
_chemical_formula_structural       Ag4H12C16S4N12O12F12
_chemical_formula_sum              "Ag4 H12 C16 S4 N12 O12 F12"
_cell_length_a       8.17040141801273
_cell_length_b       9.207350696030645
_cell_length_c       11.924083992039016
_cell_angle_alpha    90.0002576825809
_cell_angle_beta     89.99985511825152
_cell_angle_gamma    90.00014045134914

_space_group_name_H-M_alt    "P 1"
_space_group_IT_number       1

loop_
  _space_group_symop_operation_xyz
  'x, y, z'

loop_
  _atom_site_type_symbol
  _atom_site_label
  _atom_site_symmetry_multiplicity
  _atom_site_fract_x
  _atom_site_fract_y
  _atom_site_fract_z
  _atom_site_occupancy
  Ag  Ag1       1.0  0.7132608604145645  0.8814141129400428  0.817075014626411  1.0000
  Ag  Ag2       1.0  0.21326173294718126  0.38141593239065213  0.6829233837720776  1.0000
  Ag  Ag3       1.0  0.21326229624698803  0.11858536012744737  0.18292476681613573  1.0000
  Ag  Ag4       1.0  0.7132614237220665  0.6185846267559326  0.31707304311700557  1.0000
  H   H1        1.0  0.7505813195599201  0.8067219875462113  0.554146478451969  1.0000
  H   H2        1.0  0.25057754858227094  0.3067253207592699  0.9458499157342215  1.0000
  H   H3        1.0  0.2505746450665995  0.19327973940491452  0.4458532384329884  1.0000
  H   H4        1.0  0.750579639978845  0.6932785783682716  0.054148962514645384  1.0000
  H   H5        1.0  0.41575624541072637  0.6579770214229298  0.7921270512539277  1.0000
  H   H6        1.0  0.9157605239897179  0.15797899318254588  0.7078651800966181  1.0000
  H   H7        1.0  0.9157580286727977  0.34202072282671736  0.20786734801254875  1.0000
  H   H8        1.0  0.4157586458123673  0.8420220093483692  0.2921325737267181  1.0000
  H   H9        1.0  0.4311058808700848  0.4711764650862304  0.4756915017369109  1.0000
  H   H10       1.0  0.9311024185690043  0.9711794765811705  0.0243021380329722  1.0000
  H   H11       1.0  0.9310972158485881  0.5288223988567607  0.5243053869005079  1.0000
  H   H12       1.0  0.4310994542165573  0.028818301274149895  0.9756955892424412  1.0000
  C   C1        1.0  0.47205349883633113  0.6502547545192526  0.7096133132516016  1.0000
  C   C2        1.0  0.972055024600344  0.15025828743248582  0.7903813094938597  1.0000
  C   C3        1.0  0.9720525504705433  0.3497420269139652  0.2903843431703662  1.0000
  C   C4        1.0  0.47205714436131524  0.8497428383648397  0.20961718556928585  1.0000
  C   C5        1.0  0.6531722490203007  0.7326235479441932  0.5791395473645052  1.0000
  C   C6        1.0  0.15317346613333166  0.23262673726603103  0.9208559164195972  1.0000
  C   C7        1.0  0.15317076596215168  0.26737579355067703  0.42085949940152273  1.0000
  C   C8        1.0  0.6531719967154074  0.7673736903130217  0.07914061442968287  1.0000
  C   C9        1.0  0.47663975035278117  0.5508510713561705  0.5353976560562754  1.0000
  C   C10       1.0  0.9766406322532359  0.05085343511181148  0.9645966095753875  1.0000
  C   C11       1.0  0.9766359830649661  0.4491489783772023  0.4645983151614529  1.0000
  C   C12       1.0  0.4766363250838025  0.949145528548641  0.03540439347243309  1.0000
  C   C13       1.0  0.6301765005317037  0.13869547801066767  0.4359107507055524  1.0000
  C   C14       1.0  0.13017061688114498  0.6386987098805575  0.06409482137746637  1.0000
  C   C15       1.0  0.1301736701841349  0.8613038131348033  0.5640891744856089  1.0000
  C   C16       1.0  0.6301734341825379  0.36130492562527644  0.9359092970208348  1.0000
  S   S1        1.0  0.6062839522460663  0.1888308278824411  0.5864247270948793  1.0000
  S   S2        1.0  0.10628412055280018  0.6888328136055717  0.9135798890056105  1.0000
  S   S3        1.0  0.10628276450253078  0.8111662387782272  0.4135769167054234  1.0000
  S   S4        1.0  0.6062838201318781  0.3111675113202707  0.08642091616051317  1.0000
  N   N1        1.0  0.5979103945269555  0.7385147379544462  0.6851376847688683  1.0000
  N   N2        1.0  0.0979107794575569  0.23851948918414215  0.8148578953220064  1.0000
  N   N3        1.0  0.09790806311699639  0.26148339644974067  0.3148606189661151  1.0000
  N   N4        1.0  0.5979089021239189  0.7614840756651302  0.18514040842146062  1.0000
  N   N5        1.0  0.5955998194703794  0.859279320043548  0.0015776350021780995  1.0000
  N   N6        1.0  0.09559218240629257  0.35928186984036603  0.4984254171971826  1.0000
  N   N7        1.0  0.09559707821968288  0.14071989539223037  0.998421511371461  1.0000
  N   N8        1.0  0.5955973716988652  0.640714087321129  0.5015737291770888  1.0000
  N   N9        1.0  0.9088253079253192  0.054066803484950285  0.8624689128898947  1.0000
  N   N10       1.0  0.4088240485825238  0.5540639416260688  0.637525481356995  1.0000
  N   N11       1.0  0.40882183843026343  0.9459330977752953  0.13753053020926836  1.0000
  N   N12       1.0  0.9088206499115471  0.4459327013604194  0.36247228446087104  1.0000
  O   O1        1.0  0.6985084737206007  0.3240652990119414  0.5966965333822072  1.0000
  O   O2        1.0  0.19850745606048284  0.8240672255938151  0.9033075595628117  1.0000
  O   O3        1.0  0.19850695281797928  0.6759341417584749  0.40330578950265294  1.0000
  O   O4        1.0  0.698505522622483  0.17593438734900246  0.09669392468914136  1.0000
  O   O5        1.0  0.6780402476377033  0.0643957116493752  0.64387204583641  1.0000
  O   O6        1.0  0.1780467479095478  0.5643973666307147  0.8561311703667013  1.0000
  O   O7        1.0  0.1780347179765869  0.9356058564803571  0.3561311511068153  1.0000
  O   O8        1.0  0.6780441287957472  0.4356031154252733  0.14387118792200934  1.0000
  O   O9        1.0  0.42885203213421613  0.20265331691726365  0.5974622306702456  1.0000
  O   O10       1.0  0.9288545155517055  0.7026552477664365  0.9025360054319332  1.0000
  O   O11       1.0  0.9288518976284053  0.7973488003881286  0.40254220961450204  1.0000
  O   O12       1.0  0.4288530860119835  0.2973468695260805  0.09746256437774284  1.0000
  F   F1        1.0  0.7897464144383762  0.12284953615388618  0.40752936912083004  1.0000
  F   F2        1.0  0.28974042590502336  0.6228540175035346  0.09247251667289189  1.0000
  F   F3        1.0  0.28974229875021956  0.8771490182949572  0.5924727959128615  1.0000
  F   F4        1.0  0.7897421676435811  0.3771532256510212  0.9075304870202029  1.0000
  F   F5        1.0  0.5528019549905281  0.011146153138142299  0.4138317488028774  1.0000
  F   F6        1.0  0.05279109402906809  0.5111495121062929  0.08616931591168248  1.0000
  F   F7        1.0  0.05280061699259159  0.9888529686152552  0.5861758580029103  1.0000
  F   F8        1.0  0.5527931190167905  0.4888517817876019  0.913832420441899  1.0000
  F   F9        1.0  0.5637051261847005  0.24228961250770445  0.3678629958155141  1.0000
  F   F10       1.0  0.06369899105188638  0.7422964944152993  0.13214137789682914  1.0000
  F   F11       1.0  0.06370910362099379  0.7577051887598998  0.6321412375590041  1.0000
  F   F12       1.0  0.5637066712553391  0.2577048233705951  0.8678611782188594  1.0000
