data_image0
_chemical_formula_structural       Cu4H16C28N4O20
_chemical_formula_sum              "Cu4 H16 C28 N4 O20"
_cell_length_a       7.506809833011982
_cell_length_b       10.666565406668761
_cell_length_c       10.236135004374042
_cell_angle_alpha    108.99349130938977
_cell_angle_beta     111.41199403854708
_cell_angle_gamma    89.99720668043247

_space_group_name_H-M_alt    "P 1"
_space_group_IT_number       1

loop_
  _space_group_symop_operation_xyz
  'x, y, z'

loop_
  _atom_site_type_symbol
  _atom_site_label
  _atom_site_symmetry_multiplicity
  _atom_site_fract_x
  _atom_site_fract_y
  _atom_site_fract_z
  _atom_site_occupancy
  Cu  Cu1       1.0  0.7353045550309573  0.40507610982700737  0.2652465510347711  1.0000
  Cu  Cu2       1.0  0.47120742994756176  0.09485021960326631  0.7351455795946722  1.0000
  Cu  Cu3       1.0  0.26366593784297976  0.5949090915164703  0.7346537938535536  1.0000
  Cu  Cu4       1.0  0.5297097900229277  0.9051317987341537  0.26481025997483  1.0000
  H   H1        1.0  0.7868935805290178  0.4621607225595739  0.7341360707442208  1.0000
  H   H2        1.0  0.05177878051332391  0.037543352702663006  0.2660133875714409  1.0000
  H   H3        1.0  0.21331388061411613  0.5378685687475269  0.2660589190029867  1.0000
  H   H4        1.0  0.948248674948445  0.9624502690695497  0.7341379842902428  1.0000
  H   H5        1.0  0.7037089932797752  0.6461869231522641  0.9207328040177886  1.0000
  H   H6        1.0  0.783204798387054  0.853402736879602  0.07937976165947466  1.0000
  H   H7        1.0  0.2962380123121662  0.35377262056120173  0.07944608052519445  1.0000
  H   H8        1.0  0.2170633325066476  0.1465576642723505  0.9207966473533351  1.0000
  H   H9        1.0  0.7786988525917806  0.4966992068126999  0.5306752796759684  1.0000
  H   H10       1.0  0.24914149898287263  0.003440195960834601  0.46997029494141895  1.0000
  H   H11       1.0  0.2193463257155273  0.5032996368923507  0.4690732384622935  1.0000
  H   H12       1.0  0.752471983694619  0.9965726227343554  0.5298640323149045  1.0000
  H   H13       1.0  0.5706559350443641  0.39273845659825923  0.4329217028570513  1.0000
  H   H14       1.0  0.13942082040654213  0.10772624172408031  0.5684964750810055  1.0000
  H   H15       1.0  0.42736441141844506  0.6072868910497891  0.5664647406563008  1.0000
  H   H16       1.0  0.8618982124038936  0.8924032980937117  0.4309264869613331  1.0000
  C   C1        1.0  0.8046753914716122  0.31311504907957755  0.9840483383312207  1.0000
  C   C2        1.0  0.8205691557987577  0.18651696933724796  0.01605513467683301  1.0000
  C   C3        1.0  0.1952773008730517  0.6867851132060993  0.016005888656437126  1.0000
  C   C4        1.0  0.17952114643036768  0.8133894245772808  0.9840128611348721  1.0000
  C   C5        1.0  0.8095184249852281  0.32550582048588694  0.8524131697062105  1.0000
  C   C6        1.0  0.9564138795113807  0.17417319056085742  0.14773362448099192  1.0000
  C   C7        1.0  0.1905360092874417  0.6744727468361236  0.1476871893037881  1.0000
  C   C8        1.0  0.04362249453096463  0.8258027160097966  0.8523804284791298  1.0000
  C   C9        1.0  0.7806871529070634  0.4491432497001144  0.8335383228622535  1.0000
  C   C10       1.0  0.946556420405834  0.0505383378470796  0.16661177237858749  1.0000
  C   C11       1.0  0.2193482742658617  0.5508450220628093  0.16659598236002893  1.0000
  C   C12       1.0  0.053542086798891816  0.9494477391010322  0.8335139370037512  1.0000
  C   C13       1.0  0.7391112938444735  0.5523782909390107  0.9382387145630774  1.0000
  C   C14       1.0  0.8008397088641815  0.9472184829402936  0.061839933968599464  1.0000
  C   C15       1.0  0.2608765402190656  0.44755264433039355  0.06186038324194243  1.0000
  C   C16       1.0  0.1993034889898055  0.0527044452326422  0.9382577307804215  1.0000
  C   C17       1.0  0.7317635797541512  0.531597024695536  0.06367398021325234  1.0000
  C   C18       1.0  0.6684315173736906  0.9679867682190139  0.9364274098155793  1.0000
  C   C19       1.0  0.2681806500421899  0.46825041700098796  0.9363739687712355  1.0000
  C   C20       1.0  0.3316849352910438  0.0318562519598302  0.0636024387981209  1.0000
  C   C21       1.0  0.8373964688595449  0.21145906675636186  0.7285647228931398  1.0000
  C   C22       1.0  0.10748438605093469  0.2882503080966998  0.2715620413638789  1.0000
  C   C23       1.0  0.1628661634501967  0.7887021645902054  0.2714995701400866  1.0000
  C   C24       1.0  0.8923256419879734  0.7118799415609802  0.7285310532139635  1.0000
  C   C25       1.0  0.6721760395543015  0.6291529032121305  0.17938208067234035  1.0000
  C   C26       1.0  0.4935973774546697  0.8704868791581505  0.8207518142364522  1.0000
  C   C27       1.0  0.32789041087361437  0.3707737323561561  0.8207032733036004  1.0000
  C   C28       1.0  0.506460715630908  0.1294245603122164  0.17931958494847325  1.0000
  N   N1        1.0  0.7679523789120923  0.41498214363394254  0.08558184920622129  1.0000
  N   N2        1.0  0.6827161474120728  0.08467359452413353  0.9145629014229117  1.0000
  N   N3        1.0  0.2318920383770617  0.5848733465941507  0.9144262804572209  1.0000
  N   N4        1.0  0.31748212217889454  0.9151900369994767  0.08545804224945641  1.0000
  O   O1        1.0  0.6995021300808376  0.11308743997335574  0.65478910950867  1.0000
  O   O2        1.0  0.04300116609808668  0.3866026972468505  0.3454163792451512  1.0000
  O   O3        1.0  0.30139001584079494  0.8866193158017812  0.34558305927293304  1.0000
  O   O4        1.0  0.9564610052735176  0.6131611654463286  0.6548339886106124  1.0000
  O   O5        1.0  0.9868435059967382  0.21983312674367994  0.7036150344135097  1.0000
  O   O6        1.0  0.2817391336892854  0.27996814215434546  0.2964808377278275  1.0000
  O   O7        1.0  0.01298670111127356  0.7808614946453146  0.2960362721014889  1.0000
  O   O8        1.0  0.7180960273729725  0.720602989517019  0.70332442651236  1.0000
  O   O9        1.0  0.6813824048517817  0.5964640444921657  0.29063265326236387  1.0000
  O   O10       1.0  0.391531948276139  0.9035916083979033  0.7099527808177089  1.0000
  O   O11       1.0  0.3191268673195538  0.40365104729627893  0.7096741425787699  1.0000
  O   O12       1.0  0.6083771926363114  0.09651193682336873  0.29031966647556134  1.0000
  O   O13       1.0  0.607156790447341  0.7310660305403688  0.15161011428880763  1.0000
  O   O14       1.0  0.45657510793638784  0.768153255290777  0.8479574239848237  1.0000
  O   O15       1.0  0.39265542896152544  0.26871842211568264  0.8483275756707588  1.0000
  O   O16       1.0  0.54354590763527  0.2316256710874285  0.15195867292505486  1.0000
  O   O17       1.0  0.7070041382909622  0.4089440434454446  0.4486693301258385  1.0000
  O   O18       1.0  0.2597296514038021  0.09126200677329173  0.5521571017427223  1.0000
  O   O19       1.0  0.29112211224084916  0.5911879870653819  0.5509599817405971  1.0000
  O   O20       1.0  0.7417297075581074  0.9088934946779615  0.4475367900213386  1.0000
