data_image0
_chemical_formula_structural       Cu2H16C8N4Cl4O8
_chemical_formula_sum              "Cu2 H16 C8 N4 Cl4 O8"
_cell_length_a       5.509354858259435
_cell_length_b       8.979087185228575
_cell_length_c       10.550111368875058
_cell_angle_alpha    114.30339103866199
_cell_angle_beta     89.99981402524496
_cell_angle_gamma    107.8612331798721

_space_group_name_H-M_alt    "P 1"
_space_group_IT_number       1

loop_
  _space_group_symop_operation_xyz
  'x, y, z'

loop_
  _atom_site_type_symbol
  _atom_site_label
  _atom_site_symmetry_multiplicity
  _atom_site_fract_x
  _atom_site_fract_y
  _atom_site_fract_z
  _atom_site_occupancy
  Cu  Cu1       1.0  0.5000023693697243  0.5000011638970463  3.66517338077415e-06  1.0000
  Cu  Cu2       1.0  3.7645919235315402e-06  0.4999963209010687  0.4999973171780779  1.0000
  H   H1        1.0  0.2836797996695424  0.46003355063497503  0.7642199822224638  1.0000
  H   H2        1.0  0.8236246413199025  0.539958372752274  0.7357468645497319  1.0000
  H   H3        1.0  0.7163262999892623  0.5399688871706587  0.2357797922712094  1.0000
  H   H4        1.0  0.17637626910747875  0.46003368482558216  0.26424737455120345  1.0000
  H   H5        1.0  0.18547930529481235  0.5961768544422552  0.8923250641260763  1.0000
  H   H6        1.0  0.5893733894099852  0.40375165942656105  0.6076186618548718  1.0000
  H   H7        1.0  0.8145225142367847  0.4038242832263493  0.10767804593383802  1.0000
  H   H8        1.0  0.41062881754845637  0.5962429916309872  0.3923793301847167  1.0000
  H   H9        1.0  0.2918453210208226  0.899746483739129  0.0946082538126731  1.0000
  H   H10       1.0  0.3919757506956642  0.10005919309397629  0.4052595136823029  1.0000
  H   H11       1.0  0.7081406804366565  0.10025205884818429  0.9053939463632756  1.0000
  H   H12       1.0  0.6080303489631406  0.8999432447116648  0.5947402608113705  1.0000
  H   H13       1.0  0.636966980924491  0.7786504357634313  0.8215251304137609  1.0000
  H   H14       1.0  0.8585312744261911  0.22148943471535887  0.6784838836121877  1.0000
  H   H15       1.0  0.3630293952423286  0.2213507057997504  0.17847229388382146  1.0000
  H   H16       1.0  0.14146886021534752  0.7785155941919157  0.32152343443795667  1.0000
  C   C1        1.0  0.16424028627123735  0.947760403997769  0.05432716663178642  1.0000
  C   C2        1.0  0.21638267014255055  0.05210844568529888  0.4455703065163234  1.0000
  C   C3        1.0  0.835724577383665  0.0522212714473014  0.9456653279316853  1.0000
  C   C4        1.0  0.7836166877561013  0.9478913987498102  0.5544257150934938  1.0000
  C   C5        1.0  0.7990665667378352  0.8788256457353613  0.8995801480961345  1.0000
  C   C6        1.0  0.9204124790728512  0.12126689895716677  0.6004286536264444  1.0000
  C   C7        1.0  0.20092474914099506  0.12116900427871259  0.10041973932543159  1.0000
  C   C8        1.0  0.07959750269701983  0.8787251502370241  0.3995779046536114  1.0000
  N   N1        1.0  0.962974734624744  0.8263300013189936  0.9539482703939156  1.0000
  N   N2        1.0  0.1367406316263313  0.1736724860908723  0.5459768063870527  1.0000
  N   N3        1.0  0.037029812816051305  0.17368022397479876  0.046052338972451395  1.0000
  N   N4        1.0  0.8632552253737483  0.8263312477265856  0.45402626613982733  1.0000
  Cl  Cl1       1.0  0.47119229779166705  0.2354964350470183  0.8301351864099684  1.0000
  Cl  Cl2       1.0  0.23567773329065744  0.7644463770871184  0.6698763179221315  1.0000
  Cl  Cl3       1.0  0.5288035582762587  0.7645072968777383  0.16987072902547598  1.0000
  Cl  Cl4       1.0  0.7643444416828159  0.2355482779864602  0.33011504046321244  1.0000
  O   O1        1.0  0.3294795135983718  0.5488595742795751  0.8644567705776465  1.0000
  O   O2        1.0  0.7806649447906436  0.4510258436128751  0.6355286463797611  1.0000
  O   O3        1.0  0.6705150465599274  0.4511415654272922  0.13554349664676824  1.0000
  O   O4        1.0  0.21933842789111685  0.5489675084602865  0.36447078589889503  1.0000
  O   O5        1.0  0.9255260650260766  0.6603515913993618  0.9106552421192118  1.0000
  O   O6        1.0  0.2654689555597898  0.33961531639742754  0.5892713000458869  1.0000
  O   O7        1.0  0.07448652880948713  0.3396819910569633  0.08935545282687228  1.0000
  O   O8        1.0  0.7345336438218764  0.6603910120523581  0.4107336300924728  1.0000
