data_image0
_chemical_formula_structural       Mg3H6C18O12
_chemical_formula_sum              "Mg3 H6 C18 O12"
_cell_length_a       7.789772006762579
_cell_length_b       7.780117088469523
_cell_length_c       7.784586785645463
_cell_angle_alpha    66.4558552587408
_cell_angle_beta     66.4773811328488
_cell_angle_gamma    66.45908930614215

_space_group_name_H-M_alt    "P 1"
_space_group_IT_number       1

loop_
  _space_group_symop_operation_xyz
  'x, y, z'

loop_
  _atom_site_type_symbol
  _atom_site_label
  _atom_site_symmetry_multiplicity
  _atom_site_fract_x
  _atom_site_fract_y
  _atom_site_fract_z
  _atom_site_occupancy
  Mg  Mg1       1.0  0.8384881825986169  0.8382035541034085  0.3385116785921626  1.0000
  Mg  Mg2       1.0  0.1615133018530486  0.1617930434728763  0.6614881242760049  1.0000
  Mg  Mg3       1.0  0.9999988707397307  0.9999974819495137  0.49999911169673794  1.0000
  H   H1        1.0  0.6996339656682053  0.1155208830445034  0.9134725845914533  1.0000
  H   H2        1.0  0.300364297892983  0.8844771699109518  0.0865266430946931  1.0000
  H   H3        1.0  0.11751167812901998  0.410901647603154  0.2001593489974667  1.0000
  H   H4        1.0  0.8824893872154432  0.5890964128975966  0.7998400343223294  1.0000
  H   H5        1.0  0.41324801196084576  0.6986726517538315  0.6180206718024903  1.0000
  H   H6        1.0  0.5867536203389107  0.30132834331805475  0.3819798734254293  1.0000
  C   C1        1.0  0.571655441637489  0.40340464998723047  0.7440210038721345  1.0000
  C   C2        1.0  0.4283442270934044  0.596593411690428  0.25598022481886323  1.0000
  C   C3        1.0  0.5692209465157771  0.2400800591919108  0.907907879881954  1.0000
  C   C4        1.0  0.43077731989745854  0.7599179970632477  0.0920926299295388  1.0000
  C   C5        1.0  0.404756300002198  0.24180627450791553  0.07183469011761902  1.0000
  C   C6        1.0  0.5952444969351941  0.7581976497126135  0.928166298138919  1.0000
  C   C7        1.0  0.24168797379035567  0.4058647010833312  0.06940231328547238  1.0000
  C   C8        1.0  0.7583112758333284  0.5941348235187932  0.9305984958571545  1.0000
  C   C9        1.0  0.24337513780445613  0.5701921675198421  0.9049697072201397  1.0000
  C   C10       1.0  0.7566263466472093  0.4298044300564499  0.09503009564802067  1.0000
  C   C11       1.0  0.40755524301334123  0.5678971773445839  0.7422142053348821  1.0000
  C   C12       1.0  0.5924468055415772  0.43210235150313986  0.2577854773160553  1.0000
  C   C13       1.0  0.7593046096667776  0.4174629971891477  0.586567846920751  1.0000
  C   C14       1.0  0.24069170050241687  0.582546761284817  0.41342746113260626  1.0000
  C   C15       1.0  0.4182401107984219  0.08434479795040771  0.25981014558109916  1.0000
  C   C16       1.0  0.5817703316981591  0.9156547403343963  0.740184875469403  1.0000
  C   C17       1.0  0.08589045454753831  0.7582745038815375  0.918547064951447  1.0000
  C   C18       1.0  0.9141044773516  0.24172064985364733  0.0814675128224848  1.0000
  O   O1        1.0  0.7759794705633353  0.5844348103777007  0.4829633521209119  1.0000
  O   O2        1.0  0.22402214300343093  0.4155515358823295  0.5170379498268218  1.0000
  O   O3        1.0  0.8989636762845092  0.2588397787020966  0.5716628091862148  1.0000
  O   O4        1.0  0.10103642010970043  0.7411568299502207  0.4283426854292003  1.0000
  O   O5        1.0  0.584724022301934  0.9800829401233669  0.2769373416930066  1.0000
  O   O6        1.0  0.41526754247939124  0.0199239005090064  0.7230674690672245  1.0000
  O   O7        1.0  0.25951953364541674  0.07026860612406689  0.3992697022630338  1.0000
  O   O8        1.0  0.7404818216911481  0.9297382427684796  0.6007286015255672  1.0000
  O   O9        1.0  0.9820888260279259  0.7749759083063168  0.08537195654349006  1.0000
  O   O10       1.0  0.017915588090829687  0.22502507121293994  0.9146197694406268  1.0000
  O   O11       1.0  0.07141476431479521  0.8980228008125197  0.7598980223205203  1.0000
  O   O12       1.0  0.928588680853707  0.10197672685829672  0.24009981495921562  1.0000
