data_image0
_chemical_formula_structural       Zn4H32C46I2N16O2
_chemical_formula_sum              "Zn4 H32 C46 I2 N16 O2"
_cell_length_a       14.827069073614583
_cell_length_b       14.670930206287647
_cell_length_c       15.465249876691686
_cell_angle_alpha    107.64711214064214
_cell_angle_beta     113.39901449363535
_cell_angle_gamma    105.70952519411965

_space_group_name_H-M_alt    "P 1"
_space_group_IT_number       1

loop_
  _space_group_symop_operation_xyz
  'x, y, z'

loop_
  _atom_site_type_symbol
  _atom_site_label
  _atom_site_symmetry_multiplicity
  _atom_site_fract_x
  _atom_site_fract_y
  _atom_site_fract_z
  _atom_site_occupancy
  Zn  Zn1       1.0  0.14535291468058623  0.5526259688253957  0.6197969026788002  1.0000
  Zn  Zn2       1.0  0.8578551378034405  0.32696366509421193  0.49314589723517344  1.0000
  Zn  Zn3       1.0  0.8656314626776335  0.48504647385573924  0.3763847246810527  1.0000
  Zn  Zn4       1.0  0.1340477377213175  0.6671035460989287  0.49366623221092715  1.0000
  H   H1        1.0  0.21637362433599347  0.5947265580873591  0.8582119118991969  1.0000
  H   H2        1.0  0.6019621964060135  0.833070585700291  0.9789524797929374  1.0000
  H   H3        1.0  0.7944422306805093  0.9915074913872743  0.02099156235567515  1.0000
  H   H4        1.0  0.09696368326822119  0.12153302446276366  0.732866924565279  1.0000
  H   H5        1.0  0.9086399479887035  0.405512062872063  0.8523239033023061  1.0000
  H   H6        1.0  0.9034427851890283  0.851147131319493  0.6400521518206831  1.0000
  H   H7        1.0  0.040366692284827296  0.6438413369632909  0.1140257953303205  1.0000
  H   H8        1.0  0.799894631815704  0.19183273449663565  0.633384660371604  1.0000
  H   H9        1.0  0.42168371025795176  0.42296350695661283  0.2531129855072082  1.0000
  H   H10       1.0  0.28142396233014466  0.4574670767732839  0.27400125212451343  1.0000
  H   H11       1.0  0.4391089750378824  0.33092185663519297  0.41002588686653507  1.0000
  H   H12       1.0  0.26321981497632396  0.2992212488286795  0.36632841897780827  1.0000
  H   H13       1.0  0.8268383588427283  0.6531345180336101  0.5213887537359625  1.0000
  H   H14       1.0  0.12280388509425659  0.734801302148689  0.31865991433917157  1.0000
  H   H15       1.0  0.6228264954556266  0.2926717188496184  0.47874305121859356  1.0000
  H   H16       1.0  0.15920741362682378  0.33425360337792404  0.48233952559625254  1.0000
  H   H17       1.0  0.3888170249231207  0.8914375403626377  0.6587867423561349  1.0000
  H   H18       1.0  0.8192520262876141  0.3214378769377006  0.15514883101290156  1.0000
  H   H19       1.0  0.6100187682048597  0.4636349280234312  0.2931705123849824  1.0000
  H   H20       1.0  0.1633988791657756  0.5193599675585644  0.3107014840749187  1.0000
  H   H21       1.0  0.4017991753551936  0.7036512209439888  0.8279061435737063  1.0000
  H   H22       1.0  0.7974429598783886  0.11743659104214287  0.30516556260646144  1.0000
  H   H23       1.0  0.18148020340964166  0.8052719237789603  0.7247088908550979  1.0000
  H   H24       1.0  0.44856566995454733  0.016397758749107497  0.9354179755747084  1.0000
  H   H25       1.0  0.8037891680288285  0.4635808865292999  0.14648781731925464  1.0000
  H   H26       1.0  0.8626526470980878  0.42465995619796354  0.6989157135124984  1.0000
  H   H27       1.0  0.012630297318658302  0.08887466414986993  0.545940956131588  1.0000
  H   H28       1.0  0.5784984475754484  0.9938318976006144  0.11436652920865964  1.0000
  H   H29       1.0  0.6669094337422549  0.016199812748766394  0.8448867699200023  1.0000
  H   H30       1.0  0.6443340262052357  0.17666936805233038  0.9791789542891749  1.0000
  H   H31       1.0  0.22814057305895824  0.10530666970214497  0.837456877839273  1.0000
  H   H32       1.0  0.8470606853908863  0.3094910286037659  0.9095135906922991  1.0000
  C   C1        1.0  0.1285216663678311  0.5466030903063483  0.8028183133531144  1.0000
  C   C2        1.0  0.18221827164008886  0.4014083291026012  0.37471176448870125  1.0000
  C   C3        1.0  0.5675188290962296  0.3704172350497429  0.3756665748891733  1.0000
  C   C4        1.0  0.44183031968123726  0.8341084586590453  0.7820377801530186  1.0000
  C   C5        1.0  0.7812798599275085  0.1790140081161624  0.18452759977320457  1.0000
  C   C6        1.0  0.5270401435206082  0.013097398295208488  0.9569703758326256  1.0000
  C   C7        1.0  0.6333526791612769  0.09971622523834608  0.9788102470814763  1.0000
  C   C8        1.0  0.8510040590934694  0.17617995064509265  0.601981548233347  1.0000
  C   C9        1.0  0.5969238081020618  0.9979310892423212  0.05333403261255391  1.0000
  C   C10       1.0  0.6466867735326717  0.011180998680224295  0.904733866863694  1.0000
  C   C11       1.0  0.7042646680370125  0.0873312654229537  0.0778716306430595  1.0000
  C   C12       1.0  0.5392574099090837  0.9228219732201239  0.8814371679502174  1.0000
  C   C13       1.0  0.7175031826320505  0.9973981706274412  0.0023457536390837233  1.0000
  C   C14       1.0  0.6108227038714205  0.9099766145280765  0.9795886134811909  1.0000
  C   C15       1.0  0.030354972216414894  0.0561082748939725  0.7235364654802368  1.0000
  C   C16       1.0  0.9653066154029516  0.4794648466694227  0.9278034216166804  1.0000
  C   C17       1.0  0.9340884993404471  0.0633576471044464  0.6828105538761804  1.0000
  C   C18       1.0  0.04693613115077257  0.5432953035622532  0.923201189805596  1.0000
  C   C19       1.0  0.06299252206453326  0.9745339240276036  0.7398843616920985  1.0000
  C   C20       1.0  0.9340395973579305  0.48248134754703637  0.0063555006509759294  1.0000
  C   C21       1.0  0.9139424183755976  0.6737444634987639  0.5610969289358325  1.0000
  C   C22       1.0  0.04539731544331715  0.6711263053037866  0.2932153234730492  1.0000
  C   C23       1.0  0.9897292004948923  0.8673289409971899  0.6820363948353575  1.0000
  C   C24       1.0  0.0038068370828411783  0.772134652746196  0.6484489590356405  1.0000
  C   C25       1.0  0.9769587281990793  0.5725856857999074  0.10009249585475974  1.0000
  C   C26       1.0  0.3960857191784442  0.3911719254474306  0.2994348387151505  1.0000
  C   C27       1.0  0.30215370908319966  0.4008430879839222  0.3006086823669419  1.0000
  C   C28       1.0  0.4622113366503908  0.3598637337570592  0.3609415724136865  1.0000
  C   C29       1.0  0.24730205133299413  0.3588474323564696  0.34237933470726745  1.0000
  C   C30       1.0  0.9630672678836874  0.5887441223979195  0.189294767350482  1.0000
  C   C31       1.0  0.6375263005009373  0.3374370324998138  0.4371782237197976  1.0000
  C   C32       1.0  0.15452860209992986  0.3896686398444515  0.4493383847579013  1.0000
  C   C33       1.0  0.37523489946450167  0.8314367223803032  0.6856113595201521  1.0000
  C   C34       1.0  0.822981121330514  0.28715749726504913  0.2087959788409677  1.0000
  C   C35       1.0  0.6298954624856705  0.4232715489108898  0.3413416550725755  1.0000
  C   C36       1.0  0.15640773729385413  0.4837883255075183  0.3613636385454768  1.0000
  C   C37       1.0  0.38144059025265864  0.7354164790297942  0.7716232836391157  1.0000
  C   C38       1.0  0.8109047795617742  0.18191445634346337  0.28404236565350527  1.0000
  C   C39       1.0  0.09563499105380659  0.7525355800127826  0.6647463485032007  1.0000
  C   C40       1.0  0.8831716756862136  0.53119977651302  0.20574955108752851  1.0000
  C   C41       1.0  0.9478935547823396  0.459962676865743  0.7208747381569155  1.0000
  C   C42       1.0  0.9610827587808828  0.1257793618645309  0.5574754801289715  1.0000
  C   C43       1.0  0.043602085473061346  0.5199977493725569  0.8234887390543905  1.0000
  C   C44       1.0  0.9150365001472806  0.12106768164185405  0.6221243852150024  1.0000
  C   C45       1.0  0.1831496190160352  0.016982018780801394  0.8061423502489334  1.0000
  C   C46       1.0  0.85354308165153  0.3757417144676225  0.9749200405722576  1.0000
  I   I1        1.0  0.7992027839061251  0.977429017559352  0.6919559940692678  1.0000
  I   I2        1.0  0.1888333896961427  0.681860806843666  0.056871057277781724  1.0000
  N   N1        1.0  0.08587012375335945  0.5031834566379629  0.6967399948057109  1.0000
  N   N2        1.0  0.11958806622288876  0.4622639843450784  0.4803876104085632  1.0000
  N   N3        1.0  0.7328039701472305  0.3678865558068338  0.43906328383152987  1.0000
  N   N4        1.0  0.28218720322011837  0.7380679461455057  0.6233518994255222  1.0000
  N   N5        1.0  0.8715983783542922  0.3494821644987382  0.31452984492819525  1.0000
  N   N6        1.0  0.72766880990676  0.4213149246898169  0.3794509207859492  1.0000
  N   N7        1.0  0.12052977552226445  0.5197501515137474  0.4255171548868334  1.0000
  N   N8        1.0  0.8608745402768747  0.20999139615980764  0.5325073311809732  1.0000
  N   N9        1.0  0.28612267007730463  0.6787129135802916  0.6772045131295529  1.0000
  N   N10       1.0  0.864148456099592  0.284281522030568  0.36096064814701373  1.0000
  N   N11       1.0  0.06258013552422173  0.6529869487909893  0.5893253134179589  1.0000
  N   N12       1.0  0.917315058073335  0.5724442803229479  0.3092638374774595  1.0000
  N   N13       1.0  0.9737423152954108  0.4501142795703288  0.6458837927959068  1.0000
  N   N14       1.0  0.9292917096503358  0.17865835812732916  0.5048275555384052  1.0000
  N   N15       1.0  0.9495105802956587  0.6048288614347753  0.5263339470271192  1.0000
  N   N16       1.0  0.019821840318158486  0.6599383668491683  0.36492186844677843  1.0000
  O   O1        1.0  0.23532010620493782  0.9671069138194496  0.830077052309747  1.0000
  O   O2        1.0  0.7964193758121851  0.35392187633432554  0.01240017151604892  1.0000
