data_image0
_chemical_formula_structural       Cd2H18C22N14O10
_chemical_formula_sum              "Cd2 H18 C22 N14 O10"
_cell_length_a       6.6895831188623305
_cell_length_b       9.795045575797122
_cell_length_c       12.399320035365406
_cell_angle_alpha    95.13314775480126
_cell_angle_beta     104.54644433215853
_cell_angle_gamma    98.13572958448958

_space_group_name_H-M_alt    "P 1"
_space_group_IT_number       1

loop_
  _space_group_symop_operation_xyz
  'x, y, z'

loop_
  _atom_site_type_symbol
  _atom_site_label
  _atom_site_symmetry_multiplicity
  _atom_site_fract_x
  _atom_site_fract_y
  _atom_site_fract_z
  _atom_site_occupancy
  Cd  Cd1       1.0  0.24897846926587153  0.2284588023703691  0.4996708322663181  1.0000
  Cd  Cd2       1.0  0.7510141003000541  0.771525219562797  0.5003250643052084  1.0000
  H   H1        1.0  0.004084128094142234  0.28932211027670013  0.24386156701130088  1.0000
  H   H2        1.0  0.9959189997092818  0.710676357625502  0.7561391219044111  1.0000
  H   H3        1.0  0.8310744791756547  0.8559236653186345  0.12474287646550404  1.0000
  H   H4        1.0  0.1689213021129206  0.1440812200616648  0.8752556490446181  1.0000
  H   H5        1.0  0.5632860987785121  0.0037485662983912003  0.76603599654144  1.0000
  H   H6        1.0  0.4366852046772536  0.9962621006821022  0.23396529818655407  1.0000
  H   H7        1.0  0.7077855746011464  0.9133917819973547  0.9457744176866425  1.0000
  H   H8        1.0  0.29218320386372904  0.0866157622406689  0.0542214926804121  1.0000
  H   H9        1.0  0.5731588876617406  0.2594300522848272  0.7620480079704776  1.0000
  H   H10       1.0  0.4268307930149787  0.7405801967882226  0.2379508693306036  1.0000
  H   H11       1.0  0.8037733119459104  0.5058933216290028  0.13269611061305397  1.0000
  H   H12       1.0  0.19626268708701386  0.49410134988335114  0.8673119322360491  1.0000
  H   H13       1.0  0.6423269268508135  0.4960092505488375  0.7779100197780621  1.0000
  H   H14       1.0  0.3576818471270259  0.5040027251480269  0.22209555054394056  1.0000
  H   H15       1.0  0.9799117621924364  0.16567116459975043  0.6305456585131494  1.0000
  H   H16       1.0  0.02008108887734758  0.8343138733316948  0.36944711741665504  1.0000
  H   H17       1.0  0.84591562142986  0.23674108326412827  0.533271849664956  1.0000
  H   H18       1.0  0.15408465154014553  0.7632532103600411  0.4667217276163953  1.0000
  C   C1        1.0  0.5679746148971744  0.0368565894400206  0.4640596762104606  1.0000
  C   C2        1.0  0.43203110609695017  0.9631250367215358  0.5359337806945418  1.0000
  C   C3        1.0  0.564693694122546  0.4975269071035269  0.5621557219442933  1.0000
  C   C4        1.0  0.43529521024239404  0.5024603294915693  0.43783990091029773  1.0000
  C   C5        1.0  0.7868800907557655  0.1225572438233158  0.03998591484607769  1.0000
  C   C6        1.0  0.21314947878188656  0.8774469464678772  0.9600178745449809  1.0000
  C   C7        1.0  0.7133328245471872  0.3043423779355551  0.9428508241115735  1.0000
  C   C8        1.0  0.28669234663729526  0.6956576640189096  0.057144843118585684  1.0000
  C   C9        1.0  0.9811397344099788  0.17741873296746039  0.24080511461789914  1.0000
  C   C10       1.0  0.018859069466529415  0.822586053147198  0.7591889680584528  1.0000
  C   C11       1.0  0.8933277300650599  0.9549295994564346  0.17951236579851582  1.0000
  C   C12       1.0  0.10666526084165177  0.045071159028864806  0.820485511964101  1.0000
  C   C13       1.0  0.6285085272211645  0.07569011534580738  0.8433170319509457  1.0000
  C   C14       1.0  0.3714949484559327  0.9243198291809803  0.1566812442587278  1.0000
  C   C15       1.0  0.7076414109356503  0.024543886424503097  0.9442528450343203  1.0000
  C   C16       1.0  0.29233079246769483  0.975464663389353  0.055747621645096515  1.0000
  C   C17       1.0  0.63166341116127  0.2180824114323484  0.8404809157908203  1.0000
  C   C18       1.0  0.3683142089995356  0.7819186538490043  0.15951332059323417  1.0000
  C   C19       1.0  0.767358582842611  0.5399208889576101  0.050255046092260586  1.0000
  C   C20       1.0  0.2326732060127412  0.46008539030913903  0.9497548243438914  1.0000
  C   C21       1.0  0.6835063091997069  0.5345260472247162  0.8674006211524484  1.0000
  C   C22       1.0  0.3165114211825326  0.4654899456790531  0.13260883103736626  1.0000
  N   N1        1.0  0.998583642402252  0.9681040443744207  0.2859334961664146  1.0000
  N   N2        1.0  0.001412057362749401  0.03189557515544549  0.7140598274607299  1.0000
  N   N3        1.0  0.7218436950014606  0.45086226873981866  0.9516117857848697  1.0000
  N   N4        1.0  0.27818193588779383  0.5491441261378966  0.04839565851682439  1.0000
  N   N5        1.0  0.7878298427534884  0.2584377656284218  0.04030647438575128  1.0000
  N   N6        1.0  0.21216775454312403  0.7415628972643304  0.9596920109989283  1.0000
  N   N7        1.0  0.878016310931848  0.08475696419338871  0.14724942462409268  1.0000
  N   N8        1.0  0.12196963817407895  0.915246038915285  0.8527484710243627  1.0000
  N   N9        1.0  0.05303563892606181  0.10853346433675884  0.3242048032554337  1.0000
  N   N10       1.0  0.94695242380466  0.8914663441284105  0.6757915475975622  1.0000
  N   N11       1.0  0.7040090845183824  0.6647995185656796  0.9117125793672896  1.0000
  N   N12       1.0  0.29600101688603075  0.3352166691962707  0.0883007080342466  1.0000
  N   N13       1.0  0.7566685385848898  0.6677435784934005  0.027858108631818406  1.0000
  N   N14       1.0  0.24335964952103942  0.3322659628183118  0.972157951974246  1.0000
  O   O1        1.0  0.49832174337566215  0.40319850906961113  0.6148415116937186  1.0000
  O   O2        1.0  0.5016640971600026  0.5967835905550913  0.38515739204094496  1.0000
  O   O3        1.0  0.5582631824438166  0.16337515119503368  0.4530496772014913  1.0000
  O   O4        1.0  0.4417315429473588  0.8366161189522996  0.5469429585526908  1.0000
  O   O5        1.0  0.727519390219477  0.5878711250500218  0.6036654235096535  1.0000
  O   O6        1.0  0.2724533240164391  0.41211859473656887  0.3963354658735199  1.0000
  O   O7        1.0  0.681212713129284  0.9664590236758175  0.42174099300729756  1.0000
  O   O8        1.0  0.318795590209973  0.0335309733100004  0.5782606261840613  1.0000
  O   O9        1.0  0.9862908973495902  0.24663973886490698  0.5860321080599744  1.0000
  O   O10       1.0  0.013705957779272629  0.7533483484846853  0.4139605988704673  1.0000
