data_image0
_chemical_formula_structural       Nd2H8C6O16
_chemical_formula_sum              "Nd2 H8 C6 O16"
_cell_length_a       6.077924458435584
_cell_length_b       7.77784548689724
_cell_length_c       8.277457607956105
_cell_angle_alpha    96.4693370310231
_cell_angle_beta     93.29832731351443
_cell_angle_gamma    110.09600912998974

_space_group_name_H-M_alt    "P 1"
_space_group_IT_number       1

loop_
  _space_group_symop_operation_xyz
  'x, y, z'

loop_
  _atom_site_type_symbol
  _atom_site_label
  _atom_site_symmetry_multiplicity
  _atom_site_fract_x
  _atom_site_fract_y
  _atom_site_fract_z
  _atom_site_occupancy
  Nd  Nd1       1.0  0.5010604666752556  0.814844467148916  0.7825164853892872  1.0000
  Nd  Nd2       1.0  0.4989344740267327  0.18515318567784783  0.21747968502954504  1.0000
  H   H1        1.0  0.07121033079581443  0.8720607612859934  0.6276140974064288  1.0000
  H   H2        1.0  0.928783692174811  0.1279353228849942  0.37238787191511585  1.0000
  H   H3        1.0  0.1934081582061467  0.8218379295163203  0.4680760616497394  1.0000
  H   H4        1.0  0.806571531047602  0.17814364287207946  0.5319195079849165  1.0000
  H   H5        1.0  0.508121846898959  0.1706930017913137  0.6491426680297605  1.0000
  H   H6        1.0  0.4918676034317925  0.8292999224995511  0.35086221619209096  1.0000
  H   H7        1.0  0.6870590645934556  0.23368238585371157  0.8107441946951537  1.0000
  H   H8        1.0  0.31292393517507827  0.766307705436212  0.18924413839728513  1.0000
  C   C1        1.0  0.386639729948662  0.5057790718641755  0.03537850825639307  1.0000
  C   C2        1.0  0.6133726632878194  0.49422913893995707  0.9646323176033885  1.0000
  C   C3        1.0  0.05961511566921731  0.9834848911273965  0.9225166322166342  1.0000
  C   C4        1.0  0.9403951717032085  0.01652474928136629  0.07748330621021886  1.0000
  C   C5        1.0  0.5894635493633515  0.5735705288505811  0.45686416083215403  1.0000
  C   C6        1.0  0.4105430978647532  0.4264215453131399  0.5431286407230187  1.0000
  O   O1        1.0  0.32702480650900867  0.6419542216525825  0.004664137187887659  1.0000
  O   O2        1.0  0.6729733339697148  0.35805962290108073  0.9953389783805375  1.0000
  O   O3        1.0  0.2710873440277767  0.9887675011935642  0.9459444959828145  1.0000
  O   O4        1.0  0.7289150019639834  0.011233372909416091  0.05405624431585918  1.0000
  O   O5        1.0  0.6245312534685965  0.7428929837537906  0.5101945728650817  1.0000
  O   O6        1.0  0.3754791658716883  0.25710725173421173  0.48980671578752316  1.0000
  O   O7        1.0  0.281305099975107  0.38352452333406006  0.11927571392043025  1.0000
  O   O8        1.0  0.7187141419820974  0.6164954908637836  0.8807164256069339  1.0000
  O   O9        1.0  0.9398431467589673  0.9546433560468869  0.7865891617078515  1.0000
  O   O10       1.0  0.06016093897221  0.045356484856228  0.21340554425916025  1.0000
  O   O11       1.0  0.6827941593783179  0.517065695434397  0.3410528040875319  1.0000
  O   O12       1.0  0.31720613872484893  0.48292956411344784  0.658950763697696  1.0000
  O   O13       1.0  0.18656195535849207  0.8181912306741381  0.5864878195324364  1.0000
  O   O14       1.0  0.8134328893696436  0.18179811995730694  0.4135182797089313  1.0000
  O   O15       1.0  0.6345283441453659  0.14200005761102827  0.7089982695804334  1.0000
  O   O16       1.0  0.3654663536001762  0.8580105412779772  0.2910150976532434  1.0000
