data_image0
_chemical_formula_structural       Cd2H16C12N20O8
_chemical_formula_sum              "Cd2 H16 C12 N20 O8"
_cell_length_a       8.671627828342189
_cell_length_b       8.671625643124115
_cell_length_c       8.868925185084041
_cell_angle_alpha    76.9395071414208
_cell_angle_beta     76.93962005310192
_cell_angle_gamma    76.09673358506485

_space_group_name_H-M_alt    "P 1"
_space_group_IT_number       1

loop_
  _space_group_symop_operation_xyz
  'x, y, z'

loop_
  _atom_site_type_symbol
  _atom_site_label
  _atom_site_symmetry_multiplicity
  _atom_site_fract_x
  _atom_site_fract_y
  _atom_site_fract_z
  _atom_site_occupancy
  Cd  Cd1       1.0  0.6997561886682533  0.3002442217724807  0.7500009302627357  1.0000
  Cd  Cd2       1.0  0.30024520953535466  0.6997549795407851  0.25000009936149314  1.0000
  H   H1        1.0  0.02699101432531848  0.7002951886778491  0.5787840443111631  1.0000
  H   H2        1.0  0.2997058325041948  0.9730078374682309  0.9212147882192522  1.0000
  H   H3        1.0  0.9730077893433418  0.2997052344260568  0.4212150241585986  1.0000
  H   H4        1.0  0.7002941478907944  0.026992578764748004  0.07878515727752233  1.0000
  H   H5        1.0  0.9872617395959723  0.511010850433458  0.6866221935345461  1.0000
  H   H6        1.0  0.48898892908601976  0.012738167126720205  0.8133765970652929  1.0000
  H   H7        1.0  0.012738488902904493  0.4889883647737606  0.31337682847473036  1.0000
  H   H8        1.0  0.5110110583305597  0.9872622561292775  0.18662221784354924  1.0000
  H   H9        1.0  0.7162001154662008  0.017430062312477908  0.36242577299087475  1.0000
  H   H10       1.0  0.98257176163429  0.2837974256026001  0.13757902447803608  1.0000
  H   H11       1.0  0.28379865309448604  0.9825703256763205  0.6375789484185643  1.0000
  H   H12       1.0  0.017429884673212798  0.716200574684919  0.8624210816586949  1.0000
  H   H13       1.0  0.9123186047650549  0.9186772724010197  0.39830868416292  1.0000
  H   H14       1.0  0.08132492679460059  0.08768103389335383  0.10169043196768254  1.0000
  H   H15       1.0  0.08768280046015059  0.08132193593526443  0.6016912148733765  1.0000
  H   H16       1.0  0.918676478430605  0.9123181744429304  0.8983094670686067  1.0000
  C   C1        1.0  0.7993398637517259  0.6581142062349273  0.5948304370911043  1.0000
  C   C2        1.0  0.3418850758722413  0.20065871166603702  0.905170695588765  1.0000
  C   C3        1.0  0.20065941505993126  0.34188379374840855  0.40517017616746626  1.0000
  C   C4        1.0  0.6581151456050378  0.7993404965181558  0.09482945700845131  1.0000
  C   C5        1.0  0.7847586666842048  0.9471723655024821  0.45373319144216834  1.0000
  C   C6        1.0  0.05282701678478931  0.21524253139106267  0.0462683072186252  1.0000
  C   C7        1.0  0.21524296558010286  0.05282562073898591  0.546269175870435  1.0000
  C   C8        1.0  0.9471743954620138  0.7847566839682474  0.9537304612297316  1.0000
  C   C9        1.0  0.7647079116348438  0.04991982478080811  0.5781421573833112  1.0000
  C   C10       1.0  0.9500812046541185  0.23529186177035652  0.9218588662078697  1.0000
  C   C11       1.0  0.2352934795471739  0.9500793695094387  0.4218600028288577  1.0000
  C   C12       1.0  0.04992020759267748  0.7647073535889535  0.07813990224049404  1.0000
  N   N1        1.0  0.7264452218206471  0.7989718610417003  0.5144981325090467  1.0000
  N   N2        1.0  0.20102857454957498  0.2735541712064916  0.9855035111594074  1.0000
  N   N3        1.0  0.2735549926350417  0.20102734011947382  0.4855031506761021  1.0000
  N   N4        1.0  0.7989716469277041  0.7264450369777081  0.014496641437808865  1.0000
  N   N5        1.0  0.5732165544455866  0.7867609251476324  0.5079185489354641  1.0000
  N   N6        1.0  0.21324078254549053  0.4267830513997097  0.9920826484287698  1.0000
  N   N7        1.0  0.4267834189278048  0.21323948406232066  0.492082527149243  1.0000
  N   N8        1.0  0.7867606226797149  0.5732161569365816  0.007917250607526613  1.0000
  N   N9        1.0  0.5550229557519161  0.6441503246229916  0.5789070488538286  1.0000
  N   N10       1.0  0.3558500902779258  0.44497622878100884  0.92109237364005  1.0000
  N   N11       1.0  0.4449770246430732  0.35585009160998027  0.42109289664294625  1.0000
  N   N12       1.0  0.6441501382209509  0.5550229864262093  0.07890664836922671  1.0000
  N   N13       1.0  0.6915931891149683  0.559832571730688  0.6343277733411126  1.0000
  N   N14       1.0  0.44016641591748124  0.3084068650929623  0.8656708419146992  1.0000
  N   N15       1.0  0.3084072804661986  0.4401654354277583  0.36567145576859855  1.0000
  N   N16       1.0  0.5598335644775075  0.6915935511400093  0.1343291035820826  1.0000
  N   N17       1.0  0.9467998494024956  0.6257495423376157  0.6299000261788449  1.0000
  N   N18       1.0  0.3742516701207776  0.05319966165031791  0.8700984010916524  1.0000
  N   N19       1.0  0.053200138014091194  0.3742508809183819  0.3700987887299901  1.0000
  N   N20       1.0  0.6257497351044278  0.9467995466859663  0.129901497944644  1.0000
  O   O1        1.0  0.815389082573148  0.1828402961737652  0.5291491634514284  1.0000
  O   O2        1.0  0.8171619983133313  0.18460930983405896  0.9708518101672108  1.0000
  O   O3        1.0  0.1846094659700341  0.8171613209328755  0.470851959093764  1.0000
  O   O4        1.0  0.18283916582957715  0.8153911065510048  0.029147881768643854  1.0000
  O   O5        1.0  0.7007798584164391  0.004563687603592803  0.7187543564431988  1.0000
  O   O6        1.0  0.9954387771184942  0.29921742297733533  0.7812468765800272  1.0000
  O   O7        1.0  0.29921868310514543  0.9954379224800222  0.2812478966899261  1.0000
  O   O8        1.0  0.0045614443587851045  0.7007817852068641  0.21875327601718192  1.0000
