data_image0
_chemical_formula_structural       La4H16C20N12O20
_chemical_formula_sum              "La4 H16 C20 N12 O20"
_cell_length_a       7.147614056926825
_cell_length_b       10.073657156495315
_cell_length_c       11.63068312323554
_cell_angle_alpha    89.99927428756283
_cell_angle_beta     90.0001782531307
_cell_angle_gamma    104.98735568161777

_space_group_name_H-M_alt    "P 1"
_space_group_IT_number       1

loop_
  _space_group_symop_operation_xyz
  'x, y, z'

loop_
  _atom_site_type_symbol
  _atom_site_label
  _atom_site_symmetry_multiplicity
  _atom_site_fract_x
  _atom_site_fract_y
  _atom_site_fract_z
  _atom_site_occupancy
  La  La1       1.0  0.7746548407375967  0.9279952060221528  0.38086237379700794  1.0000
  La  La2       1.0  0.7253528526465233  0.5720124004837502  0.8808624166051828  1.0000
  La  La3       1.0  0.22535228454196948  0.07200420584816668  0.6191380011693965  1.0000
  La  La4       1.0  0.2746463009650029  0.42798811930538244  0.1191353789634846  1.0000
  H   H1        1.0  0.24852162119461954  0.030506205175953493  0.1362912885700212  1.0000
  H   H2        1.0  0.25147692123879045  0.4694930868069491  0.636293059829903  1.0000
  H   H3        1.0  0.7514729574625181  0.9694933271874574  0.8637116657680721  1.0000
  H   H4        1.0  0.7485232336952593  0.5305063920208752  0.3637064553348424  1.0000
  H   H5        1.0  0.369568971086892  0.9656488063275219  0.9383157148193746  1.0000
  H   H6        1.0  0.13043671627611536  0.5343500815033266  0.4383110994277217  1.0000
  H   H7        1.0  0.6304355429698062  0.0343547558837471  0.0616932580691696  1.0000
  H   H8        1.0  0.8695658340502135  0.46564834301097596  0.5616849765661343  1.0000
  H   H9        1.0  0.19871779067745618  0.8480717315339628  0.8541440114517016  1.0000
  H   H10       1.0  0.30129188347346064  0.6519314528059326  0.3541418739330807  1.0000
  H   H11       1.0  0.8012914752502667  0.15193694173954947  0.1458580830556215  1.0000
  H   H12       1.0  0.6987128464145584  0.34806901342226837  0.6458559216411359  1.0000
  H   H13       1.0  0.5056195203260074  0.0742000144543624  0.2933113042749227  1.0000
  H   H14       1.0  0.994373220283549  0.4258028469147844  0.7933088520034701  1.0000
  H   H15       1.0  0.4943756669070609  0.9257974493766596  0.706695089253941  1.0000
  H   H16       1.0  0.005628721466116826  0.5741976460875478  0.2066898033626998  1.0000
  C   C1        1.0  0.6854334168827663  0.6866705117449426  0.1630930793298049  1.0000
  C   C2        1.0  0.8145642559048127  0.8133249313105537  0.6630949549105479  1.0000
  C   C3        1.0  0.3145629485911385  0.31333003486268035  0.8368995574677386  1.0000
  C   C4        1.0  0.18543750892821723  0.1866714380552565  0.3369054200674171  1.0000
  C   C5        1.0  0.8677532366127568  0.7824473978320867  0.1226677599066761  1.0000
  C   C6        1.0  0.6322424433321031  0.7175507229630467  0.6226694773299855  1.0000
  C   C7        1.0  0.13224134204521928  0.21755213458202138  0.8773283160736155  1.0000
  C   C8        1.0  0.36775771160163373  0.2824487558457704  0.37733261721893296  1.0000
  C   C9        1.0  0.127654615926602  0.9419022985211711  0.11916166808867962  1.0000
  C   C10       1.0  0.3723487923489158  0.5580951280185288  0.6191638596887259  1.0000
  C   C11       1.0  0.8723429666987386  0.05809411099632911  0.8808412862692948  1.0000
  C   C12       1.0  0.6276503612621909  0.44190539174526583  0.38083737505884596  1.0000
  C   C13       1.0  0.2676753940626072  0.8638161985983359  0.9391828476494695  1.0000
  C   C14       1.0  0.23232929176708692  0.6361837173816481  0.4391807519360427  1.0000
  C   C15       1.0  0.7323287272484366  0.13618633609888778  0.06082010668124129  1.0000
  C   C16       1.0  0.7676726499826785  0.363816775627022  0.560817043635403  1.0000
  C   C17       1.0  0.3712048808265891  0.7490720357615855  0.9594231394788579  1.0000
  C   C18       1.0  0.12879640337988732  0.7509296771443488  0.45942561432063656  1.0000
  C   C19       1.0  0.6287968450931133  0.25093155330618805  0.0405755158702092  1.0000
  C   C20       1.0  0.8712069324381703  0.2490708024233967  0.5405790596099962  1.0000
  N   N1        1.0  0.11960008332597047  0.861843893721094  0.024834877985632896  1.0000
  N   N2        1.0  0.38040574321502174  0.6381538688102425  0.5248344911818279  1.0000
  N   N3        1.0  0.8803986775388496  0.13815559849062709  0.9751654969724513  1.0000
  N   N4        1.0  0.6195954130418712  0.3618445690752807  0.4751641641948225  1.0000
  N   N5        1.0  0.9678751848505344  0.8947449904140611  0.18205498262575762  1.0000
  N   N6        1.0  0.532127235208634  0.6052552841358576  0.6820611763068527  1.0000
  N   N7        1.0  0.03211760699171861  0.1052535278192011  0.817942812947834  1.0000
  N   N8        1.0  0.4678705243331365  0.3947452490054956  0.317941778028775  1.0000
  N   N9        1.0  0.9546352517429214  0.7597720724526268  0.0260321972881385  1.0000
  N   N10       1.0  0.5453670292344769  0.7402263781835146  0.5260326434627771  1.0000
  N   N11       1.0  0.04536150647684424  0.24022950168171772  0.9739647384777896  1.0000
  N   N12       1.0  0.45463412702220307  0.2597720596893396  0.47396773150332183  1.0000
  O   O1        1.0  0.6209329311650009  0.5802363121847164  0.1003260051410848  1.0000
  O   O2        1.0  0.8790551752746013  0.9197642733137388  0.6003354383571988  1.0000
  O   O3        1.0  0.37906221715682165  0.4197683714750013  0.8996614728643735  1.0000
  O   O4        1.0  0.120944802743125  0.08023108189657081  0.3996632170351617  1.0000
  O   O5        1.0  0.6115813110750353  0.7139235826791577  0.25548210310329716  1.0000
  O   O6        1.0  0.8884250964707335  0.7860714458716346  0.7554801165735299  1.0000
  O   O7        1.0  0.3884182741966171  0.28607074499176116  0.7445139729101271  1.0000
  O   O8        1.0  0.11158263738528265  0.21392589749797966  0.2445193986100165  1.0000
  O   O9        1.0  0.2835543868509661  0.649111357289243  0.0210393403512583  1.0000
  O   O10       1.0  0.21643113814865  0.8508845934564918  0.5210492187145661  1.0000
  O   O11       1.0  0.7164387977380856  0.3508881885277617  0.9789550160381921  1.0000
  O   O12       1.0  0.7835626550149825  0.149112883745758  0.4789597541970849  1.0000
  O   O13       1.0  0.5336281951243579  0.7650407996448364  0.9099050479126092  1.0000
  O   O14       1.0  0.9663787057247576  0.7349643236958272  0.4099023153707151  1.0000
  O   O15       1.0  0.466376534763029  0.23495966654534328  0.0900979064299605  1.0000
  O   O16       1.0  0.03362302019400692  0.2650392653149254  0.590104078130878  1.0000
  O   O17       1.0  0.5507542999568715  0.99197892685109  0.283464266861472  1.0000
  O   O18       1.0  0.9492492348365575  0.5080301553218051  0.783475748116885  1.0000
  O   O19       1.0  0.4492448536543421  0.008021592919035899  0.7165361080913685  1.0000
  O   O20       1.0  0.05074991877465613  0.49197036444832065  0.21652462683595528  1.0000
