data_image0
_chemical_formula_structural       Zn2H20C25N2O24
_chemical_formula_sum              "Zn2 H20 C25 N2 O24"
_cell_length_a       10.042649007643972
_cell_length_b       10.701659699283493
_cell_length_c       11.313656714153375
_cell_angle_alpha    91.73262057129195
_cell_angle_beta     99.45144328634477
_cell_angle_gamma    103.69981823616732

_space_group_name_H-M_alt    "P 1"
_space_group_IT_number       1

loop_
  _space_group_symop_operation_xyz
  'x, y, z'

loop_
  _atom_site_type_symbol
  _atom_site_label
  _atom_site_symmetry_multiplicity
  _atom_site_fract_x
  _atom_site_fract_y
  _atom_site_fract_z
  _atom_site_occupancy
  Zn  Zn1       1.0  0.3519101445581612  0.46975846420593104  0.5098728580582375  1.0000
  Zn  Zn2       1.0  0.6572062760330439  0.539026500931236  0.5216411385949584  1.0000
  H   H1        1.0  0.4322847399585613  0.8505783162881997  0.326526596745758  1.0000
  H   H2        1.0  0.6719376881102833  0.5749368133694829  0.9196777866413512  1.0000
  H   H3        1.0  0.2986196576253733  0.8476639195962079  0.41280787616980064  1.0000
  H   H4        1.0  0.6888626174617656  0.1509320611087475  0.6106273910292543  1.0000
  H   H5        1.0  0.24014153289906656  0.0008631788115848995  0.6161367993951714  1.0000
  H   H6        1.0  0.7561999567066096  0.89614526754211  0.404087317071621  1.0000
  H   H7        1.0  0.41519088524862713  0.09596421656430461  0.21583778550564864  1.0000
  H   H8        1.0  0.6354544239265891  0.6747697400788579  0.036517735231655045  1.0000
  H   H9        1.0  0.2610580673793521  0.41564923892474326  0.9328933636725479  1.0000
  H   H10       1.0  0.2382846935631449  0.34522282710953783  0.20235725735091137  1.0000
  H   H11       1.0  0.0069824606243998515  0.7224430464821268  0.42457622183843574  1.0000
  H   H12       1.0  0.984659229464171  0.3776024442934371  0.6948151291569502  1.0000
  H   H13       1.0  0.23017277705831424  0.29080354451185286  0.6687212697203436  1.0000
  H   H14       1.0  0.4845835437093627  0.24515707713667473  0.7027782729035438  1.0000
  H   H15       1.0  0.7208398583783194  0.614965100553725  0.305176920544298  1.0000
  H   H16       1.0  0.48012010110019093  0.966267492924679  0.8247444008252529  1.0000
  H   H17       1.0  0.31821951273867916  0.7704269007861483  0.6120139317217692  1.0000
  H   H18       1.0  0.189971597766629  0.036773167641648306  0.39422676048643274  1.0000
  H   H19       1.0  0.7010824701617936  0.21041486592746853  0.35082782804653323  1.0000
  H   H20       1.0  0.7885037476879262  0.9893033939078324  0.689838012606515  1.0000
  C   C1        1.0  0.5621639436355325  0.5096384742883728  0.7414005842673818  1.0000
  C   C2        1.0  0.5062297591562697  0.8874277236788404  0.520100119146214  1.0000
  C   C3        1.0  0.4046344163761973  0.8978950390613394  0.40283866179003525  1.0000
  C   C4        1.0  0.654069561067523  0.9700566284949163  0.5041112980413303  1.0000
  C   C5        1.0  0.5673347829789748  0.5332705250970378  0.870264743716426  1.0000
  C   C6        1.0  0.45551463524279273  0.5072951943818041  0.9286334221902733  1.0000
  C   C7        1.0  0.4072686144441917  0.48089865937543397  0.14499850428060773  1.0000
  C   C8        1.0  0.4832147062128129  0.539131632235339  0.061002574171944005  1.0000
  C   C9        1.0  0.9428781440498426  0.5123341349327359  0.558240817633731  1.0000
  C   C10       1.0  0.07043724946193212  0.4909719185163794  0.5070303245482678  1.0000
  C   C11       1.0  0.4938001622400137  0.26693945413592246  0.4786898462296065  1.0000
  C   C12       1.0  0.4599431166693719  0.5135416839118179  0.2769010170060824  1.0000
  C   C13       1.0  0.506151716660348  0.745034217502102  0.5299834631822549  1.0000
  C   C14       1.0  0.4306029751449714  0.0804404090273252  0.6047075348091582  1.0000
  C   C15       1.0  0.44811287584231974  0.9395651826988641  0.6259534978175767  1.0000
  C   C16       1.0  0.4138002918420085  0.04131032098619868  0.37515054860502056  1.0000
  C   C17       1.0  0.6473680734172261  0.11330707197284799  0.5167990225394092  1.0000
  C   C18       1.0  0.4952605099357754  0.12609344199098155  0.4905612616995185  1.0000
  C   C19       1.0  0.27334215563995207  0.3871415715705169  0.1216728872931014  1.0000
  C   C20       1.0  0.14866933705116742  0.34277790738452296  0.649889571046451  1.0000
  C   C21       1.0  0.9027388972534283  0.6583987114333638  0.4101149047466492  1.0000
  C   C22       1.0  0.5240546503610445  0.9266332035153865  0.7524363134094187  1.0000
  C   C23       1.0  0.2657656012254748  0.05865672814085339  0.3328764695975437  1.0000
  C   C24       1.0  0.7463722766359027  0.19279789177518583  0.4427242922772265  1.0000
  C   C25       1.0  0.7799626111898093  0.9543738728653465  0.5954141799095326  1.0000
  N   N1        1.0  0.8601656495386933  0.5755333005372947  0.4892738432702615  1.0000
  N   N2        1.0  0.16173695689314374  0.42311366876689493  0.5623950775853146  1.0000
  O   O1        1.0  0.453889024344889  0.433907353927772  0.6764918981767849  1.0000
  O   O2        1.0  0.6699719250223383  0.5662677719167207  0.7004118499303758  1.0000
  O   O3        1.0  0.3769580473531421  0.2932400709204401  0.4490709636340355  1.0000
  O   O4        1.0  0.6119197668408135  0.34721698577806137  0.5052300671858774  1.0000
  O   O5        1.0  0.36726554561305147  0.5201787800067449  0.3387512837701721  1.0000
  O   O6        1.0  0.5886245455770336  0.5236003550978481  0.3205248462060624  1.0000
  O   O7        1.0  0.3990668238276172  0.669758491313054  0.5605573200990294  1.0000
  O   O8        1.0  0.6085111194991343  0.7098128035649864  0.5021757814498927  1.0000
  O   O9        1.0  0.2895414276968181  0.08220181744545837  0.5877705936687151  1.0000
  O   O10       1.0  0.6793704125050581  0.939438702999432  0.38849947093708453  1.0000
  O   O11       1.0  0.4865993722800254  0.07641998759792298  0.2790342078035195  1.0000
  O   O12       1.0  0.59728629028033  0.6336834323439645  0.10404511505926453  1.0000
  O   O13       1.0  0.3263434893948656  0.4568854019260229  0.8727150491585364  1.0000
  O   O14       1.0  0.1950887227173865  0.351948702185517  0.022621043542706314  1.0000
  O   O15       1.0  0.09448825860679483  0.5446188169046237  0.4152342841360834  1.0000
  O   O16       1.0  0.9135830108380744  0.47095331287943054  0.6547926724669679  1.0000
  O   O17       1.0  0.053880647380133026  0.31700862716242284  0.7149621758311255  1.0000
  O   O18       1.0  0.5051707287861618  0.1598005811084349  0.708713663716189  1.0000
  O   O19       1.0  0.8199046571906052  0.6787347355110639  0.316968943030048  1.0000
  O   O20       1.0  0.6125028889677467  0.865362967165943  0.7734991169577086  1.0000
  O   O21       1.0  0.31237405016004527  0.8607623514045244  0.6341058782081177  1.0000
  O   O22       1.0  0.2341637236555343  0.089225068397333  0.23050584186768933  1.0000
  O   O23       1.0  0.8709929457447461  0.23084958283206447  0.48278673197522454  1.0000
  O   O24       1.0  0.8714039310492794  0.9119048692531778  0.5618844980869895  1.0000
