data_image0
_chemical_formula_structural       Tb4Zn6H72C48O72
_chemical_formula_sum              "Tb4 Zn6 H72 C48 O72"
_cell_length_a       14.709450182703568
_cell_length_b       14.709443499349499
_cell_length_c       15.91571448300224
_cell_angle_alpha    89.9999683783914
_cell_angle_beta     89.99997083687929
_cell_angle_gamma    120.0001161860498

_space_group_name_H-M_alt    "P 1"
_space_group_IT_number       1

loop_
  _space_group_symop_operation_xyz
  'x, y, z'

loop_
  _atom_site_type_symbol
  _atom_site_label
  _atom_site_symmetry_multiplicity
  _atom_site_fract_x
  _atom_site_fract_y
  _atom_site_fract_z
  _atom_site_occupancy
  Tb  Tb1       1.0  0.33333449783870617  0.6666660837626992  0.7499981268249839  1.0000
  Tb  Tb2       1.0  0.6666661857242816  0.3333340930793371  0.7499981330034161  1.0000
  Tb  Tb3       1.0  0.6666657887235631  0.33333370432100656  0.2500017295433707  1.0000
  Tb  Tb4       1.0  0.3333337083353528  0.666666087507359  0.2500017233649388  1.0000
  Zn  Zn1       1.0  0.49999960711166125  0.49999975037509614  0.4999999281843444  1.0000
  Zn  Zn2       1.0  0.5000000467080739  1.8341684435314746e-07  0.4999998009827991  1.0000
  Zn  Zn3       1.0  5.49261322634484e-07  0.49999974945838227  0.5000000461178759  1.0000
  Zn  Zn4       1.0  0.5000000041105963  0.5000001391316004  0.9999994731935828  1.0000
  Zn  Zn5       1.0  0.9999994544632217  0.49999974754495485  0.999999983569893  1.0000
  Zn  Zn6       1.0  0.5000007220480853  8.199386065938167e-08  2.5597323370000005e-07  1.0000
  H   H1        1.0  0.6400268650332066  0.7195010291971115  0.7321282809217067  1.0000
  H   H2        1.0  0.2805001960430574  0.9205240933533221  0.7321270579618897  1.0000
  H   H3        1.0  0.07947557259176118  0.3599754097961069  0.7321285046018177  1.0000
  H   H4        1.0  0.35997383874638444  0.28049916845070305  0.732129086970197  1.0000
  H   H5        1.0  0.7194998279019983  0.07947542445980828  0.7321271683811476  1.0000
  H   H6        1.0  0.9205247386848399  0.6400251803543358  0.7321294915999133  1.0000
  H   H7        1.0  0.7194993911266039  0.6400311092283175  0.7678734574289551  1.0000
  H   H8        1.0  0.9205305442472494  0.280499921084541  0.7678722448582462  1.0000
  H   H9        1.0  0.35996840930067003  0.07946868052552253  0.7678724282195263  1.0000
  H   H10       1.0  0.2805001998744317  0.3599687594678472  0.7678730039133727  1.0000
  H   H11       1.0  0.07946904675449686  0.7194999476123555  0.7678729598643983  1.0000
  H   H12       1.0  0.6400305018654747  0.9205305083355882  0.7678715198837764  1.0000
  H   H13       1.0  0.35997302902642053  0.2804991513895915  0.26787157544664103  1.0000
  H   H14       1.0  0.7194994106832552  0.07947501489423561  0.2678721700969647  1.0000
  H   H15       1.0  0.920525001304185  0.6400254506271071  0.26787135176620325  1.0000
  H   H16       1.0  0.6400264478155292  0.7195006196326402  0.26787139770799945  1.0000
  H   H17       1.0  0.2805004586602706  0.9205243636238977  0.26787268798720726  1.0000
  H   H18       1.0  0.07947515537443904  0.35997500023199785  0.2678709930782759  1.0000
  H   H19       1.0  0.2805005029330304  0.35996907135838546  0.23212639893939271  1.0000
  H   H20       1.0  0.07946934981238486  0.7195002595021619  0.2321276115101014  1.0000
  H   H21       1.0  0.640031197424932  0.9205304277213029  0.23212805645900406  1.0000
  H   H22       1.0  0.7195000866878375  0.6400310286158586  0.2321268524549893  1.0000
  H   H23       1.0  0.9205301674684703  0.2804995531374673  0.23212752481412485  1.0000
  H   H24       1.0  0.3599687123582029  0.07946899241496648  0.23212770817506373  1.0000
  H   H25       1.0  0.6391874971720242  0.8078830610713013  0.6548285557964563  1.0000
  H   H26       1.0  0.19211746174179473  0.831303732408287  0.6548280269776329  1.0000
  H   H27       1.0  0.16869605375818258  0.36081290669906724  0.6548287805059374  1.0000
  H   H28       1.0  0.3608122217223908  0.1921169392453947  0.6548281497988385  1.0000
  H   H29       1.0  0.8078822571529756  0.16869626790878567  0.6548280503078204  1.0000
  H   H30       1.0  0.8313040576381565  0.639186701113907  0.6548291817090401  1.0000
  H   H31       1.0  0.8078803696649289  0.6391789394712505  0.8451687414692871  1.0000
  H   H32       1.0  0.8312976181277848  0.19211869789271674  0.8451682213693915  1.0000
  H   H33       1.0  0.3608199383753004  0.16870086613934626  0.8451683382973486  1.0000
  H   H34       1.0  0.19211913388766536  0.3608208392279977  0.8451689575223967  1.0000
  H   H35       1.0  0.16870227792816195  0.8078806883042589  0.8451682210026163  1.0000
  H   H36       1.0  0.6391795651776491  0.8312989125602642  0.8451687323844937  1.0000
  H   H37       1.0  0.36081239688761  0.19211711951540175  0.3451713005718915  1.0000
  H   H38       1.0  0.8078828248204744  0.16869605567542578  0.34517182939072194  1.0000
  H   H39       1.0  0.8313042328040866  0.639186881384639  0.34517107586242457  1.0000
  H   H40       1.0  0.6391869925009315  0.8078825615047904  0.34517170656985036  1.0000
  H   H41       1.0  0.19211763690665876  0.8313039126779176  0.3451718060605272  1.0000
  H   H42       1.0  0.16869515658481044  0.3608127996359086  0.345171302969483  1.0000
  H   H43       1.0  0.19211884455839368  0.36082056127894196  0.15483111489940174  1.0000
  H   H44       1.0  0.16870227593184958  0.8078814826939793  0.15483163499896344  1.0000
  H   H45       1.0  0.6391799556843337  0.8312993144473567  0.15483151807099924  1.0000
  H   H46       1.0  0.8078807601719689  0.6391793413587054  0.15483089884595813  1.0000
  H   H47       1.0  0.8312973287978025  0.19211841994292908  0.15483163536607236  1.0000
  H   H48       1.0  0.36082032888197807  0.16870126802643176  0.15483112398386106  1.0000
  H   H49       1.0  0.35791619485571846  0.5391450770806328  0.5502848447513317  1.0000
  H   H50       1.0  0.4608553089736346  0.8187717469605147  0.5502841210237364  1.0000
  H   H51       1.0  0.18122811624569823  0.642084628733386  0.5502848602382145  1.0000
  H   H52       1.0  0.6420839296481023  0.4608561172981782  0.5502841693324781  1.0000
  H   H53       1.0  0.5391445281965161  0.18122837507878845  0.5502848930604146  1.0000
  H   H54       1.0  0.8187727932633991  0.3579157806394378  0.5502841538456096  1.0000
  H   H55       1.0  0.5391436748101767  0.3579142546719325  0.9497152354049163  1.0000
  H   H56       1.0  0.8187710684784407  0.4608565635178223  0.9497151432611018  1.0000
  H   H57       1.0  0.6420862224776585  0.1812283647250865  0.9497152560734747  1.0000
  H   H58       1.0  0.46085678280278614  0.6420856896353018  0.9497151815762879  1.0000
  H   H59       1.0  0.18122899663188718  0.539143773292409  0.949715273720095  1.0000
  H   H60       1.0  0.35791384263266907  0.8187719720851375  0.9497151609077221  1.0000
  H   H61       1.0  0.6420836992039155  0.4608551035060701  0.44971501161701616  1.0000
  H   H62       1.0  0.5391445850859994  0.18122843362618113  0.4497157353446185  1.0000
  H   H63       1.0  0.818771777813936  0.3579155518533171  0.4497149961301332  1.0000
  H   H64       1.0  0.3579159644115322  0.5391440632885178  0.4497156870358765  1.0000
  H   H65       1.0  0.4608550785290929  0.8187707331680372  0.44971559161811575  1.0000
  H   H66       1.0  0.18122710079623522  0.642084399947258  0.4497157025227452  1.0000
  H   H67       1.0  0.46085661175173703  0.642085533411411  0.0502852492732799  1.0000
  H   H68       1.0  0.1812288255808383  0.5391436170685182  0.0502853414170872  1.0000
  H   H69       1.0  0.3579136715819755  0.8187718158616093  0.05028460029487291  1.0000
  H   H70       1.0  0.5391435037591279  0.35791409844804184  0.0502853031019086  1.0000
  H   H71       1.0  0.8187708974273921  0.46085640729393185  0.050285210958094205  1.0000
  H   H72       1.0  0.6420860514269648  0.18122820850156532  0.0502846954606255  1.0000
  C   C1        1.0  0.5892315407799631  0.7401035332814775  0.6954261967420835  1.0000
  C   C2        1.0  0.2598978335037146  0.8491255729984034  0.6954249900660301  1.0000
  C   C3        1.0  0.150873321669458  0.4107714901669155  0.6954251272998135  1.0000
  C   C4        1.0  0.4107685246866098  0.25989602726320993  0.695426361001779  1.0000
  C   C5        1.0  0.7401022319646273  0.15087398754810985  0.695424426128632  1.0000
  C   C6        1.0  0.8491269259621748  0.589230607560147  0.695426802133518  1.0000
  C   C7        1.0  0.7401018534043116  0.5892302389794253  0.8045711582437677  1.0000
  C   C8        1.0  0.8491276242519702  0.25989784106068464  0.8045705880013259  1.0000
  C   C9        1.0  0.4107691972435816  0.15087117420306137  0.8045700908226721  1.0000
  C   C10       1.0  0.25989837591507137  0.41077026682535955  0.8045706885990214  1.0000
  C   C11       1.0  0.15087163789779376  0.7401009125684369  0.8045706305322966  1.0000
  C   C12       1.0  0.5892299597375655  0.8491290442689278  0.8045704994007608  1.0000
  C   C13       1.0  0.41076874578266137  0.25989625480259804  0.3045730313164369  1.0000
  C   C14       1.0  0.7401028455615516  0.1508738225826746  0.30457423799249034  1.0000
  C   C15       1.0  0.849126964892811  0.5892282979167901  0.3045747290685412  1.0000
  C   C16       1.0  0.5892317618756594  0.7401037608205032  0.30457349536658274  1.0000
  C   C17       1.0  0.25989766209499976  0.8491261930385933  0.3045754302397158  1.0000
  C   C18       1.0  0.1508735427637333  0.41077171770447757  0.30457493916366474  1.0000
  C   C19       1.0  0.25989804065531535  0.4107699416072777  0.1954286981245801  1.0000
  C   C20       1.0  0.1508715899713522  0.7401016596895005  0.19542926836735572  1.0000
  C   C21       1.0  0.5892296244774543  0.8491287190504837  0.19542913723616104  1.0000
  C   C22       1.0  0.7401015181445558  0.5892299137613435  0.1954291677693334  1.0000
  C   C23       1.0  0.849127968828171  0.25989819567875855  0.19542922583639924  1.0000
  C   C24       1.0  0.41076954181942693  0.15087152882076554  0.1954293569675798  1.0000
  C   C25       1.0  0.516391156416866  0.648630231237185  0.6401324581466952  1.0000
  C   C26       1.0  0.35136693434024135  0.8677587288014907  0.6401318130138377  1.0000
  C   C27       1.0  0.13224129984873662  0.4836083337943863  0.6401319624273397  1.0000
  C   C28       1.0  0.48360750676511793  0.3513694988570535  0.6401319131933789  1.0000
  C   C29       1.0  0.6486344481876928  0.13224372063953635  0.6401313017052246  1.0000
  C   C30       1.0  0.8677605803500869  0.5163922583004138  0.6401324089117538  1.0000
  C   C31       1.0  0.6486277362459135  0.5163905597244707  0.8598618358480721  1.0000
  C   C32       1.0  0.8677622748268379  0.35137082504905237  0.8598618261428116  1.0000
  C   C33       1.0  0.4836096423353665  0.13223806023798806  0.8598619724998926  1.0000
  C   C34       1.0  0.351371645514753  0.48361066670987896  0.8598619143004173  1.0000
  C   C35       1.0  0.132237212102801  0.6486289365427922  0.8598619240060259  1.0000
  C   C36       1.0  0.5163906296006078  0.8677609163489636  0.8598598927194416  1.0000
  C   C37       1.0  0.48360873764276857  0.3513699493495182  0.35986739822165253  1.0000
  C   C38       1.0  0.6486326723857231  0.13224037944569741  0.35986804335485095  1.0000
  C   C39       1.0  0.8677596665501922  0.516392134126207  0.3598672656308466  1.0000
  C   C40       1.0  0.5163931722994305  0.6486298967232925  0.3598685714848244  1.0000
  C   C41       1.0  0.3513654458715864  0.8677564599467974  0.3598691829729646  1.0000
  C   C42       1.0  0.13224145838708515  0.48360849695296076  0.3598680757657818  1.0000
  C   C43       1.0  0.35137137280843694  0.48361040586821963  0.1401380205202685  1.0000
  C   C44       1.0  0.13223693939612977  0.6486286757007707  0.14013865853571164  1.0000
  C   C45       1.0  0.5163917165654935  0.8677620151788689  0.14013851217797677  1.0000
  C   C46       1.0  0.6486282485448811  0.516389513876824  0.14013794206793054  1.0000
  C   C47       1.0  0.8677620021208767  0.35137056420776264  0.14013730405282127  1.0000
  C   C48       1.0  0.4836093696290575  0.13223779939633565  0.14013807871974393  1.0000
  O   O1        1.0  0.5277304814504905  0.7638682091497061  0.7499955430054541  1.0000
  O   O2        1.0  0.2361310655269622  0.7638614463360727  0.7499956117860052  1.0000
  O   O3        1.0  0.23613862435676233  0.47226919864829864  0.7499963142759044  1.0000
  O   O4        1.0  0.4722688424423609  0.2361306080218669  0.7499963186547376  1.0000
  O   O5        1.0  0.7638685456999215  0.23613844317537774  0.7499956215640111  1.0000
  O   O6        1.0  0.7638609868694103  0.5277306908624197  0.749996175693795  1.0000
  O   O7        1.0  0.47226912527582227  0.23613089909785154  0.2500036850533931  1.0000
  O   O8        1.0  0.7638688285326722  0.23613873425063062  0.2500042445823425  1.0000
  O   O9        1.0  0.7638612697025167  0.5277309819380348  0.25000417040228484  1.0000
  O   O10       1.0  0.5277307642832412  0.7638685002249587  0.25000416602378545  1.0000
  O   O11       1.0  0.23613174086199273  0.7638613449079658  0.2500048631141852  1.0000
  O   O12       1.0  0.23613890719022396  0.4722694897242833  0.25000368067455986  1.0000
  O   O13       1.0  0.41756104790049897  0.6145591421582426  0.6460957788046214  1.0000
  O   O14       1.0  0.3854426401338529  0.8029951556375181  0.6460944818220112  1.0000
  O   O15       1.0  0.19700416599459905  0.5824467491335527  0.6460952106864609  1.0000
  O   O16       1.0  0.5824397532124549  0.38544115565948545  0.6460957982033123  1.0000
  O   O17       1.0  0.6145574811442104  0.19700446234515584  0.6460945819469047  1.0000
  O   O18       1.0  0.802999144126005  0.4175591977156118  0.6460957380096061  1.0000
  O   O19       1.0  0.6145553620557748  0.417563050854554  0.8539004652768014  1.0000
  O   O20       1.0  0.8030072597649182  0.38544487457375004  0.8538991723783909  1.0000
  O   O21       1.0  0.5824362566998645  0.19699231500177936  0.8538999006565932  1.0000
  O   O22       1.0  0.38544413161829294  0.5824367176782773  0.8539004773723989  1.0000
  O   O23       1.0  0.19699477109110566  0.6145550761245958  0.853899257030804  1.0000
  O   O24       1.0  0.4175608049637062  0.8030058065255972  0.8538991570640775  1.0000
  O   O25       1.0  0.5824388461591355  0.3854410384284536  0.35390407756372616  1.0000
  O   O26       1.0  0.6145580389317614  0.1970042399439222  0.35390411792667464  1.0000
  O   O27       1.0  0.8029964079009843  0.4175541112892986  0.3539052739913942  1.0000
  O   O28       1.0  0.41756014084717924  0.6145590249272175  0.3539040581650355  1.0000
  O   O29       1.0  0.38544280541805875  0.80299532573855  0.35390527442145725  1.0000
  O   O30       1.0  0.19700365144285567  0.5824462393984362  0.35390537497639946  1.0000
  O   O31       1.0  0.38544385216754756  0.5824364498956315  0.14609939109188727  1.0000
  O   O32       1.0  0.19699263429470903  0.6145553060129529  0.14610068398995682  1.0000
  O   O33       1.0  0.4175605255111778  0.8030055387411255  0.14610121233275922  1.0000
  O   O34       1.0  0.6145557624413343  0.4175634629084186  0.1460993789959559  1.0000
  O   O35       1.0  0.80300658781011  0.38544499929263076  0.14610059933722397  1.0000
  O   O36       1.0  0.582437336921025  0.19699340689143696  0.14610007099509661  1.0000
  O   O37       1.0  0.5616371975426591  0.6159095156069088  0.5923425811556341  1.0000
  O   O38       1.0  0.3840918284125578  0.9457235150453229  0.5923425391272588  1.0000
  O   O39       1.0  0.05427434260406728  0.43836588848167685  0.5923421176837779  1.0000
  O   O40       1.0  0.43836259204465466  0.3840905574628762  0.592343297517303  1.0000
  O   O41       1.0  0.6159083536784706  0.0542761655225662  0.5923414546161682  1.0000
  O   O42       1.0  0.9457260216509484  0.5616363292674936  0.5923431326786429  1.0000
  O   O43       1.0  0.6159051419262556  0.5616370809727516  0.9076605030364036  1.0000
  O   O44       1.0  0.9457296112429391  0.38409437780583744  0.9076598420990223  1.0000
  O   O45       1.0  0.43836324911350744  0.05426947276613709  0.9076600456785968  1.0000
  O   O46       1.0  0.38409429092632763  0.4383626249660963  0.9076605890744034  1.0000
  O   O47       1.0  0.054269926780392774  0.6159038632923314  0.9076581084629398  1.0000
  O   O48       1.0  0.5616353987352197  0.9457310181801615  0.9076585331928373  1.0000
  O   O49       1.0  0.4383626965169682  0.3840906649797874  0.40765727521271344  1.0000
  O   O50       1.0  0.6159098178223346  0.05427763271141122  0.4076573172404281  1.0000
  O   O51       1.0  0.94572808863645  0.5616344742694324  0.4076571103740889  1.0000
  O   O52       1.0  0.5616373020149724  0.6159096231238266  0.4076565588510448  1.0000
  O   O53       1.0  0.3840919328838055  0.9457236225611398  0.4076584017521867  1.0000
  O   O54       1.0  0.0542748395779569  0.4383656034945033  0.40765798030871286  1.0000
  O   O55       1.0  0.38409475213337885  0.4383630996139516  0.0923393533319441  1.0000
  O   O56       1.0  0.054270282816695166  0.6159058027808656  0.0923400142693254  1.0000
  O   O57       1.0  0.5616345002668129  0.9457301331520613  0.09234232392976341  1.0000
  O   O58       1.0  0.6159053157996296  0.5616364832810987  0.0923392672942924  1.0000
  O   O59       1.0  0.9457293926126126  0.38409417261608075  0.0923404912864143  1.0000
  O   O60       1.0  0.4383644953244072  0.0542691624065412  0.0923413231755106  1.0000
  O   O61       1.0  0.34932904902193235  0.4958865804406117  0.4999999647690315  1.0000
  O   O62       1.0  0.5041130619846471  0.8534423359907778  0.5000004656072149  1.0000
  O   O63       1.0  0.14655662723254184  0.6506708719880337  0.49999997321892664  1.0000
  O   O64       1.0  0.6506708450377018  0.5041136001460913  0.499999891599316  1.0000
  O   O65       1.0  0.49588683207498724  0.14655784459592522  0.4999993907611326  1.0000
  O   O66       1.0  0.8534436593293719  0.34932891609530253  0.5000005114592695  1.0000
  O   O67       1.0  0.4958861112243086  0.34932881118847814  0.9999995124951013  1.0000
  O   O68       1.0  0.8534433350673183  0.5041136791690377  2.987624228000002e-07  1.0000
  O   O69       1.0  0.6506706401430832  0.14655582722377147  0.9999995275724415  1.0000
  O   O70       1.0  0.5041137828353257  0.6506713693982248  3.438732534000001e-07  1.0000
  O   O71       1.0  0.14655695149495793  0.49588610891466806  0.9999995576059321  1.0000
  O   O72       1.0  0.34932925391654396  0.8534443533629318  3.287959061e-07  1.0000
