data_image0
_chemical_formula_structural       Cd2H24C32O12
_chemical_formula_sum              "Cd2 H24 C32 O12"
_cell_length_a       7.407995824176826
_cell_length_b       7.97535018580296
_cell_length_c       13.124350797831807
_cell_angle_alpha    107.72814964842286
_cell_angle_beta     89.78616672479514
_cell_angle_gamma    89.9396753516168

_space_group_name_H-M_alt    "P 1"
_space_group_IT_number       1

loop_
  _space_group_symop_operation_xyz
  'x, y, z'

loop_
  _atom_site_type_symbol
  _atom_site_label
  _atom_site_symmetry_multiplicity
  _atom_site_fract_x
  _atom_site_fract_y
  _atom_site_fract_z
  _atom_site_occupancy
  Cd  Cd1       1.0  0.7500618101668833  0.02315384358328027  0.999823288749127  1.0000
  Cd  Cd2       1.0  0.24994630544851043  0.9768499600447028  0.00017826535513167408  1.0000
  H   H1        1.0  0.8316075312838149  0.039233691727247305  0.3561389361756184  1.0000
  H   H2        1.0  0.6680631623660529  0.6825834516491157  0.6441264992135843  1.0000
  H   H3        1.0  0.16839140781622314  0.9607586540532081  0.6438518713335526  1.0000
  H   H4        1.0  0.331939396598507  0.3174045499029958  0.35587340086998154  1.0000
  H   H5        1.0  0.4313510826997912  0.7579959643860689  0.33060719359608026  1.0000
  H   H6        1.0  0.06833906544916599  0.42759738515474777  0.6689400045320965  1.0000
  H   H7        1.0  0.5686530305455691  0.24200529729318992  0.6693922905393137  1.0000
  H   H8        1.0  0.9316462116319144  0.5724184860138024  0.331062918366051  1.0000
  H   H9        1.0  0.28616256834712317  0.8647415130373374  0.5033888263942288  1.0000
  H   H10       1.0  0.2137898035090871  0.3616217027783152  0.4962597810790896  1.0000
  H   H11       1.0  0.7138336033861773  0.13525995670210725  0.4966068003170179  1.0000
  H   H12       1.0  0.7861914712019596  0.6383916264415108  0.5037410718501932  1.0000
  H   H13       1.0  0.500251414629865  0.6482864297024235  0.0512963261899557  1.0000
  H   H14       1.0  0.99955570933281  0.5971303039244377  0.9486159028831977  1.0000
  H   H15       1.0  0.499764852348143  0.3517160445598293  0.9487035301798558  1.0000
  H   H16       1.0  0.00045334922294420175  0.40286265392744985  0.05139190707446771  1.0000
  H   H17       1.0  0.5703546103554372  0.7766609199251561  0.18192207960247941  1.0000
  H   H18       1.0  0.9288856815124544  0.5948266222271955  0.8180542997886562  1.0000
  H   H19       1.0  0.42964681382495934  0.22335215341960432  0.8180812302613916  1.0000
  H   H20       1.0  0.07111118415976139  0.4051637791884346  0.18195363467138753  1.0000
  H   H21       1.0  0.4533059600596942  0.5713972779505881  0.16428099696548062  1.0000
  H   H22       1.0  0.04677520493989112  0.40724205895185867  0.8354862989377096  1.0000
  H   H23       1.0  0.5467035371815355  0.42861177832192965  0.8357216086375416  1.0000
  H   H24       1.0  0.9532327299948304  0.5927524211587141  0.16451646286335378  1.0000
  C   C1        1.0  0.045195253883107994  0.9657811632534321  0.4472609307097528  1.0000
  C   C2        1.0  0.45466875619580077  0.5184263358882858  0.5526966438376633  1.0000
  C   C3        1.0  0.954799544250072  0.03421636987627609  0.552733904252861  1.0000
  C   C4        1.0  0.5453177439522463  0.4815789398703386  0.4473057265315745  1.0000
  C   C5        1.0  0.9638103772291868  0.9785628600671784  0.35387829423272177  1.0000
  C   C6        1.0  0.5357873873792369  0.6244820282807595  0.6462063194811378  1.0000
  C   C7        1.0  0.03618425529707279  0.02142274529399659  0.6461164724395232  1.0000
  C   C8        1.0  0.4642099933249212  0.3755166866205997  0.353791826175808  1.0000
  C   C9        1.0  0.0430135633227096  0.9149891223622789  0.2522622858117032  1.0000
  C   C10       1.0  0.4562041688512861  0.6628035823664009  0.7477325832058882  1.0000
  C   C11       1.0  0.9569877314686931  0.084997658105074  0.7477350725627119  1.0000
  C   C12       1.0  0.5437917147296927  0.3371963209720761  0.25226959213754446  1.0000
  C   C13       1.0  0.21659534006726489  0.836380019975458  0.24277028692217334  1.0000
  C   C14       1.0  0.28261449090413027  0.5939735504853375  0.757002702370464  1.0000
  C   C15       1.0  0.7834088655759783  0.16361608883848078  0.7572251322650203  1.0000
  C   C16       1.0  0.7173814549272065  0.40602640849006383  0.2429979599991299  1.0000
  C   C17       1.0  0.29962332731908947  0.8204189993203456  0.3354203896310324  1.0000
  C   C18       1.0  0.19991316115573446  0.48530675102457366  0.6642541712466183  1.0000
  C   C19       1.0  0.7003781882815331  0.17958368483839143  0.6645770597972032  1.0000
  C   C20       1.0  0.800076007890773  0.5147037102470052  0.3357507760934908  1.0000
  C   C21       1.0  0.21553530389425646  0.8829730241480573  0.4347788638951968  1.0000
  C   C22       1.0  0.284281620013516  0.4483559649904764  0.5649618551050112  1.0000
  C   C23       1.0  0.7844635357598474  0.1170283947836381  0.565217544299486  1.0000
  C   C24       1.0  0.7157036791893815  0.5516533816410317  0.43503825606865837  1.0000
  C   C25       1.0  0.9344157245577943  0.9342293480482057  0.16138540687297362  1.0000
  C   C26       1.0  0.5644967255116808  0.7728230360248673  0.8387990034902941  1.0000
  C   C27       1.0  0.06559109478160248  0.06576797035585  0.8386125665216255  1.0000
  C   C28       1.0  0.43550588160713477  0.22717286173600829  0.16120245509404194  1.0000
  C   C29       1.0  0.4661398328409873  0.6871871239819781  0.1363104900243712  1.0000
  C   C30       1.0  0.03342625496084389  0.5510632647398593  0.8635501588139648  1.0000
  C   C31       1.0  0.5338697728495345  0.31281941149480025  0.8636885701307051  1.0000
  C   C32       1.0  0.9665761102045918  0.44892849018738457  0.13645581592844994  1.0000
  O   O1        1.0  0.7764475095669352  0.9973765677192645  0.17890016242234447  1.0000
  O   O2        1.0  0.7221267571103878  0.819084681971141  0.8212635929251917  1.0000
  O   O3        1.0  0.2235608078732979  0.002624798568383797  0.8210955767731959  1.0000
  O   O4        1.0  0.2778744613345481  0.18090988343111283  0.17873834989768514  1.0000
  O   O5        1.0  0.9970054003769986  0.8842461727353311  0.06414928006591941  1.0000
  O   O6        1.0  0.5024367379107628  0.8192327650412777  0.9361126618774449  1.0000
  O   O7        1.0  0.003002753411628598  0.1157537384251981  0.9358499818141154  1.0000
  O   O8        1.0  0.4975645668616621  0.18076580410229334  0.0638885472219641  1.0000
  O   O9        1.0  0.29490473153498437  0.7765503689485059  0.1442207776537288  1.0000
  O   O10       1.0  0.20422025817443765  0.6328037423822365  0.8555282714299892  1.0000
  O   O11       1.0  0.705103585905249  0.22345099733914248  0.8557749615418118  1.0000
  O   O12       1.0  0.795776982955246  0.36719746549638904  0.144474176161836  1.0000
