data_image0
_chemical_formula_structural       Mg6H36C66N6O18
_chemical_formula_sum              "Mg6 H36 C66 N6 O18"
_cell_length_a       6.858143604081576
_cell_length_b       35.17799310331887
_cell_length_c       35.17665734094608
_cell_angle_alpha    119.59232406043819
_cell_angle_beta     93.73436864896654
_cell_angle_gamma    93.71615533735263

_space_group_name_H-M_alt    "P 1"
_space_group_IT_number       1

loop_
  _space_group_symop_operation_xyz
  'x, y, z'

loop_
  _atom_site_type_symbol
  _atom_site_label
  _atom_site_symmetry_multiplicity
  _atom_site_fract_x
  _atom_site_fract_y
  _atom_site_fract_z
  _atom_site_occupancy
  Mg  Mg1       1.0  0.20149651139288946  0.6337056473044668  0.30793945723860383  1.0000
  Mg  Mg2       1.0  0.5677695948855045  0.6742253689762874  0.36632350919169465  1.0000
  Mg  Mg3       1.0  0.89348238866296  0.6920821397395115  0.3258266695549851  1.0000
  Mg  Mg4       1.0  0.9829401309493521  0.3652224539436233  0.6939406971782065  1.0000
  Mg  Mg5       1.0  0.6177262474244642  0.32871683101897986  0.6347643385449546  1.0000
  Mg  Mg6       1.0  0.28907121964188326  0.3060598440008561  0.6712645450020251  1.0000
  H   H1        1.0  0.8638302008227045  0.6254915049945281  0.44010493323431654  1.0000
  H   H2        1.0  0.23793015178955548  0.8145807316438006  0.3745131709799169  1.0000
  H   H3        1.0  0.42378106610770777  0.5599193355347936  0.1854098335403408  1.0000
  H   H4        1.0  0.07107730741534361  0.5918047668288081  0.47352252567901615  1.0000
  H   H5        1.0  0.4788740545672992  0.8817023720246264  0.40814163009098087  1.0000
  H   H6        1.0  0.5975672198665195  0.5264922873588489  0.11828845325048583  1.0000
  H   H7        1.0  0.2060705759186874  0.5268576105554246  0.4507283355159403  1.0000
  H   H8        1.0  0.6793198442097648  0.9239001043378321  0.4731375616191119  1.0000
  H   H9        1.0  0.7556477546708394  0.5492425490685093  0.07610032609231618  1.0000
  H   H10       1.0  0.74901348375527  0.5606966436165307  0.4908425197457051  1.0000
  H   H11       1.0  0.18854427876060945  0.9301167892793173  0.43928512970003925  1.0000
  H   H12       1.0  0.2586136613997993  0.5091833899006912  0.06983550675873566  1.0000
  H   H13       1.0  0.9411756966005456  0.5287287147172749  0.5292956908163833  1.0000
  H   H14       1.0  0.4126652749787142  0.0005434155426726997  0.4712916446396422  1.0000
  H   H15       1.0  0.41229365006417135  0.4707489985197028  0.999395058482243  1.0000
  H   H16       1.0  0.4213252973790916  0.44680665550161786  0.5178572224065336  1.0000
  H   H17       1.0  0.9746112671008832  0.0710614301052956  0.5531945738029196  1.0000
  H   H18       1.0  0.9035864253688503  0.4821385560188034  0.9289050445761764  1.0000
  H   H19       1.0  0.22903896567602533  0.478833479618089  0.47949180999555113  1.0000
  H   H20       1.0  0.7503500915124377  0.000668665105529  0.5211506265562209  1.0000
  H   H21       1.0  0.7496298759342321  0.5204612376217738  0.9993148290544771  1.0000
  H   H22       1.0  0.9654284764011221  0.4811265844171258  0.5578265160027486  1.0000
  H   H23       1.0  0.48446016478155945  0.0766908720775206  0.5189132195218351  1.0000
  H   H24       1.0  0.4078110120700629  0.44218242672999253  0.923307571928007  1.0000
  H   H25       1.0  0.6488583779114805  0.41230729504249536  0.6111519715354279  1.0000
  H   H26       1.0  0.23669267161919544  0.19885676597917973  0.58771744487607  1.0000
  H   H27       1.0  0.037992698706936764  0.3888199728882639  0.8011438789304608  1.0000
  H   H28       1.0  0.3181786893148697  0.3829382956334512  0.5659207509319588  1.0000
  H   H29       1.0  0.9354300068996794  0.18296231135636282  0.6170558097212224  1.0000
  H   H30       1.0  0.7523975745891393  0.43413451603508696  0.817004396258284  1.0000
  H   H31       1.0  0.10430350514911876  0.41677937904391626  0.5338429082701668  1.0000
  H   H32       1.0  0.6876942135108451  0.11706246363496577  0.5832168841120977  1.0000
  H   H33       1.0  0.5707139206294656  0.46612531067948026  0.8829521867012391  1.0000
  H   H34       1.0  0.5344283429031123  0.5936838764826147  0.39681512467514335  1.0000
  H   H35       1.0  0.9404122897901812  0.8031277300680554  0.406304816550744  1.0000
  H   H36       1.0  0.1376697839568734  0.6032219310239737  0.19691242045129098  1.0000
  C   C1        1.0  0.2709685987808186  0.6189521890947773  0.3863357216151188  1.0000
  C   C2        1.0  0.6517156580741172  0.7673658553945089  0.3810545435609713  1.0000
  C   C3        1.0  0.8846851632967161  0.6137034285588996  0.23266133322233898  1.0000
  C   C4        1.0  0.07720086920830474  0.6279834494762468  0.39922924642051094  1.0000
  C   C5        1.0  0.4489025923119882  0.7712292569465685  0.37202483474828807  1.0000
  C   C6        1.0  0.6780489572993602  0.6007777725782331  0.22878715963600638  1.0000
  C   C7        1.0  0.010087683544561715  0.6175900401324057  0.43040030843987875  1.0000
  C   C8        1.0  0.39211751226658004  0.8127885762098186  0.38240597547775235  1.0000
  C   C9        1.0  0.5797612129563491  0.5696065182520087  0.18721645868748044  1.0000
  C   C10       1.0  0.12404237034161981  0.5984714546198688  0.44862463000438907  1.0000
  C   C11       1.0  0.5251982519589689  0.8501349423312303  0.4014782587916416  1.0000
  C   C12       1.0  0.6755077869861167  0.5513828376816932  0.14986524372311305  1.0000
  C   C13       1.0  0.3145080379421683  0.5891178872921966  0.4359223799108564  1.0000
  C   C14       1.0  0.7250326725274407  0.8467880740827453  0.4108150457806375  1.0000
  C   C15       1.0  0.8786572287059186  0.56409004904129  0.15322172113187094  1.0000
  C   C16       1.0  0.36269589258008483  0.5403307854652225  0.4610295625255249  1.0000
  C   C17       1.0  0.8223863797617809  0.9206935350289452  0.4596280366724984  1.0000
  C   C18       1.0  0.9019970533619598  0.5389579854108247  0.07929537831603287  1.0000
  C   C19       1.0  0.47813190871628564  0.5218392965877995  0.4829153070742296  1.0000
  C   C20       1.0  0.956440433892915  0.9610635526389257  0.4781368640008028  1.0000
  C   C21       1.0  0.9955560945583102  0.51708027074325  0.03890199986454957  1.0000
  C   C22       1.0  0.679652294616204  0.535790665275648  0.49702082421129756  1.0000
  C   C23       1.0  0.14407909212088998  0.9612058912365525  0.46420488008972444  1.0000
  C   C24       1.0  0.18307564011121252  0.5030158813218434  0.038744400832506194  1.0000
  C   C25       1.0  0.7846785189435153  0.517944632847886  0.5182376932174793  1.0000
  C   C26       1.0  0.2669336983058628  0.00027001146478509996  0.482064558800758  1.0000
  C   C27       1.0  0.26684263015715715  0.4818086714259806  0.9996726252590522  1.0000
  C   C28       1.0  0.6922125432723476  0.48572519583153434  0.5258491171522979  1.0000
  C   C29       1.0  0.20661995794760202  0.04011696216439729  0.5142753828123434  1.0000
  C   C30       1.0  0.16662294928043042  0.4741850964024507  0.959845315424389  1.0000
  C   C31       1.0  0.4906682166759494  0.4717639590027999  0.5117446762755125  1.0000
  C   C32       1.0  0.019027911587592393  0.03998858213446968  0.5282261188141393  1.0000
  C   C33       1.0  0.9790929734410626  0.4882606677094471  0.9599818638252064  1.0000
  C   C34       1.0  0.3855292353112675  0.48965045700295207  0.4905508934017678  1.0000
  C   C35       1.0  0.8960334160892034  0.0009039060723665997  0.510336364837059  1.0000
  C   C36       1.0  0.895124705743278  0.5094278838717584  0.9990650300439302  1.0000
  C   C37       1.0  0.8092415847396666  0.4672859666781333  0.5475510340782892  1.0000
  C   C38       1.0  0.3420994255838893  0.08025767617933607  0.5327449309653788  1.0000
  C   C39       1.0  0.2619279845470146  0.45246561898466797  0.9197186715800786  1.0000
  C   C40       1.0  0.8643753980194974  0.41820491854281966  0.5718530449697357  1.0000
  C   C41       1.0  0.44628912848168073  0.15364531050775554  0.5818273954513348  1.0000
  C   C42       1.0  0.29284849470467106  0.42811709114420876  0.8463354378806475  1.0000
  C   C43       1.0  0.7967259536805927  0.40637315880329783  0.6016305409576292  1.0000
  C   C44       1.0  0.3904890481994484  0.19526335267779157  0.5936558750441707  1.0000
  C   C45       1.0  0.19537123171016896  0.39834222527694135  0.8047165651591616  1.0000
  C   C46       1.0  0.9148950109694025  0.38699302762157106  0.6200658487614137  1.0000
  C   C47       1.0  0.5280699676901577  0.23307384984465065  0.6130213398427318  1.0000
  C   C48       1.0  0.2950044261580231  0.3799233663949408  0.7668976279618251  1.0000
  C   C49       1.0  0.10846341804444384  0.37875200021826316  0.6067331332773664  1.0000
  C   C50       1.0  0.7299104664511021  0.227983040345066  0.6212774212662284  1.0000
  C   C51       1.0  0.5018663850617957  0.3933106943400943  0.7719958908160581  1.0000
  C   C52       1.0  0.17207824790595788  0.3902794193269371  0.5760690036056604  1.0000
  C   C53       1.0  0.7819829733824194  0.1857798740943863  0.6097253407087992  1.0000
  C   C54       1.0  0.596194303304884  0.42396266294564805  0.8141988813625576  1.0000
  C   C55       1.0  0.05457213041479745  0.4095576920659524  0.5586317714370497  1.0000
  C   C56       1.0  0.6451685910849748  0.14907433063985556  0.590446420561989  1.0000
  C   C57       1.0  0.4962220166320606  0.441349792844555  0.8509278757394585  1.0000
  C   C58       1.0  0.2429999558346339  0.3568103300279332  0.6217624772862111  1.0000
  C   C59       1.0  0.8864324232182528  0.26494952030166974  0.6431992579003138  1.0000
  C   C60       1.0  0.6213934272364838  0.37827463644961057  0.7350312251831854  1.0000
  C   C61       1.0  0.3862600543203171  0.600168300390308  0.40590393171814315  1.0000
  C   C62       1.0  0.7857494770073713  0.80572402745193  0.3998024777414387  1.0000
  C   C63       1.0  0.9804187366678647  0.5941220330269344  0.19430418356539297  1.0000
  C   C64       1.0  0.9445023560309949  0.6489438139847933  0.3825819932162205  1.0000
  C   C65       1.0  0.29539957693274477  0.7336131787276442  0.3510796451445162  1.0000
  C   C66       1.0  0.5620103804554119  0.6174250779223981  0.26639914472089304  1.0000
  N   N1        1.0  0.4374015948216723  0.5703455227102339  0.4537450226804866  1.0000
  N   N2        1.0  0.8667883868279488  0.883373419353823  0.42956700584038304  1.0000
  N   N3        1.0  0.9838078887100822  0.5462475972665928  0.11662064438597512  1.0000
  N   N4        1.0  0.7376570879237649  0.43685864940051994  0.5545762387303272  1.0000
  N   N5        1.0  0.3009212234099295  0.1177199044201274  0.5631774289063503  1.0000
  N   N6        1.0  0.18334928501530354  0.44540555583643726  0.8822464110484562  1.0000
  O   O1        1.0  0.779775472018308  0.659248979247586  0.39743892167157224  1.0000
  O   O2        1.0  0.12029057163472597  0.7381658788377405  0.3408071307454394  1.0000
  O   O3        1.0  0.3824270174688635  0.6025660588707069  0.2618492828531559  1.0000
  O   O4        1.0  0.9979694771766034  0.6564436781192738  0.35201828014650277  1.0000
  O   O5        1.0  0.3414956515661416  0.6955438885248169  0.3435454974698119  1.0000
  O   O6        1.0  0.6460351849778121  0.6479875145513887  0.3044733890636878  1.0000
  O   O7        1.0  0.34790310100871835  0.6278687135048598  0.35707998728496204  1.0000
  O   O8        1.0  0.7198535531321965  0.7292184809632403  0.37220504171008895  1.0000
  O   O9        1.0  0.9908648351344881  0.6429925422074021  0.27083147113280154  1.0000
  O   O10       1.0  0.4082589736631378  0.3476255558862745  0.6067820892657141  1.0000
  O   O11       1.0  0.060908681929809895  0.2591517436973518  0.6523684416473687  1.0000
  O   O12       1.0  0.8016555834165047  0.3932542022649271  0.7408435328800212  1.0000
  O   O13       1.0  0.19059582978456993  0.3469539781958699  0.6508607975557938  1.0000
  O   O14       1.0  0.8437400434536002  0.3039046002247687  0.6530600434326036  1.0000
  O   O15       1.0  0.5398277095886002  0.34916701553872537  0.6960743252454905  1.0000
  O   O16       1.0  0.8394476172184824  0.37661911878657134  0.6484962576713331  1.0000
  O   O17       1.0  0.4630084627664317  0.2718819114483039  0.6233785704978276  1.0000
  O   O18       1.0  0.1910805459715944  0.35148284238990596  0.7280950072625105  1.0000
