data_image0
_chemical_formula_structural       Cd4H28C36S8N12O4
_chemical_formula_sum              "Cd4 H28 C36 S8 N12 O4"
_cell_length_a       7.587289050000517
_cell_length_b       12.256683249715419
_cell_length_c       12.383585980104153
_cell_angle_alpha    97.14889567949137
_cell_angle_beta     90.00004161472043
_cell_angle_gamma    89.99998899871531

_space_group_name_H-M_alt    "P 1"
_space_group_IT_number       1

loop_
  _space_group_symop_operation_xyz
  'x, y, z'

loop_
  _atom_site_type_symbol
  _atom_site_label
  _atom_site_symmetry_multiplicity
  _atom_site_fract_x
  _atom_site_fract_y
  _atom_site_fract_z
  _atom_site_occupancy
  Cd  Cd1       1.0  0.09218207885957953  0.9419306455836604  0.7136945983244302  1.0000
  Cd  Cd2       1.0  0.5921815848651947  0.5580695616919299  0.7863047561212113  1.0000
  Cd  Cd3       1.0  0.9078184797053837  0.0580691988440876  0.28630398083572567  1.0000
  Cd  Cd4       1.0  0.4078176557064381  0.4419302845820141  0.21369463078455195  1.0000
  H   H1        1.0  0.4829857529520325  0.9096756016733918  0.8030415246845449  1.0000
  H   H2        1.0  0.9829851437274048  0.5903237567552537  0.6969570945773426  1.0000
  H   H3        1.0  0.5170148056130017  0.090323420482747  0.19695695500701044  1.0000
  H   H4        1.0  0.0170140968442212  0.4096760895186974  0.30304229232842766  1.0000
  H   H5        1.0  0.7276425067549043  0.015078379854926998  0.9047668348324219  1.0000
  H   H6        1.0  0.22764152990582434  0.4849214036510574  0.5952321548915477  1.0000
  H   H7        1.0  0.27235936980339664  0.9849214627266176  0.09523093658213352  1.0000
  H   H8        1.0  0.7723577106662133  0.5150792667406634  0.4047681392287216  1.0000
  H   H9        1.0  0.6746618048447174  0.2127756324151449  0.9794524358291168  1.0000
  H   H10       1.0  0.17466211948988797  0.28722333771016645  0.5205488543422588  1.0000
  H   H11       1.0  0.3253387537203168  0.7872233897409869  0.02054604386243849  1.0000
  H   H12       1.0  0.8253397570718094  0.712775695522886  0.4794544718249794  1.0000
  H   H13       1.0  0.3833297845056762  0.2973638472556316  0.9462974628068107  1.0000
  H   H14       1.0  0.8833316076834877  0.20263511335791407  0.5537055347118026  1.0000
  H   H15       1.0  0.6166681380736352  0.7026351822852275  0.053704247867756266  1.0000
  H   H16       1.0  0.11667026887820951  0.7973639198751454  0.4462977914554357  1.0000
  H   H17       1.0  0.15077497101922432  0.36354615156515274  0.8317101241017751  1.0000
  H   H18       1.0  0.6507743137022147  0.13645446276876066  0.6682905467457728  1.0000
  H   H19       1.0  0.849225587546691  0.6364536965549162  0.16829007055018505  1.0000
  H   H20       1.0  0.34922492686982304  0.8635462076229597  0.3317097473745035  1.0000
  H   H21       1.0  0.08876476147860052  0.329504093323159  0.9606621380088213  1.0000
  H   H22       1.0  0.5887652597358013  0.17049570450913618  0.5393392138195451  1.0000
  H   H23       1.0  0.9112357970873861  0.6704949325252939  0.039337957174538474  1.0000
  H   H24       1.0  0.41123529883011406  0.8295041436109326  0.4606609808324149  1.0000
  H   H25       1.0  0.9261639287796157  0.32871528700730573  0.8558070018526606  1.0000
  H   H26       1.0  0.42616310705452787  0.17128448762900916  0.6441936907517557  1.0000
  H   H27       1.0  0.07383662978629962  0.6712845611127631  0.14419319279929962  1.0000
  H   H28       1.0  0.5738374515113166  0.828716182762676  0.3558066033688049  1.0000
  C   C1        1.0  0.46641857687502863  0.9958036958776404  0.8361524615012639  1.0000
  C   C2        1.0  0.9664166374365594  0.5041973118349289  0.6638479648965114  1.0000
  C   C3        1.0  0.5335832996836772  0.004196970821674  0.1638462171277908  1.0000
  C   C4        1.0  0.0335826031354785  0.49580335855679886  0.3361523292237577  1.0000
  C   C5        1.0  0.6019625579103406  0.0551451207739859  0.8930287041388991  1.0000
  C   C6        1.0  0.10196292532957328  0.4448554966486356  0.6069719452217724  1.0000
  C   C7        1.0  0.39803800065495665  0.9448563700431476  0.10697088170436324  1.0000
  C   C8        1.0  0.8980376332372942  0.5551443551637546  0.3930298649219849  1.0000
  C   C9        1.0  0.5727110100259055  0.16463329256514206  0.9333527315869359  1.0000
  C   C10       1.0  0.07271136399136681  0.3353665062830018  0.5666486131745784  1.0000
  C   C11       1.0  0.42728954853953394  0.8353665537087664  0.06664665531912559  1.0000
  C   C12       1.0  0.927289194575977  0.6646333473755491  0.4333540047150776  1.0000
  C   C13       1.0  0.4094141952311789  0.21184391478491446  0.9156382502434466  1.0000
  C   C14       1.0  0.9094133919438576  0.2881550423319865  0.5843639510109853  1.0000
  C   C15       1.0  0.5905876813290903  0.7881551129096563  0.08436265268610296  1.0000
  C   C16       1.0  0.09058716662308093  0.7118439872087876  0.41563775966416466  1.0000
  C   C17       1.0  0.2804603388405909  0.14743848969583687  0.8577735546659891  1.0000
  C   C18       1.0  0.780460901664938  0.3525604700424551  0.6422261665858854  1.0000
  C   C19       1.0  0.7195402197249195  0.8525605343064554  0.14222573277146464  1.0000
  C   C20       1.0  0.21953833890717087  0.6474393780776564  0.3577740280657834  1.0000
  C   C21       1.0  0.10280002405066571  0.19250530207310126  0.8336205748591607  1.0000
  C   C22       1.0  0.6028006293213934  0.30749449302490456  0.666379975401611  1.0000
  C   C23       1.0  0.8971992165215074  0.8074937237753943  0.16637952032390044  1.0000
  C   C24       1.0  0.39719861125070816  0.6925053550951995  0.3336202192500578  1.0000
  C   C25       1.0  0.0633313863775911  0.31004747136515926  0.8730534993542632  1.0000
  C   C26       1.0  0.5633306637529787  0.18995232807654355  0.6269478412781239  1.0000
  C   C27       1.0  0.9366678541945177  0.6899523767549524  0.12694669529740565  1.0000
  C   C28       1.0  0.4366672588257928  0.8100475218897714  0.3730531611191522  1.0000
  C   C29       1.0  0.7960539228498575  0.9500460557397258  0.5220847504697373  1.0000
  C   C30       1.0  0.29605616777570287  0.54995331636362  0.9779145942517713  1.0000
  C   C31       1.0  0.20394531772136304  0.04995296641645549  0.4779137292215339  1.0000
  C   C32       1.0  0.7039430727964773  0.4500457094848754  0.022085500931289876  1.0000
  C   C33       1.0  0.8586061359048714  0.7815924713135586  0.8629306802598362  1.0000
  C   C34       1.0  0.35860792713354783  0.7184077191032544  0.6370687914655021  1.0000
  C   C35       1.0  0.1413917866732888  0.21840902134982082  0.13706971332874923  1.0000
  C   C36       1.0  0.641393949425293  0.281591303052842  0.36292968822634447  1.0000
  S   S1        1.0  0.7757160349786434  0.8924142025826071  0.6335928440758634  1.0000
  S   S2        1.0  0.2757154947050255  0.6075859912332149  0.8664057834150537  1.0000
  S   S3        1.0  0.22428452358672502  0.10758646596291746  0.36640664229879844  1.0000
  S   S4        1.0  0.7242824278732058  0.39241467915854855  0.13359451070493114  1.0000
  S   S5        1.0  0.9947852243877764  0.8779239046142707  0.9122837364522524  1.0000
  S   S6        1.0  0.49478303345879493  0.6220762716470744  0.5877133719802001  1.0000
  S   S7        1.0  0.005215334176647001  0.1220767602389259  0.08771413443061958  1.0000
  S   S8        1.0  0.5052148891185483  0.3779235727807587  0.41228520717938  1.0000
  N   N1        1.0  0.3105105913267252  0.04109872907948639  0.8188801639420049  1.0000
  N   N2        1.0  0.8105098489054899  0.4589002287573364  0.681119570537625  1.0000
  N   N3        1.0  0.6894899672387851  0.958900294922813  0.18111912349544912  1.0000
  N   N4        1.0  0.18948939166614312  0.5410996175166146  0.3188798163681453  1.0000
  N   N5        1.0  0.8052310593591444  0.9899278812164309  0.44023293688417187  1.0000
  N   N6        1.0  0.3052301883243302  0.5100736702885483  0.059767060611392274  1.0000
  N   N7        1.0  0.19476949920622394  0.010072787329086499  0.5597665494904901  1.0000
  N   N8        1.0  0.6947690522473027  0.48992617598540267  0.9402323262943779  1.0000
  N   N9        1.0  0.7570744730066821  0.7128419570331913  0.828188672328693  1.0000
  N   N10       1.0  0.257074965784696  0.7871565989574447  0.6718121712569666  1.0000
  N   N11       1.0  0.24292344957215314  0.2871570706615074  0.17181223059997555  1.0000
  N   N12       1.0  0.7429255927802672  0.21284324547030306  0.32818640790319614  1.0000
  O   O1        1.0  0.9936649669213652  0.13358895677902888  0.7791341943613331  1.0000
  O   O2        1.0  0.4936641748357858  0.3664108117398044  0.7208657202109733  1.0000
  O   O3        1.0  0.006334273650814703  0.8664100690694668  0.22086590082172813  1.0000
  O   O4        1.0  0.506335065735847  0.6335890345341468  0.2791336666947898  1.0000
