data_image0
_chemical_formula_structural       Ag4H28C20O8
_chemical_formula_sum              "Ag4 H28 C20 O8"
_cell_length_a       5.908958104844271
_cell_length_b       8.877620039057344
_cell_length_c       10.405659037141685
_cell_angle_alpha    90.00013965085336
_cell_angle_beta     90.89535513329405
_cell_angle_gamma    90.00025978652116

_space_group_name_H-M_alt    "P 1"
_space_group_IT_number       1

loop_
  _space_group_symop_operation_xyz
  'x, y, z'

loop_
  _atom_site_type_symbol
  _atom_site_label
  _atom_site_symmetry_multiplicity
  _atom_site_fract_x
  _atom_site_fract_y
  _atom_site_fract_z
  _atom_site_occupancy
  Ag  Ag1       1.0  0.08962079090896678  0.6255893147668273  0.4379504032035941  1.0000
  Ag  Ag2       1.0  0.5896186273784566  0.8744132177193009  0.43795672787064904  1.0000
  Ag  Ag3       1.0  0.9103997777758651  0.374409120067952  0.5620359300267881  1.0000
  Ag  Ag4       1.0  0.41039854131923187  0.12559535496714594  0.5620324525811  1.0000
  H   H1        1.0  0.2607589362595277  0.3389483655374547  0.3347151564018135  1.0000
  H   H2        1.0  0.7607717014805074  0.16105317223333768  0.33471238562496813  1.0000
  H   H3        1.0  0.7392429596186431  0.6610478164335233  0.6652815511416821  1.0000
  H   H4        1.0  0.23920988389476608  0.8389508947150047  0.6652841077601581  1.0000
  H   H5        1.0  0.906630403075809  0.37127733029224425  0.21134795974338524  1.0000
  H   H6        1.0  0.4066443996024915  0.12872763145325192  0.2113504179060328  1.0000
  H   H7        1.0  0.09336980525532822  0.6287222309603776  0.7886477689904015  1.0000
  H   H8        1.0  0.5933405957128458  0.8712640447856472  0.7886413063200952  1.0000
  H   H9        1.0  0.09841451070381169  0.3041008255635446  0.09767736821939374  1.0000
  H   H10       1.0  0.5984258769986894  0.19590787197373058  0.09768236945775041  1.0000
  H   H11       1.0  0.9015941753142869  0.6959021149784023  0.9023155668553077  1.0000
  H   H12       1.0  0.4015692387248038  0.8040860571366507  0.9023161886268058  1.0000
  H   H13       1.0  0.0323918975406414  0.4994290202320356  0.10169717515600503  1.0000
  H   H14       1.0  0.5323997322003392  0.0005840692775934  0.10169582037383412  1.0000
  H   H15       1.0  0.9676116859600086  0.5005795524496364  0.8983005112202991  1.0000
  H   H16       1.0  0.4676021586959891  0.9994121126942447  0.8983018481368251  1.0000
  H   H17       1.0  0.617103256522114  0.6107780829797774  0.09105186003090181  1.0000
  H   H18       1.0  0.1171028201121516  0.8892103567380544  0.09105490304370532  1.0000
  H   H19       1.0  0.3829087746774248  0.3892135932919558  0.9089487984596122  1.0000
  H   H20       1.0  0.8828905333312135  0.11078582523888507  0.9089570907369907  1.0000
  H   H21       1.0  0.46220211647610643  0.7454627660096662  0.17856476350682735  1.0000
  H   H22       1.0  0.962186958092495  0.7545343489980993  0.17857061196447435  1.0000
  H   H23       1.0  0.5378183774810238  0.2545356688380451  0.8214359842310589  1.0000
  H   H24       1.0  0.03780133763770979  0.24546070654267285  0.8214374844034256  1.0000
  H   H25       1.0  0.3186965419837263  0.6231065442345596  0.06882035803862152  1.0000
  H   H26       1.0  0.8186944171324698  0.8768912362029794  0.06882380707254752  1.0000
  H   H27       1.0  0.6813154892589208  0.37689414346137085  0.9311803004651014  1.0000
  H   H28       1.0  0.18130065875780588  0.12310719862639981  0.93118243875594  1.0000
  C   C1        1.0  0.6162799870847379  0.5124749380711932  0.34542879823883527  1.0000
  C   C2        1.0  0.11628387653920669  0.9875466255877543  0.3454321650560105  1.0000
  C   C3        1.0  0.38372358643605503  0.4875302553281385  0.6545708100668579  1.0000
  C   C4        1.0  0.8837078093653402  0.0124698320877457  0.6545750060710704  1.0000
  C   C5        1.0  0.42848887262641  0.5181417360994941  0.24645575755661756  1.0000
  C   C6        1.0  0.9284945372992508  0.9818644510803622  0.24645670267307915  1.0000
  C   C7        1.0  0.5715163834541812  0.481858951591029  0.7535457905242924  1.0000
  C   C8        1.0  0.07149712860785229  0.0181373630342705  0.7535543123012122  1.0000
  C   C9        1.0  0.2541976558317174  0.41970078674097516  0.25556953854046344  1.0000
  C   C10       1.0  0.7542130235024017  0.0803017226171576  0.2555684887629611  1.0000
  C   C11       1.0  0.7458042251062976  0.5802965216606139  0.7444300519061786  1.0000
  C   C12       1.0  0.2457752971316509  0.9196922064912697  0.744434802767458  1.0000
  C   C13       1.0  0.06304020612213887  0.399950864383591  0.16173509474108985  1.0000
  C   C14       1.0  0.5630523627592082  0.10005675749566477  0.16173695005142724  1.0000
  C   C15       1.0  0.9369650748784719  0.6000520761586686  0.8382616485072917  1.0000
  C   C16       1.0  0.4369410604354016  0.8999405508972275  0.8382615901905911  1.0000
  C   C17       1.0  0.45642360603024906  0.630320379921059  0.14022817498693746  1.0000
  C   C18       1.0  0.9564213972149104  0.8696789081862448  0.14023448578564063  1.0000
  C   C19       1.0  0.543588430183469  0.36967805491795497  0.8597715225463178  1.0000
  C   C20       1.0  0.043568571154509114  0.13032065307163518  0.8597774723050193  1.0000
  O   O1        1.0  0.7451795572195296  0.6293476011986455  0.3513866587535262  1.0000
  O   O2        1.0  0.24517895316922278  0.8706573129899268  0.3513877254412777  1.0000
  O   O3        1.0  0.2548239963199919  0.3706463279238931  0.6486167934043297  1.0000
  O   O4        1.0  0.75481104512901  0.1293501332589457  0.64861846685794  1.0000
  O   O5        1.0  0.6417736051014415  0.393550130071894  0.4120962273104001  1.0000
  O   O6        1.0  0.1417790005229733  0.1064569614234827  0.4120841164645059  1.0000
  O   O7        1.0  0.35822655337888426  0.6064426726212062  0.5879091110851535  1.0000
  O   O8        1.0  0.8582195402262371  0.8935538641035025  0.5879067896024568  1.0000
