data_image0
_chemical_formula_structural       Cu4H16C20N12
_chemical_formula_sum              "Cu4 H16 C20 N12"
_cell_length_a       6.455909290873165
_cell_length_b       7.91608042312508
_cell_length_c       12.043608215082438
_cell_angle_alpha    90.00021370490062
_cell_angle_beta     90.00029982247044
_cell_angle_gamma    103.96895629786242

_space_group_name_H-M_alt    "P 1"
_space_group_IT_number       1

loop_
  _space_group_symop_operation_xyz
  'x, y, z'

loop_
  _atom_site_type_symbol
  _atom_site_label
  _atom_site_symmetry_multiplicity
  _atom_site_fract_x
  _atom_site_fract_y
  _atom_site_fract_z
  _atom_site_occupancy
  Cu  Cu1       1.0  0.6908522534944128  0.964722910930739  0.2500002960633978  1.0000
  Cu  Cu2       1.0  0.309146497798956  0.0352832174114823  0.7500016240478614  1.0000
  Cu  Cu3       1.0  0.93921692151428  0.6106774791225007  0.25000021763414537  1.0000
  Cu  Cu4       1.0  0.06078408190992955  0.3893259959012384  0.7499975508973262  1.0000
  H   H1        1.0  0.7271905914498403  0.052150770015927606  0.4873807670188483  1.0000
  H   H2        1.0  0.2728074406709312  0.9478508184825644  0.987381698092598  1.0000
  H   H3        1.0  0.27282220733680174  0.947845971190482  0.512621153100774  1.0000
  H   H4        1.0  0.7271862717589598  0.05215408379286401  0.012621052326082299  1.0000
  H   H5        1.0  0.7870297091245676  0.4554666176330358  0.4698392508688442  1.0000
  H   H6        1.0  0.21296810885351658  0.5445348273177971  0.969839874394381  1.0000
  H   H7        1.0  0.21296139290559782  0.5445252444071684  0.5301551963709983  1.0000
  H   H8        1.0  0.7870356812931975  0.4554725270844243  0.030159554777554796  1.0000
  H   H9        1.0  0.7127557273162353  0.5671829521704409  0.6571278380430597  1.0000
  H   H10       1.0  0.28723293856758403  0.4328186373863119  0.15712991302012816  1.0000
  H   H11       1.0  0.2872415396757759  0.43280880929940224  0.3428691001531376  1.0000
  H   H12       1.0  0.7127681842745162  0.5671900688185901  0.8428711767815995  1.0000
  H   H13       1.0  0.6844308525318468  0.8873282857044061  0.6658996412599476  1.0000
  H   H14       1.0  0.31555792043599246  0.11267337563467093  0.16590185551722667  1.0000
  H   H15       1.0  0.3155841983957687  0.11266580219030692  0.3340997879117822  1.0000
  H   H16       1.0  0.6844315834374229  0.8873329035783968  0.8341000645812711  1.0000
  C   C1        1.0  0.7150258870913575  0.8237200546017718  0.5898102841749662  1.0000
  C   C2        1.0  0.28496391339429294  0.1762822604373611  0.08981173555059738  1.0000
  C   C3        1.0  0.2849814576580272  0.1762741590220358  0.4101899753020816  1.0000
  C   C4        1.0  0.7150286729625749  0.8237239684922176  0.9101918451840588  1.0000
  C   C5        1.0  0.22125500296988332  0.7408111361116527  0.25000103027517884  1.0000
  C   C6        1.0  0.778756965489478  0.2591830020767389  0.7499992292082495  1.0000
  C   C7        1.0  0.780292830197375  0.20746182535262386  0.2499995101865622  1.0000
  C   C8        1.0  0.21970704716901687  0.7925429763354545  0.7500015796087283  1.0000
  C   C9        1.0  0.7384570552990655  0.9170127464048935  0.49065991062193587  1.0000
  C   C10       1.0  0.26153834953485944  0.08299022072164769  0.9906603898629098  1.0000
  C   C11       1.0  0.261550704619026  0.0829827687313198  0.5093420094891599  1.0000
  C   C12       1.0  0.7384542368169421  0.9170160082045342  0.009342360555798698  1.0000
  C   C13       1.0  0.7713769710465428  0.5884600151061505  0.48144637563424186  1.0000
  C   C14       1.0  0.2286159497621725  0.4115402987606204  0.981447553275025  1.0000
  C   C15       1.0  0.22861721347214836  0.4115317966539749  0.5185505625577064  1.0000
  C   C16       1.0  0.7713839275991533  0.5884645029240545  0.018552706204310696  1.0000
  C   C17       1.0  0.7298918467920787  0.651896721160611  0.5848697183594922  1.0000
  C   C18       1.0  0.2700959369878717  0.34810427708974595  0.08487154155316998  1.0000
  C   C19       1.0  0.2701065462780222  0.3480937136584787  0.4151272198366838  1.0000
  C   C20       1.0  0.7298997318321768  0.6519019015427575  0.9151303785538331  1.0000
  N   N1        1.0  0.3950071892928834  0.8322993673781838  0.2500005531317129  1.0000
  N   N2        1.0  0.6049881213343085  0.16769111775157336  0.7500013669559138  1.0000
  N   N3        1.0  0.8371390640107563  0.36055282421674667  0.2500006042151241  1.0000
  N   N4        1.0  0.16285535931837822  0.6394494498887299  0.7499988249375917  1.0000
  N   N5        1.0  0.7743676157531709  0.8492280205233345  0.3924658847210337  1.0000
  N   N6        1.0  0.2256351268676653  0.1507766203473295  0.8924672568967296  1.0000
  N   N7        1.0  0.22563830714196345  0.15077144940300266  0.6075318838124986  1.0000
  N   N8        1.0  0.7743671220626638  0.8492307592136187  0.10753549353687929  1.0000
  N   N9        1.0  0.7953268163204754  0.684413159067084  0.38835648212876345  1.0000
  N   N10       1.0  0.20467475003788854  0.31559277481390785  0.888354870949108  1.0000
  N   N11       1.0  0.20467365255261435  0.31558378328685427  0.6116421167100512  1.0000
  N   N12       1.0  0.7953263727940795  0.6844159313842014  0.1116445582207248  1.0000
