data_image0
_chemical_formula_structural       Zn16H52C112S8Br4O52
_chemical_formula_sum              "Zn16 H52 C112 S8 Br4 O52"
_cell_length_a       18.511182109233065
_cell_length_b       19.71033495310131
_cell_length_c       32.76785000236238
_cell_angle_alpha    85.93379849169902
_cell_angle_beta     73.59189707337569
_cell_angle_gamma    61.99245717478347

_space_group_name_H-M_alt    "P 1"
_space_group_IT_number       1

loop_
  _space_group_symop_operation_xyz
  'x, y, z'

loop_
  _atom_site_type_symbol
  _atom_site_label
  _atom_site_symmetry_multiplicity
  _atom_site_fract_x
  _atom_site_fract_y
  _atom_site_fract_z
  _atom_site_occupancy
  Zn  Zn1       1.0  0.875429441157422  0.5552799777112798  0.5184935273381086  1.0000
  Zn  Zn2       1.0  0.0377116045303579  0.4871825098336872  0.437802963862616  1.0000
  Zn  Zn3       1.0  0.04025003580033358  0.39800319296819014  0.5238156360385631  1.0000
  Zn  Zn4       1.0  0.04772050488853806  0.5589351960448001  0.5191476411934204  1.0000
  Zn  Zn5       1.0  0.6255460638471034  0.19129097088777064  0.731174551221784  1.0000
  Zn  Zn6       1.0  0.4638460343692684  0.34910153620063517  0.7250413735412734  1.0000
  Zn  Zn7       1.0  0.46009495280035395  0.26505420546276076  0.8127307622207383  1.0000
  Zn  Zn8       1.0  0.4515822358760529  0.19240204726711607  0.7303407815272464  1.0000
  Zn  Zn9       1.0  0.46174284066292154  0.7641498188413823  0.3127680961116965  1.0000
  Zn  Zn10      1.0  0.4507884725502932  0.6940304067023251  0.23126559472367347  1.0000
  Zn  Zn11      1.0  0.6255329448721553  0.6920629037613042  0.23001085323696197  1.0000
  Zn  Zn12      1.0  0.46058915111604654  0.8514303653722238  0.22577719845291713  1.0000
  Zn  Zn13      1.0  0.037559644461438724  0.898841467071691  0.024000846650764608  1.0000
  Zn  Zn14      1.0  0.04866021417348779  0.05748415377043161  0.019108384972739097  1.0000
  Zn  Zn15      1.0  0.8749641914680593  0.058098702076819116  0.019366961262861023  1.0000
  Zn  Zn16      1.0  0.03745934298871132  0.9856834443634314  0.937373110217898  1.0000
  H   H1        1.0  0.8029404290361555  0.9662061993932486  0.655400349231293  1.0000
  H   H2        1.0  0.311050734328461  0.9764155295895308  0.4015374926824649  1.0000
  H   H3        1.0  0.908174609954436  0.29166539437555633  0.6045657246990216  1.0000
  H   H4        1.0  0.8132584761122742  0.24404111804559403  0.6520617961720632  1.0000
  H   H5        1.0  0.5406839145798157  0.4844919514336328  0.621535035811398  1.0000
  H   H6        1.0  0.545866085649166  0.5246467852840484  0.6670451082895354  1.0000
  H   H7        1.0  0.6422759821838679  0.5729374402335808  0.6188393804066692  1.0000
  H   H8        1.0  0.6369754674899611  0.5327545560181837  0.5733805235191908  1.0000
  H   H9        1.0  0.19609430465827413  0.5529654414921128  0.3436249712348953  1.0000
  H   H10       1.0  0.29110313042001923  0.6004914529871999  0.2962004947367091  1.0000
  H   H11       1.0  0.3534498950214411  0.6747176749643561  0.431810969157425  1.0000
  H   H12       1.0  0.26250479759686135  0.763020757163858  0.42911318717874275  1.0000
  H   H13       1.0  0.1660221446653194  0.7148192350752114  0.47727200565714867  1.0000
  H   H14       1.0  0.2569410968918006  0.6265242083465526  0.4799668909553318  1.0000
  H   H15       1.0  0.9074620767650359  0.5529532449848987  0.343551908918613  1.0000
  H   H16       1.0  0.8124515930251518  0.6005054897722675  0.29608400656559297  1.0000
  H   H17       1.0  0.5454527297885076  0.7631047473398312  0.4290249685244519  1.0000
  H   H18       1.0  0.5400533365191436  0.6748435316866621  0.43168308809463696  1.0000
  H   H19       1.0  0.6366064699849614  0.6264783408361155  0.47979679309294443  1.0000
  H   H20       1.0  0.642019456503881  0.714724179871894  0.4771899718301709  1.0000
  H   H21       1.0  0.20912410015885272  0.5058674711431552  0.5979364922996737  1.0000
  H   H22       1.0  0.3041514526904192  0.45832392491851  0.6454208580744947  1.0000
  H   H23       1.0  0.33393186329448804  0.17703936423894362  0.6311542749386233  1.0000
  H   H24       1.0  0.2430124250669579  0.21714792937426358  0.6766273401393761  1.0000
  H   H25       1.0  0.1465945688896254  0.2653655219750633  0.6284801859916271  1.0000
  H   H26       1.0  0.2374827973500401  0.2252476818042909  0.5829905272502671  1.0000
  H   H27       1.0  0.1890925511679455  0.6595385009601459  0.9624155468329079  1.0000
  H   H28       1.0  0.5920530351831631  0.1972437620011506  0.9064718509556046  1.0000
  H   H29       1.0  0.6870633207433272  0.14981652145841204  0.9539370882776339  1.0000
  H   H30       1.0  0.9594304317092862  0.07549716349792851  0.8184096025825339  1.0000
  H   H31       1.0  0.9541921817002218  0.9871958583686296  0.8210638911249432  1.0000
  H   H32       1.0  0.8578708192660612  0.035274209039343425  0.7728735720543085  1.0000
  H   H33       1.0  0.8631064407509469  0.12360569327137941  0.7702107295848035  1.0000
  H   H34       1.0  0.2906408613109548  0.10013823124457133  0.7961696012220542  1.0000
  H   H35       1.0  0.19566453487455246  0.052720808643037714  0.8436754164690399  1.0000
  H   H36       1.0  0.16605177734600574  0.2147169008011077  0.9771578732798858  1.0000
  H   H37       1.0  0.25697508326248913  0.12642649562815933  0.9798564409473726  1.0000
  H   H38       1.0  0.3533824992124153  0.17452800600670323  0.9315976987858078  1.0000
  H   H39       1.0  0.26249147327408906  0.26281044340188237  0.9289272912725862  1.0000
  H   H40       1.0  0.9253155625586088  0.28362000621619643  0.09455333207075964  1.0000
  H   H41       1.0  0.29057414001418636  0.7445206530460312  0.1519776334020904  1.0000
  H   H42       1.0  0.1956652148006483  0.7919500890642158  0.10448118817095062  1.0000
  H   H43       1.0  0.2569669411406322  0.0331336336296602  0.07319872580814751  1.0000
  H   H44       1.0  0.1659668539133889  0.07323702053130182  0.11867358176861836  1.0000
  H   H45       1.0  0.2622770412249907  0.024954562989421405  0.1668880272487812  1.0000
  H   H46       1.0  0.35325173841363955  0.9847950784302317  0.12144435164130132  1.0000
  H   H47       1.0  0.5921290682752341  0.9583924654432252  0.1453799204431333  1.0000
  H   H48       1.0  0.6872007192113045  0.005749774439124202  0.09788932697962589  1.0000
  H   H49       1.0  0.9541710537388892  0.7250883700566395  0.08304039323487433  1.0000
  H   H50       1.0  0.9594922400146187  0.76526723076573  0.12850192829018428  1.0000
  H   H51       1.0  0.8631220888077775  0.7171580090272374  0.17669677664767383  1.0000
  H   H52       1.0  0.8577971255009517  0.6769170322583665  0.13126479380064635  1.0000
  C   C1        1.0  0.8626157629915169  0.5684755458569841  0.4302174395410531  1.0000
  C   C2        1.0  0.12266765481582806  0.3165974537680328  0.4384865556695131  1.0000
  C   C3        1.0  0.8633213867660533  0.4292866317275356  0.5689373652507043  1.0000
  C   C4        1.0  0.13850811913776787  0.4322027130570022  0.56892292011009  1.0000
  C   C5        1.0  0.8766628702929962  0.683384611586739  0.5609062293882374  1.0000
  C   C6        1.0  0.1379656303084715  0.5691952818235535  0.43029551452756454  1.0000
  C   C7        1.0  0.6400861943169217  0.31732315976491793  0.6808048716621329  1.0000
  C   C8        1.0  0.377698715995507  0.4338256269519648  0.8107024337093519  1.0000
  C   C9        1.0  0.6367264864537105  0.18127717915220398  0.819774487724416  1.0000
  C   C10       1.0  0.3613145517479238  0.18050544373957686  0.8184150989648699  1.0000
  C   C11       1.0  0.6229948043311992  0.06546265242239711  0.6884705894349636  1.0000
  C   C12       1.0  0.3623825017802886  0.32008832805707504  0.6805039902165717  1.0000
  C   C13       1.0  0.36166328923374635  0.6807376347560851  0.31876324772568404  1.0000
  C   C14       1.0  0.6218083550907137  0.566524370051731  0.1886342835904884  1.0000
  C   C15       1.0  0.6390797044885159  0.6805599572143853  0.3184662464504981  1.0000
  C   C16       1.0  0.6366563132317036  0.8204019432043171  0.18067440770200702  1.0000
  C   C17       1.0  0.3768464460086846  0.9341167000874151  0.31158097380946254  1.0000
  C   C18       1.0  0.3611076212214711  0.818408170442176  0.18093606347542124  1.0000
  C   C19       1.0  0.13792127662425446  0.92988807521634  0.0689680636198418  1.0000
  C   C20       1.0  0.8778565266434059  0.1843354804306402  0.061409465403386224  1.0000
  C   C21       1.0  0.8605124204128244  0.9319634995431091  0.06903181624774389  1.0000
  C   C22       1.0  0.8603774682462698  0.06977679877111602  0.9314874220176462  1.0000
  C   C23       1.0  0.12235729278810925  0.8155824213896498  0.938585967440737  1.0000
  C   C24       1.0  0.1378176859632489  0.06866506817770811  0.9303937290445602  1.0000
  C   C25       1.0  0.736772155235776  0.8023621681711011  0.6007920917384836  1.0000
  C   C26       1.0  0.760163973321944  0.9474915429123528  0.6491721843745211  1.0000
  C   C27       1.0  0.8249059297739688  0.7580180151907857  0.5859761164144501  1.0000
  C   C28       1.0  0.6722601056830939  0.9905257404317072  0.6635178238961855  1.0000
  C   C29       1.0  0.7838772766642987  0.8787349797077587  0.626230537581435  1.0000
  C   C30       1.0  0.7131899073509088  0.8711342083280232  0.623711561725159  1.0000
  C   C31       1.0  0.2017024008056011  0.22792118745501008  0.3685361509076799  1.0000
  C   C32       1.0  0.29856854304335917  0.02274646528501021  0.3801588036849636  1.0000
  C   C33       1.0  0.1722956543521476  0.24283585849143932  0.41263288461694697  1.0000
  C   C34       1.0  0.32718083968165956  0.009348594243498102  0.3362069001215744  1.0000
  C   C35       1.0  0.2527303960710796  0.10254201207372665  0.3920506918451848  1.0000
  C   C36       1.0  0.24757965040048893  0.14802971513015  0.35672582481306137  1.0000
  C   C37       1.0  0.6963756488444159  0.3463042283199728  0.652474186599747  1.0000
  C   C38       1.0  0.8061500316562585  0.4014010361733187  0.5975214624516667  1.0000
  C   C39       1.0  0.6642557084679055  0.4189118659846757  0.6365383085833116  1.0000
  C   C40       1.0  0.8392065146241235  0.32779828181836035  0.6135689626771779  1.0000
  C   C41       1.0  0.7175877466043872  0.4456708481745297  0.6098412216926263  1.0000
  C   C42       1.0  0.7860386707680079  0.30111677345205123  0.6401800427255678  1.0000
  C   C43       1.0  0.5835284814787584  0.4919919927291119  0.6359805922740591  1.0000
  C   C44       1.0  0.6438885962835528  0.5222558723915044  0.6057848284419549  1.0000
  C   C45       1.0  0.30509712649769927  0.6522607094757833  0.3472757002557287  1.0000
  C   C46       1.0  0.19514714485333665  0.5973610834209712  0.40210714484096133  1.0000
  C   C47       1.0  0.28053402954948564  0.6644555217889022  0.3915185771928975  1.0000
  C   C48       1.0  0.21986285964020866  0.5845264309706412  0.3572601905491481  1.0000
  C   C49       1.0  0.22714194235944504  0.6377850670946332  0.4181603465360837  1.0000
  C   C50       1.0  0.2731140071236664  0.6111516163102596  0.3306880269684243  1.0000
  C   C51       1.0  0.28865654041621264  0.7001085238319293  0.42835042795856276  1.0000
  C   C52       1.0  0.22818296882768146  0.6699004578372227  0.45852644779216684  1.0000
  C   C53       1.0  0.6955438899654779  0.6522728577095125  0.347073493736147  1.0000
  C   C54       1.0  0.8054896147909502  0.5971995579789536  0.4020070612890692  1.0000
  C   C55       1.0  0.6635861262993074  0.6645023863133944  0.3913480602609241  1.0000
  C   C56       1.0  0.8384939451986354  0.5845267761210738  0.3571693029549436  1.0000
  C   C57       1.0  0.7169932385015015  0.6377582783969517  0.4180167511521304  1.0000
  C   C58       1.0  0.7852264020493605  0.6112048645054816  0.33056760239720256  1.0000
  C   C59       1.0  0.5829672557625042  0.7001882519101915  0.42821398138388395  1.0000
  C   C60       1.0  0.6434558051594832  0.6698971361531822  0.45838761851196347  1.0000
  C   C61       1.0  0.30506689605400783  0.34843238836676715  0.6523720980084491  1.0000
  C   C62       1.0  0.19505710991459313  0.4035086580009166  0.5974641776831007  1.0000
  C   C63       1.0  0.2729306580702299  0.30425405578703396  0.6401600383251633  1.0000
  C   C64       1.0  0.2271277409032989  0.44877972870608585  0.6098069614726211  1.0000
  C   C65       1.0  0.21952469422584636  0.3309808053547061  0.613469642250422  1.0000
  C   C66       1.0  0.28038894792794616  0.4221430987126313  0.6364026788206658  1.0000
  C   C67       1.0  0.27180419558692404  0.22767180387592845  0.6442337281278866  1.0000
  C   C68       1.0  0.21137230079138183  0.2578885760648859  0.6140524654448143  1.0000
  C   C69       1.0  0.298455900168669  0.5831192469968798  0.8201576133234525  1.0000
  C   C70       1.0  0.20151860324486384  0.6684206724017587  0.9285547313908324  1.0000
  C   C71       1.0  0.32789046352959866  0.509498664176782  0.8347150974883917  1.0000
  C   C72       1.0  0.17274843018517305  0.7410224433530604  0.9132572852803165  1.0000
  C   C73       1.0  0.24741004255999122  0.6106315913623633  0.8946141098916057  1.0000
  C   C74       1.0  0.25252962878359847  0.6408268123375224  0.8541818005656481  1.0000
  C   C75       1.0  0.8039163807919605  0.09801453540153206  0.9029324898251757  1.0000
  C   C76       1.0  0.6939159943872825  0.15288851786219487  0.8480025824143027  1.0000
  C   C77       1.0  0.8358771804765935  0.08573147095278703  0.8586698413521104  1.0000
  C   C78       1.0  0.6610052113907727  0.16565001896918832  0.8928404854645109  1.0000
  C   C79       1.0  0.7824867842204525  0.11238274895308112  0.8319787240020631  1.0000
  C   C80       1.0  0.7142483734065193  0.13909469091884574  0.9194569017030858  1.0000
  C   C81       1.0  0.91657060648906  0.05010687630672813  0.8218629146167657  1.0000
  C   C82       1.0  0.8561961822313435  0.08026075901838683  0.7916544765258847  1.0000
  C   C83       1.0  0.1947982634334409  0.09710601489415184  0.902138740746544  1.0000
  C   C84       1.0  0.30477956398819117  0.15201928629026187  0.8470893055210381  1.0000
  C   C85       1.0  0.2269437940465194  0.13756188066885505  0.9180829059885127  1.0000
  C   C86       1.0  0.2726748476577043  0.11088938730406284  0.8306482664481862  1.0000
  C   C87       1.0  0.28031569199698225  0.16425393736663818  0.8913576595807697  1.0000
  C   C88       1.0  0.21941290311485054  0.08430766107210275  0.8572928911654145  1.0000
  C   C89       1.0  0.22816099735469209  0.16973815286086597  0.9583959925808118  1.0000
  C   C90       1.0  0.2885848420081201  0.1999021963738842  0.9281510811649553  1.0000
  C   C91       1.0  0.6407208654541847  0.44733319716212355  0.1490897744580764  1.0000
  C   C92       1.0  0.857627035118746  0.30228044843563856  0.10075645548369042  1.0000
  C   C93       1.0  0.6698087928373083  0.4916621322010076  0.16385491247729086  1.0000
  C   C94       1.0  0.8272062305505373  0.25920818314639865  0.08637796371709774  1.0000
  C   C95       1.0  0.7896313152655664  0.3709876354714795  0.12367707493844896  1.0000
  C   C96       1.0  0.7088414392870988  0.3785385104894063  0.12618876701207427  1.0000
  C   C97       1.0  0.19486880047236332  0.9017948286191388  0.09732593674803519  1.0000
  C   C98       1.0  0.3046327200325862  0.8469282242331818  0.15238935078866683  1.0000
  C   C99       1.0  0.2268912815561561  0.9460327171869102  0.10960053530091331  1.0000
  C   C100      1.0  0.2726148803858022  0.8015869586353975  0.1400723358560896  1.0000
  C   C101      1.0  0.2801705899153929  0.9193741084824157  0.1363371471966843  1.0000
  C   C102      1.0  0.21945513543388975  0.8281790211218979  0.11341691287307037  1.0000
  C   C103      1.0  0.22807688360283146  0.022602784309626103  0.10557443546667139  1.0000
  C   C104      1.0  0.2884252742773794  0.9923593712359353  0.1358085932195294  1.0000
  C   C105      1.0  0.8040320630144816  0.9033204314199713  0.09747923037126333  1.0000
  C   C106      1.0  0.6939829108923378  0.8484695795617586  0.15242049159350293  1.0000
  C   C107      1.0  0.8359624433500128  0.8308098477244886  0.11349237125965325  1.0000
  C   C108      1.0  0.6610748947163497  0.9221225282061812  0.13639444004989087  1.0000
  C   C109      1.0  0.7825276596294726  0.8041597373072309  0.14018614312826125  1.0000
  C   C110      1.0  0.7143626175428393  0.9486784498166688  0.10978436632871084  1.0000
  C   C111      1.0  0.9166015273410437  0.7577725116837829  0.11409584535095971  1.0000
  C   C112      1.0  0.8561815399654124  0.7275956655448398  0.1443037728285645  1.0000
  S   S1        1.0  0.8787366712965934  0.800998956760097  0.6003049408889822  1.0000
  S   S2        1.0  0.6178903825379435  0.9481808895171757  0.6493763145015308  1.0000
  S   S3        1.0  0.201021972038923  0.15860831570689982  0.4395169313838494  1.0000
  S   S4        1.0  0.2988870215717726  0.09305727751176822  0.3090509724588343  1.0000
  S   S5        1.0  0.29911533731939244  0.5113642254095582  0.890291997207413  1.0000
  S   S6        1.0  0.20117170160445122  0.7398273610894607  0.8578168405830624  1.0000
  S   S7        1.0  0.7809084239600284  0.4486994277581788  0.14956203778592675  1.0000
  S   S8        1.0  0.7163260038344459  0.30148876109596057  0.1004980216989608  1.0000
  Br  Br1       1.0  0.6538385539401759  0.7790245042388196  0.5930617647793639  1.0000
  Br  Br2       1.0  0.18615992462070338  0.30038144626704627  0.3271064493440576  1.0000
  Br  Br3       1.0  0.3142290385553108  0.6090064490913111  0.7631659143787743  1.0000
  Br  Br4       1.0  0.5267959624420229  0.47068798500458114  0.15679710052525306  1.0000
  O   O1        1.0  0.0006383242169575329  0.4996752947641171  0.5003130148293238  1.0000
  O   O2        1.0  0.8261165625567484  0.5827099135060224  0.4703413679838063  1.0000
  O   O3        1.0  0.1018279243857377  0.3775380687860236  0.4184598327628564  1.0000
  O   O4        1.0  0.9435392925935132  0.38433503350772485  0.5595156286478655  1.0000
  O   O5        1.0  0.9427744900706188  0.5322108374576474  0.41230334702648  1.0000
  O   O6        1.0  0.8264245853866257  0.4966592601253412  0.5561470372788264  1.0000
  O   O7        1.0  0.10499651671338482  0.3124228631502107  0.47905462878826904  1.0000
  O   O8        1.0  0.11400660545857019  0.3860780820036923  0.559475317051735  1.0000
  O   O9        1.0  0.9577266011648716  0.6565904469743348  0.5516353624184943  1.0000
  O   O10       1.0  0.11928151400379518  0.49977865249036313  0.5563112772299803  1.0000
  O   O11       1.0  0.8367997930114441  0.6524008431650473  0.5507210515395824  1.0000
  O   O12       1.0  0.1126747397108332  0.5323869502321372  0.4122776224220672  1.0000
  O   O13       1.0  0.1188712997423948  0.5844808073227414  0.4703825581326058  1.0000
  O   O14       1.0  0.500395036442015  0.24900994375861535  0.7501099743366524  1.0000
  O   O15       1.0  0.6756782215831264  0.24981093440500518  0.69354103075392  1.0000
  O   O16       1.0  0.3990203600673538  0.4332712259532841  0.7701993089582402  1.0000
  O   O17       1.0  0.556513969958189  0.21844528836321334  0.8375449014894087  1.0000
  O   O18       1.0  0.559983100379526  0.36318647481422783  0.689989465858865  1.0000
  O   O19       1.0  0.6735241899417231  0.1656782969244404  0.7797270872274922  1.0000
  O   O20       1.0  0.39506861649961394  0.37506505184064326  0.8330697155813027  1.0000
  O   O21       1.0  0.385887881973332  0.2178232018435723  0.8366423882789249  1.0000
  O   O22       1.0  0.5417543505784649  0.09496354347611201  0.6978025243542092  1.0000
  O   O23       1.0  0.3804142206675253  0.16562143904265983  0.778322232672977  1.0000
  O   O24       1.0  0.6656725937522694  0.09386803280624893  0.6983950114479569  1.0000
  O   O25       1.0  0.3882827894184473  0.3651304903743765  0.6897940504114857  1.0000
  O   O26       1.0  0.38100419842873373  0.25243476340951804  0.6929914457219438  1.0000
  O   O27       1.0  0.5003263558142945  0.7506352532601642  0.25015760599711706  1.0000
  O   O28       1.0  0.38679524894364875  0.7176370612209981  0.336967305475774  1.0000
  O   O29       1.0  0.5408311012992256  0.5971453158927248  0.19899610039077942  1.0000
  O   O30       1.0  0.6747565482215517  0.6659022873158806  0.27837862743421476  1.0000
  O   O31       1.0  0.38037752230435024  0.6661694640290606  0.27870769779272564  1.0000
  O   O32       1.0  0.5589227763617188  0.717434064186904  0.33684515762731587  1.0000
  O   O33       1.0  0.6664933946335837  0.5941195755670281  0.19751471141568536  1.0000
  O   O34       1.0  0.6731586133792289  0.7526013305040922  0.19298290425977171  1.0000
  O   O35       1.0  0.3956453509947762  0.9360126527368424  0.2709668218485106  1.0000
  O   O36       1.0  0.5564767471294941  0.8658084660032658  0.19020633216675978  1.0000
  O   O37       1.0  0.3963275973500373  0.8743447620819681  0.3328671455059008  1.0000
  O   O38       1.0  0.38012362415412315  0.7509459512872073  0.1936132546383575  1.0000
  O   O39       1.0  0.3858414545399567  0.8643468401647215  0.1904182052665604  1.0000
  O   O40       1.0  6.0505081442664994e-05  0.9999578291341821  0.9999694824054044  1.0000
  O   O41       1.0  0.1126002549457821  0.884569078621674  0.05942467716031531  1.0000
  O   O42       1.0  0.9589476154901818  0.15534670752594346  0.05173571709318742  1.0000
  O   O43       1.0  0.8248550819996651  0.9997548539519131  0.056712923398748685  1.0000
  O   O44       1.0  0.11915809952221666  0.9976317770667081  0.05655691618222392  1.0000
  O   O45       1.0  0.9406260244050484  0.8857250654557806  0.05932690434372744  1.0000
  O   O46       1.0  0.8352852844428893  0.15534981179113325  0.05177195341084942  1.0000
  O   O47       1.0  0.824727137950987  0.08514528123126303  0.9715481022862561  1.0000
  O   O48       1.0  0.10265617634983906  0.8756507877171562  0.9173897036881016  1.0000
  O   O49       1.0  0.9404841067253997  0.032209391154559314  0.9132013439930375  1.0000
  O   O50       1.0  0.10299814465927415  0.813465440319675  0.9790890941633137  1.0000
  O   O51       1.0  0.11922497487316257  0.08377199117121853  0.970478163426968  1.0000
  O   O52       1.0  0.1123214521830889  0.0318497276927374  0.9125138585402937  1.0000
