data_image0
_chemical_formula_structural       V8Ni2H64C24N12O24
_chemical_formula_sum              "V8 Ni2 H64 C24 N12 O24"
_cell_length_a       9.348395210006464
_cell_length_b       9.696146141914081
_cell_length_c       13.666999843985211
_cell_angle_alpha    103.28866496650039
_cell_angle_beta     90.00001779075268
_cell_angle_gamma    90.00012472537931

_space_group_name_H-M_alt    "P 1"
_space_group_IT_number       1

loop_
  _space_group_symop_operation_xyz
  'x, y, z'

loop_
  _atom_site_type_symbol
  _atom_site_label
  _atom_site_symmetry_multiplicity
  _atom_site_fract_x
  _atom_site_fract_y
  _atom_site_fract_z
  _atom_site_occupancy
  V   V1        1.0  0.10750086378989468  0.8646226142521203  0.7231543722920648  1.0000
  V   V2        1.0  0.6075030149790024  0.6353696720247511  0.7768433768081878  1.0000
  V   V3        1.0  0.8924924342043073  0.13537779454790672  0.2768441170385927  1.0000
  V   V4        1.0  0.39249670123773944  0.36463708493491953  0.2231620064913926  1.0000
  V   V5        1.0  0.9598382570602481  0.5607422174266786  0.7148330866049832  1.0000
  V   V6        1.0  0.45983844009004565  0.9392466348322015  0.7851692964664424  1.0000
  V   V7        1.0  0.04015611064092179  0.4392613629218117  0.2851703126750209  1.0000
  V   V8        1.0  0.5401591367109689  0.060751654550166685  0.2148288454971663  1.0000
  Ni  Ni1       1.0  2.7352180609999946e-07  0.9999992528541167  0.9999989251768965  1.0000
  Ni  Ni2       1.0  0.5000019975091662  0.5000002006128524  0.500001439115195  1.0000
  H   H1        1.0  0.1783944727916804  0.1773111723918248  0.08604857310616862  1.0000
  H   H2        1.0  0.6783938955336737  0.3226830857240586  0.4139497349356276  1.0000
  H   H3        1.0  0.8216084525221349  0.8226881767080201  0.9139497425431813  1.0000
  H   H4        1.0  0.3216058206750744  0.6773173180256009  0.5860516803279694  1.0000
  H   H5        1.0  0.26549614792769927  0.08078985020539867  0.9874514062470752  1.0000
  H   H6        1.0  0.765496676073319  0.4192048874344039  0.5125440637463257  1.0000
  H   H7        1.0  0.7345057076824164  0.9192084404463541  0.012546004235041154  1.0000
  H   H8        1.0  0.23450624923854244  0.5807923384495055  0.4874560989829959  1.0000
  H   H9        1.0  0.5770279939403623  0.3746476633338958  0.8654229403850806  1.0000
  H   H10       1.0  0.0770284767241733  0.1253455704990358  0.6345773648665585  1.0000
  H   H11       1.0  0.4229706525671304  0.6253538013902756  0.13457791707959643  1.0000
  H   H12       1.0  0.9229691000780634  0.8746537785946273  0.365420950781207  1.0000
  H   H13       1.0  0.5484496399391147  0.20433129826695756  0.8813894038208758  1.0000
  H   H14       1.0  0.0484483572114272  0.29566080732548977  0.6186121738138796  1.0000
  H   H15       1.0  0.45155007627020183  0.7956701702517748  0.11860925919583559  1.0000
  H   H16       1.0  0.9515524287005307  0.7043406586655864  0.38138795216867283  1.0000
  H   H17       1.0  0.7757194627144629  0.03189367651479098  0.846116990977933  1.0000
  H   H18       1.0  0.2757207210464827  0.46810319277795986  0.653885415773658  1.0000
  H   H19       1.0  0.22427918379238326  0.9681077932671583  0.15388094055570184  1.0000
  H   H20       1.0  0.7242800648600041  0.5318929695988501  0.3461167677191526  1.0000
  H   H21       1.0  0.9319666712342995  0.10267685443291441  0.8058369905666112  1.0000
  H   H22       1.0  0.4319667195804726  0.3973182575343089  0.6941644297189598  1.0000
  H   H23       1.0  0.06803197527131738  0.8973235556377334  0.19416076728287382  1.0000
  H   H24       1.0  0.5680340663260212  0.6026779048424942  0.3058377537738579  1.0000
  H   H25       1.0  0.21932270907657886  0.3186850185411245  0.9672071566484703  1.0000
  H   H26       1.0  0.7193227140508968  0.18131066585517888  0.5327921171414332  1.0000
  H   H27       1.0  0.7806791465335295  0.6813132721106284  0.032790253833646  1.0000
  H   H28       1.0  0.2806802112625064  0.8186876172111467  0.4672096822375594  1.0000
  H   H29       1.0  0.14899709216731344  0.1789548237635685  0.8724208192767833  1.0000
  H   H30       1.0  0.6490006614475946  0.32104387862668904  0.627578202501951  1.0000
  H   H31       1.0  0.8510036937408075  0.8210434643580626  0.12757805417054166  1.0000
  H   H32       1.0  0.35100012446101664  0.6789544057016101  0.3724228653936521  1.0000
  H   H33       1.0  0.5773337285435359  0.3608626993719568  0.0422037790101015  1.0000
  H   H34       1.0  0.07733545701468361  0.13912813990290124  0.45779760563879535  1.0000
  H   H35       1.0  0.4226670573661337  0.6391366459320834  0.9577967310868942  1.0000
  H   H36       1.0  0.9226653288969474  0.8608733286170748  0.5422010573782288  1.0000
  H   H37       1.0  0.735788801094131  0.4304357817341398  0.0010588774666259928  1.0000
  H   H38       1.0  0.23579146208864193  0.06956072203111321  0.498943469294197  1.0000
  H   H39       1.0  0.2642119848152192  0.5695635660987931  0.9989401696648486  1.0000
  H   H40       1.0  0.7642082541206747  0.9304407464876261  0.5010551937225146  1.0000
  H   H41       1.0  0.7906975150895619  0.252969867301637  0.10341270294140512  1.0000
  H   H42       1.0  0.29069410896846654  0.24702782550183136  0.396588387002531  1.0000
  H   H43       1.0  0.20930434052193905  0.7470294817969717  0.8965856127076323  1.0000
  H   H44       1.0  0.7093077466458055  0.7529736404904881  0.6034117389803342  1.0000
  H   H45       1.0  0.6868453030447484  0.12429462080892507  0.019590951885326998  1.0000
  H   H46       1.0  0.18684329216144147  0.37570070894609836  0.4804119237335486  1.0000
  H   H47       1.0  0.3131554828644312  0.8757047282884476  0.9804073637633907  1.0000
  H   H48       1.0  0.8131607028574663  0.6243007570486938  0.519588202249949  1.0000
  H   H49       1.0  0.8122565489938581  0.3361234412073202  0.817878205730807  1.0000
  H   H50       1.0  0.31225713932525423  0.16387245275133472  0.6821240489399685  1.0000
  H   H51       1.0  0.18774209751347123  0.6638780247812904  0.18212192025110605  1.0000
  H   H52       1.0  0.6877404374707013  0.8361215990502797  0.31787266680425563  1.0000
  H   H53       1.0  0.7092686437072687  0.19396568075462284  0.7446132299932345  1.0000
  H   H54       1.0  0.20926851530000332  0.3060310350763942  0.7553891374670981  1.0000
  H   H55       1.0  0.2907321422057479  0.8060368462122014  0.2553863381907107  1.0000
  H   H56       1.0  0.790732270601261  0.6939608909841084  0.24461088832357802  1.0000
  H   H57       1.0  0.9857182484893772  0.3473561253000809  0.05714020907998219  1.0000
  H   H58       1.0  0.4857146519679533  0.1526409581686679  0.4428608224910491  1.0000
  H   H59       1.0  0.0142836071219605  0.652643225062974  0.942857375086291  1.0000
  H   H60       1.0  0.514287203642816  0.8473573274253071  0.5571395139221096  1.0000
  H   H61       1.0  0.9662231437854418  0.3684050123868516  0.9320511519109972  1.0000
  H   H62       1.0  0.46622468032479253  0.13159335782717108  0.5679508096825501  1.0000
  H   H63       1.0  0.03377871182466661  0.6315932782649013  0.0679462585711192  1.0000
  H   H64       1.0  0.5337771752859696  0.8684049277668038  0.4320495267306087  1.0000
  C   C1        1.0  0.8387475039721152  0.12946201735025653  0.8549874090703541  1.0000
  C   C2        1.0  0.3387474703188786  0.37053393904978554  0.6450141297809822  1.0000
  C   C3        1.0  0.16125007283331172  0.870540514670644  0.1450092331816037  1.0000
  C   C4        1.0  0.6612522458861961  0.6294632855659754  0.3549867644301514  1.0000
  C   C5        1.0  0.1396116021551563  0.23279299744375953  0.9520240670787103  1.0000
  C   C6        1.0  0.6396107364223127  0.267205684531163  0.5479742176665283  1.0000
  C   C7        1.0  0.8603891837550889  0.7672074126293609  0.04797369077139989  1.0000
  C   C8        1.0  0.36039004948629844  0.7327925997971293  0.4520268502290747  1.0000
  C   C9        1.0  0.6719437330650563  0.3335913623743991  0.9942241276774837  1.0000
  C   C10       1.0  0.17194211046587074  0.16640314404159537  0.5057800647930009  1.0000
  C   C11       1.0  0.3280581225478302  0.6664090451710648  0.005775093138467471  1.0000
  C   C12       1.0  0.8280597451468522  0.8335972647683151  0.4942184245401862  1.0000
  C   C13       1.0  0.7565119106583538  0.2169617927465026  0.025212041114905007  1.0000
  C   C14       1.0  0.25651075962307596  0.2830358185831585  0.4747904915820484  1.0000
  C   C15       1.0  0.24348994495314716  0.7830375563521058  0.9747862745341251  1.0000
  C   C16       1.0  0.7434910959925815  0.7169667058560094  0.5252105395677376  1.0000
  C   C17       1.0  0.7501313413395465  0.24067940710964558  0.820021069987547  1.0000
  C   C18       1.0  0.25013321395733373  0.25931740435559186  0.6799805901517928  1.0000
  C   C19       1.0  0.24986730516990724  0.7593241808304539  0.1799779403971584  1.0000
  C   C20       1.0  0.7498675719472773  0.7406777033677016  0.3200184937258257  1.0000
  C   C21       1.0  0.9914338121157231  0.2914872461115507  0.9775326534914726  1.0000
  C   C22       1.0  0.49143015181442723  0.2085111835819049  0.522468591524266  1.0000
  C   C23       1.0  0.008568043494555902  0.7085110432757559  0.02246548847340788  1.0000
  C   C24       1.0  0.5085717037963421  0.7914871020120701  0.4775317448888927  1.0000
  N   N1        1.0  0.8853502276037447  0.17291086753893836  0.9616967078536123  1.0000
  N   N2        1.0  0.3853489791171754  0.32708519774750033  0.5383041270697291  1.0000
  N   N3        1.0  0.11465269770990723  0.827088482825353  0.038300876312980826  1.0000
  N   N4        1.0  0.6146528764939208  0.6729130853175819  0.4616976723089508  1.0000
  N   N5        1.0  0.16860555347920336  0.12664325418865022  0.011476521120641804  1.0000
  N   N6        1.0  0.6686061927759683  0.3733520410336054  0.4885219548176991  1.0000
  N   N7        1.0  0.8313963021324613  0.8733560936455118  0.9885225260111524  1.0000
  N   N8        1.0  0.3313967325398792  0.6266483614553097  0.511480191929607  1.0000
  N   N9        1.0  0.6254105361573751  0.28660929328349033  0.8876308482466087  1.0000
  N   N10       1.0  0.1254122756449121  0.21338193033303549  0.6123706012101096  1.0000
  N   N11       1.0  0.37458918004859504  0.7133889935724581  0.11236875668316061  1.0000
  N   N12       1.0  0.8745874405656265  0.7866205978969986  0.38762823549075887  1.0000
  O   O1        1.0  0.0503585035041425  0.9015067501232962  0.8408686526044846  1.0000
  O   O2        1.0  0.5503701466215177  0.5984790459333738  0.6591280206066656  1.0000
  O   O3        1.0  0.9496380036014926  0.0984968314921133  0.15913401519339487  1.0000
  O   O4        1.0  0.44962315138517545  0.40153088888834537  0.3408786152262451  1.0000
  O   O5        1.0  0.0403386561786476  0.9851602904613088  0.6657417853655049  1.0000
  O   O6        1.0  0.540343772555218  0.5148223058431893  0.8342528979012157  1.0000
  O   O7        1.0  0.9596610600297669  0.014840115817236196  0.334258166932571  1.0000
  O   O8        1.0  0.45965594365802087  0.48518127071814376  0.16575269582865101  1.0000
  O   O9        1.0  0.9238714783516286  0.4206134568248244  0.6212970075205605  1.0000
  O   O10       1.0  0.4238730376159766  0.07937314611443469  0.8787103333333165  1.0000
  O   O11       1.0  0.0761293075635976  0.5793901222666308  0.37870712324410505  1.0000
  O   O12       1.0  0.5761213300809515  0.9206283287203546  0.12128467226801123  1.0000
  O   O13       1.0  0.04712451774258139  0.6916125124145863  0.6589112231778813  1.0000
  O   O14       1.0  0.547124945445809  0.808361621865231  0.8410820746265344  1.0000
  O   O15       1.0  0.9528645014474223  0.30839213396125603  0.3410886923708958  1.0000
  O   O16       1.0  0.45287584047006396  0.191641952168446  0.15892498206917344  1.0000
  O   O17       1.0  0.30015318166272215  0.8662744109284974  0.7175913539538215  1.0000
  O   O18       1.0  0.8001617498684156  0.6337172529650418  0.7824107242716493  1.0000
  O   O19       1.0  0.6998465345351691  0.133716454155028  0.2824092296351353  1.0000
  O   O20       1.0  0.19983475724195196  0.36629056876000726  0.2175919067800933  1.0000
  O   O21       1.0  0.06737594847562181  0.5092485833517344  0.7947960936135132  1.0000
  O   O22       1.0  0.5673681655813425  0.9907436001344652  0.7052074836209314  1.0000
  O   O23       1.0  0.9326226980416692  0.49076135906282287  0.20520615332440428  1.0000
  O   O24       1.0  0.4326262021055457  0.009248329711965698  0.29479034771955537  1.0000
