data_image0
_chemical_formula_structural       Ag12P4H32C56O24
_chemical_formula_sum              "Ag12 P4 H32 C56 O24"
_cell_length_a       5.833138148005641
_cell_length_b       16.27879459314229
_cell_length_c       16.201492310886586
_cell_angle_alpha    67.5431773284858
_cell_angle_beta     79.79468524212032
_cell_angle_gamma    80.1355858292815

_space_group_name_H-M_alt    "P 1"
_space_group_IT_number       1

loop_
  _space_group_symop_operation_xyz
  'x, y, z'

loop_
  _atom_site_type_symbol
  _atom_site_label
  _atom_site_symmetry_multiplicity
  _atom_site_fract_x
  _atom_site_fract_y
  _atom_site_fract_z
  _atom_site_occupancy
  Ag  Ag1       1.0  0.10412752142027407  0.38444747533747403  0.21563320716587234  1.0000
  Ag  Ag2       1.0  0.71347303274932  0.6156702754530414  0.7848402699240395  1.0000
  Ag  Ag3       1.0  0.21485444788171326  0.7837648724854348  0.6167173656143772  1.0000
  Ag  Ag4       1.0  0.604979998850453  0.21524097711989756  0.3836612241158974  1.0000
  Ag  Ag5       1.0  0.7623799714488301  0.32687343460368373  0.14120383145378665  1.0000
  Ag  Ag6       1.0  0.24432266298047986  0.6735580293373219  0.8580522610008356  1.0000
  Ag  Ag7       1.0  0.7452231965617313  0.8589221957462742  0.6724270130788808  1.0000
  Ag  Ag8       1.0  0.2618628018321443  0.1390354168883192  0.3277833366520468  1.0000
  Ag  Ag9       1.0  0.012659207986999429  0.5238241027006012  0.042138063197001  1.0000
  Ag  Ag10      1.0  0.5757001538018968  0.4776387517875875  0.9576913911754017  1.0000
  Ag  Ag11      1.0  0.0756220791411337  0.955700619705908  0.4793043178259281  1.0000
  Ag  Ag12      1.0  0.508631372957673  0.04249819716228132  0.5233482037355586  1.0000
  P   P1        1.0  0.12428640253156685  0.3940029411608776  0.9190991542046874  1.0000
  P   P2        1.0  0.443025748397062  0.6081725378479136  0.079674425931799  1.0000
  P   P3        1.0  0.9384549557630988  0.08039478420897693  0.6072710261309167  1.0000
  P   P4        1.0  0.6251516499449677  0.9176142430655787  0.3956971136693425  1.0000
  H   H1        1.0  0.5862527146158668  0.1273576847657623  0.1155553070730022  1.0000
  H   H2        1.0  0.8488270222603086  0.8739090410958782  0.884356248419081  1.0000
  H   H3        1.0  0.3515917519379527  0.8872850293900924  0.8710424078305863  1.0000
  H   H4        1.0  0.0838723328351846  0.11526090012488771  0.12569277647379098  1.0000
  H   H5        1.0  0.7721233414817235  0.07492911237523717  0.9903932092889034  1.0000
  H   H6        1.0  0.8505724231844591  0.9284599941979793  0.008865575005707196  1.0000
  H   H7        1.0  0.35048887244515453  0.010915046198057587  0.9266739919353879  1.0000
  H   H8        1.0  0.2741625751419644  0.99099378586228  0.0735020368356771  1.0000
  H   H9        1.0  0.674515336092611  0.16298699192469004  0.834333785892582  1.0000
  H   H10       1.0  0.6746699814658679  0.8421207698990474  0.16418810720487897  1.0000
  H   H11       1.0  0.16810385945780837  0.16438671108301867  0.8422000153021543  1.0000
  H   H12       1.0  0.18278990939889164  0.8348544086199325  0.16375808576653836  1.0000
  H   H13       1.0  0.4024057246237477  0.3024175428475004  0.8042578576889241  1.0000
  H   H14       1.0  0.5093218967803989  0.7020921549856355  0.19415232404897145  1.0000
  H   H15       1.0  0.0010421071839984495  0.1936808999452637  0.7024672744026788  1.0000
  H   H16       1.0  0.9099183015790894  0.803981953611384  0.304629474981617  1.0000
  H   H17       1.0  0.8688508715131746  0.30861677692291783  0.8494942287139364  1.0000
  H   H18       1.0  0.03422896940423191  0.6934709670545304  0.1481999235867235  1.0000
  H   H19       1.0  0.528094349404938  0.14831705871296214  0.6932214769984453  1.0000
  H   H20       1.0  0.3721226553262085  0.8483502209333339  0.3091436906441558  1.0000
  H   H21       1.0  0.7866047286785403  0.33174252712488783  0.6959557134678676  1.0000
  H   H22       1.0  0.8162430128816639  0.6684640593088815  0.3009672266757804  1.0000
  H   H23       1.0  0.31367205709823753  0.3002122174813593  0.6687021794932875  1.0000
  H   H24       1.0  0.2903497475603624  0.695584398547183  0.3311743820789346  1.0000
  H   H25       1.0  0.9381686995853613  0.4575080493944129  0.5650744154141447  1.0000
  H   H26       1.0  0.9539299409643006  0.541291454707917  0.43188486456936187  1.0000
  H   H27       1.0  0.4567820833921058  0.43074388820724613  0.541492551185371  1.0000
  H   H28       1.0  0.4398130605694275  0.5651263017407261  0.4568644667127302  1.0000
  H   H29       1.0  0.15900169544842377  0.5646384640550082  0.5869812822094076  1.0000
  H   H30       1.0  0.3010189859923995  0.4346182077292582  0.41060317761168347  1.0000
  H   H31       1.0  0.8054170343376439  0.4098205384732623  0.4342227276003143  1.0000
  H   H32       1.0  0.6591169706111727  0.5865839996154706  0.5648442630950397  1.0000
  C   C1        1.0  0.28624330408821663  0.2738426915025016  0.1067132856672046  1.0000
  C   C2        1.0  0.6821009972303284  0.7273774666428993  0.8927850723864805  1.0000
  C   C3        1.0  0.18227221193610157  0.8946895054778782  0.7253573357541327  1.0000
  C   C4        1.0  0.7861428038995226  0.10531005549341904  0.27442568437844966  1.0000
  C   C5        1.0  0.39570953766130396  0.24427336072828612  0.0301189976434912  1.0000
  C   C6        1.0  0.683815135371027  0.7573772747165961  0.9694305053699919  1.0000
  C   C7        1.0  0.18204943653635944  0.971152758687538  0.7555766044372374  1.0000
  C   C8        1.0  0.8959107732032192  0.02936441959638363  0.24448367521427625  1.0000
  C   C9        1.0  0.5472591365560006  0.164728013132553  0.046922135818491  1.0000
  C   C10       1.0  0.7744340497096821  0.8372160798451918  0.9526623611148608  1.0000
  C   C11       1.0  0.2747001324566295  0.9548395049975794  0.8350747148497177  1.0000
  C   C12       1.0  0.047034280072381286  0.04664343817387361  0.16393440128585715  1.0000
  C   C13       1.0  0.6496697963777147  0.13587313995102338  0.9766903978219117  1.0000
  C   C14       1.0  0.7738263428515777  0.8673404279457627  0.0225071471129397  1.0000
  C   C15       1.0  0.27232951291901475  0.02413744684371718  0.8658511944106664  1.0000
  C   C16       1.0  0.15200658966477182  0.9768994153941081  0.13520372011699774  1.0000
  C   C17       1.0  0.5964699747444439  0.18539773675659899  0.8894525744793711  1.0000
  C   C18       1.0  0.6770977019355864  0.818770375834376  0.1093297541370859  1.0000
  C   C19       1.0  0.17199210914321816  0.10995708309887689  0.8183583885143831  1.0000
  C   C20       1.0  0.10210351904015598  0.889635408074959  0.18589443192091434  1.0000
  C   C21       1.0  0.44247615613049596  0.2640834227724085  0.8726299204644477  1.0000
  C   C22       1.0  0.5836384130704244  0.7397122427127343  0.12609116879225005  1.0000
  C   C23       1.0  0.07736199190601661  0.12633781771289426  0.739511030419379  1.0000
  C   C24       1.0  0.9478450304260657  0.8723389149677845  0.2654012908133581  1.0000
  C   C25       1.0  0.34013717103067614  0.2950863865619696  0.9420161339560378  1.0000
  C   C26       1.0  0.5856505850486468  0.7073573053546839  0.05712353641903429  1.0000
  C   C27       1.0  0.08100301514414089  0.05793817180639144  0.7064983047870825  1.0000
  C   C28       1.0  0.8425797310200309  0.9412728290755792  0.2961407575744488  1.0000
  C   C29       1.0  0.06997755653580348  0.4203515649270317  0.804477242648076  1.0000
  C   C30       1.0  0.29729431722423516  0.5814866637748465  0.1937821960503996  1.0000
  C   C31       1.0  0.794196313178737  0.19381203430987173  0.5808317737531965  1.0000
  C   C32       1.0  0.5705965496875082  0.8034271217354173  0.4215145510094729  1.0000
  C   C33       1.0  0.936906711714485  0.3632615596509298  0.79128386189911  1.0000
  C   C34       1.0  0.0953425119489353  0.6382951696161355  0.20645335984138308  1.0000
  C   C35       1.0  0.5913775998283982  0.2063232238733548  0.637965404572185  1.0000
  C   C36       1.0  0.4390870160477359  0.7903723641314571  0.3638055393927074  1.0000
  C   C37       1.0  0.8906137224623475  0.3761221729212068  0.70568065839025  1.0000
  C   C38       1.0  0.9731646292606296  0.6243209663115722  0.29164000111185817  1.0000
  C   C39       1.0  0.4712652340071768  0.29105040120231956  0.6242975870250547  1.0000
  C   C40       1.0  0.3930530330596366  0.7051951083197707  0.3760709083052589  1.0000
  C   C41       1.0  0.9741995791367934  0.44780561080775527  0.6320965204348923  1.0000
  C   C42       1.0  0.04996150715227522  0.5518607569656808  0.3652315416271889  1.0000
  C   C43       1.0  0.551033632767911  0.36442422657049184  0.5518292167453822  1.0000
  C   C44       1.0  0.47551523496796483  0.6318162019208132  0.4477021163481751  1.0000
  C   C45       1.0  0.10169105926611624  0.5066252111296664  0.6439951261488586  1.0000
  C   C46       1.0  0.2463625167311675  0.4932911349900593  0.35374882519160866  1.0000
  C   C47       1.0  0.7483990295302049  0.35313393792336717  0.4929398332931853  1.0000
  C   C48       1.0  0.6020225761296057  0.643506570406018  0.5070080620387643  1.0000
  C   C49       1.0  0.1541997415917535  0.492749168130416  0.7298749162166587  1.0000
  C   C50       1.0  0.37403189614790466  0.5081963872074481  0.2683347234420097  1.0000
  C   C51       1.0  0.8738957733978978  0.26818487223890497  0.5075322978767358  1.0000
  C   C52       1.0  0.6540179564673915  0.7289952587809907  0.4937709388899663  1.0000
  C   C53       1.0  0.2907798059335389  0.5580305378090387  0.7407304339346652  1.0000
  C   C54       1.0  0.5836512369825538  0.4425951027877134  0.2582975250808417  1.0000
  C   C55       1.0  0.08446043499356645  0.2583482243731368  0.4415472242119804  1.0000
  C   C56       1.0  0.7900438211848452  0.7397756058156661  0.5592936890365081  1.0000
  O   O1        1.0  0.13795761597268102  0.22815873473837914  0.16555959967957523  1.0000
  O   O2        1.0  0.5514490490277384  0.7735888540665241  0.8328552927783051  1.0000
  O   O3        1.0  0.05239556126135591  0.8342941761594673  0.7721758357330231  1.0000
  O   O4        1.0  0.6390154656915996  0.16377671383565232  0.2287384301551825  1.0000
  O   O5        1.0  0.34495483807931027  0.34678018328393284  0.1061244456694865  1.0000
  O   O6        1.0  0.8084033298165281  0.6538983645278338  0.8943651824603691  1.0000
  O   O7        1.0  0.3097867873201778  0.8963612481052935  0.6514414285200585  1.0000
  O   O8        1.0  0.8442158986311269  0.10484861112302467  0.3476403672952414  1.0000
  O   O9        1.0  0.8969717226231566  0.3668740513284163  0.9812503747642722  1.0000
  O   O10       1.0  0.25260762942696846  0.6351295103825549  0.0168004463350115  1.0000
  O   O11       1.0  0.7476944074994587  0.01734855093814495  0.6347708634645457  1.0000
  O   O12       1.0  0.39880960876663357  0.9791118604544663  0.3685822094542316  1.0000
  O   O13       1.0  0.21797694603345247  0.4739376355004766  0.9244464943440036  1.0000
  O   O14       1.0  0.6186043507808702  0.5280546163048145  0.0750195616298086  1.0000
  O   O15       1.0  0.11495190810320105  0.07598172430180485  0.5265326504432366  1.0000
  O   O16       1.0  0.717153117213861  0.9230570681540798  0.47611112263827937  1.0000
  O   O17       1.0  0.509428793404872  0.5377204004465954  0.7429101513662315  1.0000
  O   O18       1.0  0.784878458180671  0.4626945005923985  0.2567402956468641  1.0000
  O   O19       1.0  0.28519685612857165  0.2569009016231263  0.4617938986936635  1.0000
  O   O20       1.0  0.00896528204280126  0.7419664780791211  0.5386492951963644  1.0000
  O   O21       1.0  0.16848736640051235  0.6295949359969697  0.7457433129552766  1.0000
  O   O22       1.0  0.5348043868497285  0.37084794725314657  0.2537294726185095  1.0000
  O   O23       1.0  0.037043486768276034  0.2536613480088903  0.3693985099310737  1.0000
  O   O24       1.0  0.6671335451432795  0.7450094641736699  0.6312701255580889  1.0000
