data_image0
_chemical_formula_structural       Zn2H9C30Br10N2Cl5O8
_chemical_formula_sum              "Zn2 H9 C30 Br10 N2 Cl5 O8"
_cell_length_a       9.820647945362134
_cell_length_b       11.01820190735988
_cell_length_c       15.98033334425503
_cell_angle_alpha    88.46008228558888
_cell_angle_beta     86.96556715035715
_cell_angle_gamma    86.54619160111345

_space_group_name_H-M_alt    "P 1"
_space_group_IT_number       1

loop_
  _space_group_symop_operation_xyz
  'x, y, z'

loop_
  _atom_site_type_symbol
  _atom_site_label
  _atom_site_symmetry_multiplicity
  _atom_site_fract_x
  _atom_site_fract_y
  _atom_site_fract_z
  _atom_site_occupancy
  Zn  Zn1       1.0  0.6494003767181767  0.49764334654706477  0.4947533965953566  1.0000
  Zn  Zn2       1.0  0.3609191033276673  0.5033341994870779  0.5025359378073941  1.0000
  H   H1        1.0  0.6633674921425196  0.3606919495053589  0.07045168781425559  1.0000
  H   H2        1.0  0.7030326026913158  0.5032080038903288  0.9148314669144921  1.0000
  H   H3        1.0  0.7122374537471216  0.5117089348928374  0.058277729293173784  1.0000
  H   H4        1.0  0.7384506392324326  0.8309086751872741  0.6042447236212778  1.0000
  H   H5        1.0  0.14875759729122956  0.624556322731138  0.40579978824624147  1.0000
  H   H6        1.0  0.8350033537765424  0.2987364604582723  0.6345449250582645  1.0000
  H   H7        1.0  0.07780004267210221  0.24181432359095822  0.5906709614430807  1.0000
  H   H8        1.0  0.5569454287594126  0.6669278294512608  0.9161221047661953  1.0000
  H   H9        1.0  0.3774878184798922  0.6605210273548892  0.919558782293336  1.0000
  C   C1        1.0  0.5338301310842724  0.265039872427792  0.4953284452403111  1.0000
  C   C2        1.0  0.5246266748402134  0.1301221808524886  0.4867699389904699  1.0000
  C   C3        1.0  0.44787180523336184  0.0792141979867438  0.42571236342477886  1.0000
  C   C4        1.0  0.4971322901958785  0.5001839797062643  0.6588807253674032  1.0000
  C   C5        1.0  0.4277648750399975  0.9527785214040634  0.4246719535776292  1.0000
  C   C6        1.0  0.4820537661769534  0.8717180943529212  0.48578964421349  1.0000
  C   C7        1.0  0.5603314087078032  0.9237094770756896  0.5435849709291105  1.0000
  C   C8        1.0  0.6471672678529429  0.8909301780426375  0.6168862168347002  1.0000
  C   C9        1.0  0.677308667714655  0.0324908236780246  0.614362758918297  1.0000
  C   C10       1.0  0.07016862991564922  0.43305346014593477  0.5557705450915762  1.0000
  C   C11       1.0  0.08596610571749612  0.5707854446617872  0.449099606804097  1.0000
  C   C12       1.0  0.6361870754122022  0.4491307258397654  0.04160799408128919  1.0000
  C   C13       1.0  0.9424012037504852  0.5823495451179284  0.4485810890349881  1.0000
  C   C14       1.0  0.9288198738978224  0.45175423204874937  0.5586117184032344  1.0000
  C   C15       1.0  0.9072320395961809  0.37050410841261777  0.6355663549826429  1.0000
  C   C16       1.0  0.4706710396917727  0.7365373693523979  0.4902076792495578  1.0000
  C   C17       1.0  0.06629506221402437  0.33058690426791054  0.6207381016980236  1.0000
  C   C18       1.0  0.5091117947920694  0.500957978933215  0.33636262441233095  1.0000
  C   C19       1.0  0.6334175293707601  0.4400664705473218  0.9460376732097444  1.0000
  C   C20       1.0  0.36894061528484196  0.410987992315505  0.9572639608770002  1.0000
  C   C21       1.0  0.3861036816815825  0.4017593068827594  0.0558997852779228  1.0000
  C   C22       1.0  0.508268662549952  0.5016946060779689  0.24600492726265333  1.0000
  C   C23       1.0  0.4942283550319856  0.4965914723765437  0.08054528106100628  1.0000
  C   C24       1.0  0.4892221728476969  0.4833913724765467  0.9158320797492363  1.0000
  C   C25       1.0  0.4681477591411038  0.6273330309830953  0.04036274587965491  1.0000
  C   C26       1.0  0.47106825250623524  0.6183624452573113  0.9443131287322186  1.0000
  C   C27       1.0  0.4996830200459854  0.5004256371702736  0.17067794729724986  1.0000
  C   C28       1.0  0.48847508343231977  0.48513218347143555  0.8252052804219188  1.0000
  C   C29       1.0  0.49415314041195296  0.4940278956859885  0.7493511174002874  1.0000
  C   C30       1.0  0.5829312807507704  0.0468222046579925  0.5433427727544922  1.0000
  Br  Br1       1.0  0.2978546653884563  0.7141380275988567  0.08315931547538469  1.0000
  Br  Br2       1.0  0.2115687394497172  0.4193627509208611  0.12272175186726737  1.0000
  Br  Br3       1.0  0.37675618258300153  0.18414860144427075  0.3405097898470259  1.0000
  Br  Br4       1.0  0.3338787992093444  0.8888372142620611  0.3365781485765708  1.0000
  Br  Br5       1.0  0.632058070869661  0.1296714897939637  0.7123886159470985  1.0000
  Br  Br6       1.0  0.8724381370699346  0.0483090366411218  0.5769397062287209  1.0000
  Br  Br7       1.0  0.8654606602233911  0.6914765736772779  0.3697713132532598  1.0000
  Br  Br8       1.0  0.1821963940305409  0.3181585299569035  0.7145273817281603  1.0000
  Br  Br9       1.0  0.1958085088369472  0.4984844760777777  0.9261218205928896  1.0000
  Br  Br10      1.0  0.35974673124155737  0.2516361865041645  0.9059773570679466  1.0000
  N   N1        1.0  0.1517997970431679  0.49291651100389083  0.5020977466064662  1.0000
  N   N2        1.0  0.8599799353865477  0.5205422457360386  0.5030786983275206  1.0000
  Cl  Cl1       1.0  0.5606237406717937  0.8321917549559499  0.7080451358156734  1.0000
  Cl  Cl2       1.0  0.6991015800065128  0.2941681551927715  0.9110457231620542  1.0000
  Cl  Cl3       1.0  0.8719776974250237  0.45703978903453896  0.72674101138157  1.0000
  Cl  Cl4       1.0  0.4535326260341818  0.2544326258698675  0.08837142043958579  1.0000
  Cl  Cl5       1.0  0.6014660748066872  0.7215357621057876  0.06923761605371938  1.0000
  O   O1        1.0  0.6509538135091333  0.3077649295986831  0.4885038134771733  1.0000
  O   O2        1.0  0.4199262356403183  0.32254450722459893  0.5113557831450917  1.0000
  O   O3        1.0  0.6124624773573616  0.47785095323913396  0.6206232979301304  1.0000
  O   O4        1.0  0.38370796884692737  0.5265954552185405  0.6260028375586514  1.0000
  O   O5        1.0  0.584813629059269  0.6779564483290484  0.499924308877503  1.0000
  O   O6        1.0  0.35514079711918367  0.6928492772355384  0.48686186318075636  1.0000
  O   O7        1.0  0.6250980232038684  0.5002384957208363  0.36838501055240863  1.0000
  O   O8        1.0  0.3924693803650142  0.5003529175404681  0.37498809166430647  1.0000
