data_image0
_chemical_formula_structural       Ag4H28C32O20
_chemical_formula_sum              "Ag4 H28 C32 O20"
_cell_length_a       6.595803256057011
_cell_length_b       10.479686567408235
_cell_length_c       11.727800670514512
_cell_angle_alpha    96.47600610377725
_cell_angle_beta     90.0000493036783
_cell_angle_gamma    90.00005768591575

_space_group_name_H-M_alt    "P 1"
_space_group_IT_number       1

loop_
  _space_group_symop_operation_xyz
  'x, y, z'

loop_
  _atom_site_type_symbol
  _atom_site_label
  _atom_site_symmetry_multiplicity
  _atom_site_fract_x
  _atom_site_fract_y
  _atom_site_fract_z
  _atom_site_occupancy
  Ag  Ag1       1.0  0.0014274314114360001  0.06589125916748628  0.6497786223119348  1.0000
  Ag  Ag2       1.0  0.5014241166999795  0.434106637055578  0.8502232413948719  1.0000
  Ag  Ag3       1.0  0.9985879516063108  0.9341031121167375  0.35022723659592714  1.0000
  Ag  Ag4       1.0  0.4985761044376957  0.5658973909082972  0.1497691233706391  1.0000
  H   H1        1.0  0.5247205663675985  0.14525749647886238  0.24633845417078962  1.0000
  H   H2        1.0  0.024719315211342505  0.3547368978335185  0.25366242534503414  1.0000
  H   H3        1.0  0.4752705582912428  0.8547436346389572  0.7536578737187655  1.0000
  H   H4        1.0  0.9752793904446266  0.6452536538310196  0.7463370689302027  1.0000
  H   H5        1.0  0.22907247905566658  0.11634765584322787  0.8470620930365486  1.0000
  H   H6        1.0  0.7290731224486111  0.3836573478853538  0.6529411888631815  1.0000
  H   H7        1.0  0.770930774787516  0.883659190433235  0.15294761750483596  1.0000
  H   H8        1.0  0.270927098960712  0.6163447342705196  0.34705779558478167  1.0000
  H   H9        1.0  0.055856152713573706  0.22869135570131494  0.053782904233528904  1.0000
  H   H10       1.0  0.5558642401836025  0.27130471732665734  0.44621583733381714  1.0000
  H   H11       1.0  0.9441395204828994  0.7713087962873784  0.9462184381661914  1.0000
  H   H12       1.0  0.44414356187837  0.7286935266554905  0.5537818963975242  1.0000
  H   H13       1.0  0.5797209523014859  0.06918798223521348  0.8424153216839019  1.0000
  H   H14       1.0  0.07972107602859782  0.4308097962311874  0.6575815938133547  1.0000
  H   H15       1.0  0.4202823012838551  0.9308141062324534  0.1575819580302777  1.0000
  H   H16       1.0  0.9202791454496407  0.5691855760307688  0.34241328419769  1.0000
  H   H17       1.0  0.8376972661461152  0.05252651165742609  0.0317330101245759  1.0000
  H   H18       1.0  0.3377042821420986  0.4474740698674394  0.4682649717230022  1.0000
  H   H19       1.0  0.16229082621266847  0.9474813293196432  0.9682674242278397  1.0000
  H   H20       1.0  0.6622898749506378  0.5525184212759556  0.5317296076165335  1.0000
  H   H21       1.0  0.9342002933858566  0.9334458612654257  0.8280404450388164  1.0000
  H   H22       1.0  0.43419741745928064  0.5665523740862709  0.6719647754716365  1.0000
  H   H23       1.0  0.06580599273571151  0.0665571499238808  0.17196716247094201  1.0000
  H   H24       1.0  0.5658028039421765  0.4334458792249051  0.3280304012627938  1.0000
  H   H25       1.0  0.021865956693190504  0.3448167768126068  0.8552385739125443  1.0000
  H   H26       1.0  0.5218782602952601  0.15518639812412968  0.6447608807645296  1.0000
  H   H27       1.0  0.978131232544037  0.6551872134538141  0.14476401912597237  1.0000
  H   H28       1.0  0.4781234773359273  0.8448137570724726  0.35523960922937914  1.0000
  C   C1        1.0  0.5767403826090245  0.15442341983340666  0.07828898093224983  1.0000
  C   C2        1.0  0.07675505874438932  0.34557216106717437  0.4217118607332893  1.0000
  C   C3        1.0  0.4232431615841676  0.845578655854659  0.921711708366232  1.0000
  C   C4        1.0  0.9232451628677084  0.6544212810796068  0.5782853751905962  1.0000
  C   C5        1.0  0.830364383248373  0.3757110328273256  0.06784419482660552  1.0000
  C   C6        1.0  0.3303778437551017  0.124289365396308  0.4321581742023285  1.0000
  C   C7        1.0  0.1696373542528917  0.624292966906793  0.9321558411112323  1.0000
  C   C8        1.0  0.6696329909100457  0.8757021342023847  0.5678448289592879  1.0000
  C   C9        1.0  0.06702781028045728  0.12979273220070545  0.8372083339600354  1.0000
  C   C10       1.0  0.5670283788883169  0.370210511836177  0.6627911008698605  1.0000
  C   C11       1.0  0.9329739271735491  0.8702151026552439  0.1627938049834938  1.0000
  C   C12       1.0  0.4329688103371226  0.6297877351631982  0.3372057805983531  1.0000
  C   C13       1.0  0.9165058706178472  0.25007654736446466  0.008798614174075705  1.0000
  C   C14       1.0  0.41652318123839654  0.24992293652523753  0.49120283455688724  1.0000
  C   C15       1.0  0.0834852542634081  0.749925515856013  0.9912054844752379  1.0000
  C   C16       1.0  0.583484620927905  0.7500724232691311  0.5087954528049893  1.0000
  C   C17       1.0  0.7263851454286866  0.10856621576483148  0.8704196215166892  1.0000
  C   C18       1.0  0.22638734265188995  0.39143009279791124  0.6295802531185688  1.0000
  C   C19       1.0  0.2736150760633079  0.8914358569753487  0.12958191999303642  1.0000
  C   C20       1.0  0.773609846595214  0.6085652794293777  0.3704146249184177  1.0000
  C   C21       1.0  0.7621988291951285  0.13587405841676056  0.001855045744562702  1.0000
  C   C22       1.0  0.262212769692347  0.36412384268100323  0.4981424235526363  1.0000
  C   C23       1.0  0.2377831987525738  0.8641318617914917  0.9981451895108153  1.0000
  C   C24       1.0  0.737782903567144  0.6358667277802464  0.5018519566250107  1.0000
  C   C25       1.0  0.9170041334854633  0.036781496240401196  0.8287404983117742  1.0000
  C   C26       1.0  0.4170016785682478  0.4632182076927761  0.6712568676192775  1.0000
  C   C27       1.0  0.08300670084895502  0.9632234451160784  0.17126475124623408  1.0000
  C   C28       1.0  0.5829970266074157  0.5367800581553225  0.3287348997124299  1.0000
  C   C29       1.0  0.9586029213712239  0.2547043004632811  0.8782725481700454  1.0000
  C   C30       1.0  0.4586148936954403  0.24529921709817146  0.621729518722134  1.0000
  C   C31       1.0  0.04139123569391501  0.7453015979136948  0.12173365345902454  1.0000
  C   C32       1.0  0.5413853277375082  0.7547009474967864  0.3782684142229869  1.0000
  O   O1        1.0  0.6349442980101827  0.16333004617467134  0.18809735022013294  1.0000
  O   O2        1.0  0.1349493999530296  0.33666686243520866  0.3119033480022965  1.0000
  O   O3        1.0  0.3650437945572662  0.8366720264268319  0.8119041913933602  1.0000
  O   O4        1.0  0.8650508219189065  0.6633188906365247  0.688094796033738  1.0000
  O   O5        1.0  0.7582549489100786  0.23213888096287852  0.8299370027664283  1.0000
  O   O6        1.0  0.25826716668824196  0.267856226370661  0.6700646843981632  1.0000
  O   O7        1.0  0.24174224042952372  0.7678612679045854  0.17006519197423844  1.0000
  O   O8        1.0  0.7417345709646099  0.7321410540538478  0.3299338021645185  1.0000
  O   O9        1.0  0.4003514137647955  0.15307245411563025  0.04440072214773491  1.0000
  O   O10       1.0  0.9003692155558555  0.3469208919978256  0.4556021102456144  1.0000
  O   O11       1.0  0.5996336462172068  0.8469315736748939  0.9555916427474788  1.0000
  O   O12       1.0  0.0996325222347778  0.6530763727338638  0.5444006380866712  1.0000
  O   O13       1.0  0.9086172581077678  0.42270707348911435  0.1613070723859096  1.0000
  O   O14       1.0  0.4086214501047039  0.07728840101585625  0.3386907037192658  1.0000
  O   O15       1.0  0.09138599579844  0.5772901912599053  0.8386956759334084  1.0000
  O   O16       1.0  0.5913802873631085  0.9227127302233099  0.6613056240795033  1.0000
  O   O17       1.0  0.6790165933272192  0.42893324452190745  0.02211801855408172  1.0000
  O   O18       1.0  0.17902709578864062  0.07107330882779908  0.477884526415636  1.0000
  O   O19       1.0  0.32099272465540446  0.5710774683313742  0.9778852714019026  1.0000
  O   O20       1.0  0.8209913195350537  0.9289172242307014  0.5221200818145065  1.0000
