data_image0
_chemical_formula_structural       C52Eu2H40O19
_chemical_formula_sum              "C52 Eu2 H40 O19"
_cell_length_a       7.083395265073027
_cell_length_b       14.465661071805826
_cell_length_c       16.90838224679651
_cell_angle_alpha    104.34853610047219
_cell_angle_beta     102.09118356407232
_cell_angle_gamma    90.00021059717845

_space_group_name_H-M_alt    "P 1"
_space_group_IT_number       1

loop_
  _space_group_symop_operation_xyz
  'x, y, z'

loop_
  _atom_site_type_symbol
  _atom_site_label
  _atom_site_symmetry_multiplicity
  _atom_site_fract_x
  _atom_site_fract_y
  _atom_site_fract_z
  _atom_site_occupancy
  C   C1        1.0  0.02147365822112582  0.5889128805861719  0.8946504751844628  1.0000
  C   C2        1.0  0.1268121029823845  0.41107940600029036  0.1053528983246892  1.0000
  C   C3        1.0  0.16239083476645508  0.5282188990865109  0.93925711843422  1.0000
  C   C4        1.0  0.22312240328967195  0.471774773925809  0.060747945284489895  1.0000
  C   C5        1.0  0.8322326304401243  0.5309199204919963  0.8484009866558608  1.0000
  C   C6        1.0  0.9838261391188894  0.4690769483824796  0.15160109661606205  1.0000
  C   C7        1.0  0.12515236655115544  0.6214049496816402  0.8347348592233812  1.0000
  C   C8        1.0  0.2904190008613838  0.37859307428192324  0.16526840057485256  1.0000
  C   C9        1.0  0.965765341859445  0.6738666423475623  0.9584583799729955  1.0000
  C   C10       1.0  0.0072866720059749975  0.3261254333899403  0.041546509427107  1.0000
  C   C11       1.0  0.08147576677892941  0.7215376117680706  0.7407826370266548  1.0000
  C   C12       1.0  0.3407124924064178  0.2784618055401183  0.2592206396603274  1.0000
  C   C13       1.0  0.26365187064831713  0.7002259295626772  0.7226122857401334  1.0000
  C   C14       1.0  0.5410510569461735  0.2997966202761901  0.2774030163261472  1.0000
  C   C15       1.0  0.3340750461133836  0.7467402766496181  0.6711805821210106  1.0000
  C   C16       1.0  0.6629187763782626  0.2532832165322533  0.3288325781513137  1.0000
  C   C17       1.0  0.2258731132859139  0.8145192252935374  0.6377591676060133  1.0000
  C   C18       1.0  0.5881455148333004  0.18548867375523065  0.3622411104600545  1.0000
  C   C19       1.0  0.04235527110456864  0.834117411174134  0.6551603937047048  1.0000
  C   C20       1.0  0.387228699168034  0.1658795615847453  0.3448391404269344  1.0000
  C   C21       1.0  0.9699508568967301  0.7878112872465267  0.706095546550898  1.0000
  C   C22       1.0  0.26388171891110795  0.21218162860245834  0.29390420342022583  1.0000
  C   C23       1.0  0.11511402802910449  0.7785152577755953  0.08968193199149249  1.0000
  C   C24       1.0  0.025411639435837602  0.2214792721959213  0.9103220594951862  1.0000
  C   C25       1.0  0.2837903387905244  0.8058086160880793  0.1524172731485081  1.0000
  C   C26       1.0  0.1313515640315116  0.1942016841415111  0.8475854028134505  1.0000
  C   C27       1.0  0.2719393050003305  0.8606686859276143  0.231018609897184  1.0000
  C   C28       1.0  0.04090268619817291  0.13933800896526088  0.7689838657357271  1.0000
  C   C29       1.0  0.09206196353206046  0.8891294316552064  0.24813942518623824  1.0000
  C   C30       1.0  0.8439125433040713  0.11086500216757134  0.7518641547346403  1.0000
  C   C31       1.0  0.9254512228187081  0.8641987639739457  0.1841946252622719  1.0000
  C   C32       1.0  0.741244301749525  0.13578630754746263  0.8158077680253158  1.0000
  C   C33       1.0  0.9353819070007107  0.809516318771401  0.10512103043699737  1.0000
  C   C34       1.0  0.8302453917008066  0.19046907198549687  0.8948821704963379  1.0000
  C   C35       1.0  0.07006638124385485  0.9400657122459538  0.33278650601808113  1.0000
  C   C36       1.0  0.7372653762230356  0.05993146287083557  0.6672149727038956  1.0000
  C   C37       1.0  0.7217033068616842  0.39240264727349233  0.736342290236969  1.0000
  C   C38       1.0  0.9853641741238022  0.6075967901997431  0.26365460416045033  1.0000
  C   C39       1.0  0.5379311835475207  0.39201241375730694  0.7554035529219263  1.0000
  C   C40       1.0  0.7825310340004494  0.6079962956467002  0.2445882894756792  1.0000
  C   C41       1.0  0.3964464897507369  0.3227285193142323  0.7061476133860012  1.0000
  C   C42       1.0  0.6903112133401237  0.6772860853860723  0.29384381924506897  1.0000
  C   C43       1.0  0.4348365468610566  0.25448878893954696  0.6374840678360483  1.0000
  C   C44       1.0  0.7973664270609717  0.7455182767224003  0.36251197921443173  1.0000
  C   C45       1.0  0.6184202355051908  0.25689098186088444  0.6185739154638198  1.0000
  C   C46       1.0  0.9998607960088745  0.7431085299752882  0.3814259391484639  1.0000
  C   C47       1.0  0.7616502181006125  0.3245231553330755  0.6675313026703122  1.0000
  C   C48       1.0  0.09412413961297256  0.6754725262289727  0.3324696354232017  1.0000
  C   C49       1.0  0.2852983766693454  0.17941574146644967  0.5881135506185371  1.0000
  C   C50       1.0  0.6971981558918613  0.8205904555880823  0.4118826589660144  1.0000
  C   C51       1.0  0.30956400533243306  0.863610984995205  0.5855341775924003  1.0000
  C   C52       1.0  0.7240604371400536  0.1363888564340741  0.41445898124527497  1.0000
  Eu  Eu1       1.0  0.9975043545207781  0.030017542343728033  0.4972112104326597  1.0000
  Eu  Eu2       1.0  0.5002944796552455  0.9699795437053782  0.5027877897681634  1.0000
  H   H1        1.0  0.19404709029177514  0.46421427721335834  0.8935180242189489  1.0000
  H   H2        1.0  0.30050718195807485  0.5357823187571072  0.1064872499123197  1.0000
  H   H3        1.0  0.298357550032584  0.5714527208177813  0.9701051808930642  1.0000
  H   H4        1.0  0.3282524650522162  0.4285472321371417  0.0299065938938696  1.0000
  H   H5        1.0  0.7742842895572508  0.5007487728789712  0.8928314757702508  1.0000
  H   H6        1.0  0.881443966025131  0.4992484035212358  0.10717218765874748  1.0000
  H   H7        1.0  0.7250365327754764  0.5771294354420394  0.8226270999833787  1.0000
  H   H8        1.0  0.902403007589392  0.4228704685889967  0.1773765206701583  1.0000
  H   H9        1.0  0.2603120735308623  0.6626544395648254  0.8705646129586384  1.0000
  H   H10       1.0  0.38977058606027976  0.33736226612712283  0.1294403906604416  1.0000
  H   H11       1.0  0.160019685750953  0.558475922314365  0.7892061731808296  1.0000
  H   H12       1.0  0.370794537486006  0.441525256197771  0.21080293102583167  1.0000
  H   H13       1.0  0.8864585310560784  0.724070339085394  0.9259506613386961  1.0000
  H   H14       1.0  0.9604665016440707  0.27593007777096556  0.0740564878753318  1.0000
  H   H15       1.0  0.8729220694319435  0.6473349550616944  0.9937507095115875  1.0000
  H   H16       1.0  0.8791632382174799  0.3526576488985783  0.006248743091227  1.0000
  H   H17       1.0  0.3499390431645608  0.6473960674688541  0.747297431231658  1.0000
  H   H18       1.0  0.6026334806543902  0.3526378084014327  0.2527231782823093  1.0000
  H   H19       1.0  0.4747238615259732  0.7310120211294875  0.6560386148460822  1.0000
  H   H20       1.0  0.8187087565574701  0.26901809926044257  0.34397261440266647  1.0000
  H   H21       1.0  0.9567995292921835  0.8857942401721461  0.6283537600419037  1.0000
  H   H22       1.0  0.328498839425464  0.1141917849645893  0.3716410640548276  1.0000
  H   H23       1.0  0.8278557400084877  0.8026046814021728  0.7199825543195287  1.0000
  H   H24       1.0  0.10790088382005078  0.19737600280674175  0.2800116089311757  1.0000
  H   H25       1.0  0.42194515695899787  0.7811788989983628  0.1389254339466248  1.0000
  H   H26       1.0  0.28299370329906287  0.2188383981609547  0.861079047902706  1.0000
  H   H27       1.0  0.40131786326118396  0.8788190156389464  0.2807090386507056  1.0000
  H   H28       1.0  0.12058698073889221  0.12119574464093567  0.719291974807625  1.0000
  H   H29       1.0  0.7869908483239527  0.8877676598436894  0.1978546466996178  1.0000
  H   H30       1.0  0.5891310812970474  0.11220420806712636  0.8021484168217867  1.0000
  H   H31       1.0  0.8043698488684469  0.7918219786700651  0.056172973055709  1.0000
  H   H32       1.0  0.7481866272046105  0.20815464903256498  0.9438316803181479  1.0000
  H   H33       1.0  0.5046882189658033  0.44429424315712407  0.8084868522120202  1.0000
  H   H34       1.0  0.6961937757295191  0.5557201446963235  0.1915010416681469  1.0000
  H   H35       1.0  0.2543493834931069  0.32026406600417096  0.7210867613864875  1.0000
  H   H36       1.0  0.5332745149266388  0.6797533724183257  0.278901007564258  1.0000
  H   H37       1.0  0.6491636077256047  0.20428209141108067  0.5652433930986049  1.0000
  H   H38       1.0  0.08394017557499472  0.7957132592746778  0.4347591922389853  1.0000
  H   H39       1.0  0.904992567467218  0.324467193618176  0.6535099652895153  1.0000
  H   H40       1.0  0.2514860808455168  0.6755204777673998  0.3464958711219808  1.0000
  O   O1        1.0  0.21835644398797877  0.9607354607377946  0.39533445895720115  1.0000
  O   O2        1.0  0.8230087876899717  0.03926827494997546  0.604667472343472  1.0000
  O   O3        1.0  0.9038968931049  0.9622894985327836  0.3452213266683231  1.0000
  O   O4        1.0  0.5586578234783628  0.037707715910315104  0.6547782338048262  1.0000
  O   O5        1.0  0.47219642752884977  0.8418364839620552  0.5681979973956783  1.0000
  O   O6        1.0  0.9040323962076615  0.15815025185653298  0.43178450341046215  1.0000
  O   O7        1.0  0.21665468181699052  0.9305019173657956  0.5568883180764956  1.0000
  O   O8        1.0  0.6597814972430597  0.06950519997175769  0.44311144747079106  1.0000
  O   O9        1.0  0.3248179298252508  0.11233989290998639  0.5277173826731953  1.0000
  O   O10       1.0  0.7971061772117877  0.8876572604616585  0.4722902962641554  1.0000
  O   O11       1.0  0.11827391875142006  0.17846736027545523  0.6040747124826638  1.0000
  O   O12       1.0  0.5142128340131507  0.821543786191221  0.39591087594091323  1.0000
  O   O13       1.0  0.0027444320460573617  0.6804652699125102  0.792081601697461  1.0000
  O   O14       1.0  0.21068012388802518  0.3195157487164409  0.2079087358592346  1.0000
  O   O15       1.0  0.8713624730301606  0.45606838256615845  0.781973755195331  1.0000
  O   O16       1.0  0.08939397923739278  0.5439313994681855  0.2180242666109891  1.0000
  O   O17       1.0  0.1377008085166622  0.7205918970422759  0.0151960165906146  1.0000
  O   O18       1.0  0.12248709961927759  0.2793888516428424  0.9848150193336238  1.0000
  O   O19       1.0  0.07952774429361378  0.49999361779088514  0.9999986450145143  1.0000
