data_image0
_chemical_formula_structural       Co4H32C44N16O12
_chemical_formula_sum              "Co4 H32 C44 N16 O12"
_cell_length_a       7.726976819056878
_cell_length_b       9.651396548512796
_cell_length_c       14.865731571864684
_cell_angle_alpha    90.77506584371406
_cell_angle_beta     90.00016166643078
_cell_angle_gamma    90.00040939697155

_space_group_name_H-M_alt    "P 1"
_space_group_IT_number       1

loop_
  _space_group_symop_operation_xyz
  'x, y, z'

loop_
  _atom_site_type_symbol
  _atom_site_label
  _atom_site_symmetry_multiplicity
  _atom_site_fract_x
  _atom_site_fract_y
  _atom_site_fract_z
  _atom_site_occupancy
  Co  Co1       1.0  0.9817142740011636  0.42993934609124546  0.9059172756074365  1.0000
  Co  Co2       1.0  0.4817151732226678  0.5700542510125005  0.5940907737512476  1.0000
  Co  Co3       1.0  0.018272579482719195  0.5700625349902212  0.09408808462621472  1.0000
  Co  Co4       1.0  0.5182872102359256  0.4299414232214431  0.4059131665317467  1.0000
  H   H1        1.0  0.8065619862144974  0.7130128106474842  0.5355194608701981  1.0000
  H   H2        1.0  0.30655969337627204  0.2869839815433011  0.9644823114116652  1.0000
  H   H3        1.0  0.19344169138843637  0.2869797807783315  0.4644810788947782  1.0000
  H   H4        1.0  0.6934349251002133  0.7130147806388861  0.03552435674989601  1.0000
  H   H5        1.0  0.05375531725718471  0.910833216190426  0.7035221219293037  1.0000
  H   H6        1.0  0.5537533533184628  0.0891621330660044  0.7964799287199471  1.0000
  H   H7        1.0  0.9462509487195876  0.08916765969584621  0.2964791900640194  1.0000
  H   H8        1.0  0.4462490301437755  0.9108366807233429  0.2035200131035425  1.0000
  H   H9        1.0  0.1447875259801066  0.16010999772723272  0.7010812515048672  1.0000
  H   H10       1.0  0.6447819987794505  0.8398859053522896  0.7989162326709549  1.0000
  H   H11       1.0  0.855221328310627  0.8398898883915253  0.2989139943317768  1.0000
  H   H12       1.0  0.3552126196872223  0.1601149859763922  0.20108306141005278  1.0000
  H   H13       1.0  0.7315923565536836  0.14952999273116774  0.5877169066061187  1.0000
  H   H14       1.0  0.23158581637832043  0.850466409185458  0.9122800403118849  1.0000
  H   H15       1.0  0.2684203801945345  0.8504605727440834  0.4122775545582302  1.0000
  H   H16       1.0  0.7684152729098487  0.14953557510666124  0.08771186724462862  1.0000
  H   H17       1.0  0.42923139315012554  0.22653077867683177  0.644656528912009  1.0000
  H   H18       1.0  0.9292281519878999  0.7734667575904125  0.8553393809697598  1.0000
  H   H19       1.0  0.5707761669711147  0.7734701642737323  0.3553360388349633  1.0000
  H   H20       1.0  0.07077034896276761  0.22653103546196732  0.14465853049848226  1.0000
  H   H21       1.0  0.0176105439688214  0.6343346045433407  0.6946013711292667  1.0000
  H   H22       1.0  0.5176098290325657  0.36566669961709414  0.8054080968234774  1.0000
  H   H23       1.0  0.9823866628903916  0.36567556617917774  0.30540408870437136  1.0000
  H   H24       1.0  0.4823873777409349  0.6343300727056801  0.19458778429152807  1.0000
  H   H25       1.0  0.17204788074293018  0.6935301794794811  0.7759756894092862  1.0000
  H   H26       1.0  0.6720306725783518  0.3064637339814738  0.7240312292553883  1.0000
  H   H27       1.0  0.8279622677572649  0.3064758825835908  0.22402501219760762  1.0000
  H   H28       1.0  0.3279755934008436  0.6935392349417313  0.275967417098265  1.0000
  H   H29       1.0  0.9223237478321595  0.9530675956064485  0.5392484872275959  1.0000
  H   H30       1.0  0.4223179740650807  0.0469309014599233  0.9607521327691875  1.0000
  H   H31       1.0  0.07768251809226712  0.046922933740845  0.46075068237259853  1.0000
  H   H32       1.0  0.5776766443851784  0.9530679380998849  0.03924444587619291  1.0000
  C   C1        1.0  0.22139081760850843  0.4868314110507086  0.7238380230151409  1.0000
  C   C2        1.0  0.721375750203336  0.5131763310388422  0.7761590449251801  1.0000
  C   C3        1.0  0.7786115658842692  0.5131725631118587  0.2761646715909479  1.0000
  C   C4        1.0  0.2786175741249295  0.4868297258178772  0.22384232930300396  1.0000
  C   C5        1.0  0.4600962368026842  0.8729493965944002  0.614478553722954  1.0000
  C   C6        1.0  0.9600912015619446  0.1270482997285427  0.8855194221962467  1.0000
  C   C7        1.0  0.5399061466431405  0.1270473654260798  0.3855186726649152  1.0000
  C   C8        1.0  0.039908593566558216  0.8729526122488879  0.11447718135114834  1.0000
  C   C9        1.0  0.725790871807213  0.7989082883436537  0.5588747839489444  1.0000
  C   C10       1.0  0.2257850921217185  0.20108493586668172  0.9411268250158006  1.0000
  C   C11       1.0  0.2742128057892613  0.2010832720392202  0.4411250707326318  1.0000
  C   C12       1.0  0.7742121146769422  0.798913862432414  0.05887513470689502  1.0000
  C   C13       1.0  0.5121463573304084  0.014751088624969096  0.6148216364158687  1.0000
  C   C14       1.0  0.012144773565886202  0.985244034308657  0.8851790040731661  1.0000
  C   C15       1.0  0.4878573202920365  0.9852477458020918  0.38517561487098123  1.0000
  C   C16       1.0  0.9878550215631493  0.014755825991791503  0.11481960492847074  1.0000
  C   C17       1.0  0.2929751760064505  0.8378301615233356  0.647003828035672  1.0000
  C   C18       1.0  0.7929715805941485  0.16216655339204072  0.8529979230557247  1.0000
  C   C19       1.0  0.70702720745107  0.16216761606455782  0.3529961013388317  1.0000
  C   C20       1.0  0.20702950870276746  0.8378354051075333  0.14699734767284414  1.0000
  C   C21       1.0  0.18101860413395346  0.9390055252864968  0.6782255668143978  1.0000
  C   C22       1.0  0.681011342493278  0.06098951153257562  0.8217766698565188  1.0000
  C   C23       1.0  0.8189902501784445  0.06099639712559929  0.3217744123611085  1.0000
  C   C24       1.0  0.31898974680417785  0.9390113952900305  0.17822060632629197  1.0000
  C   C25       1.0  0.23280858673290797  0.07952398990629211  0.6768499652865717  1.0000
  C   C26       1.0  0.7328039147127827  0.9204703207372236  0.8231503218037519  1.0000
  C   C27       1.0  0.7671976792333696  0.92047691693103  0.3231473109002821  1.0000
  C   C28       1.0  0.2671945862483724  0.07952744136411381  0.17685162547095964  1.0000
  C   C29       1.0  0.6837180413425445  0.04326315820190979  0.5868579188898696  1.0000
  C   C30       1.0  0.18370987668892272  0.9567308783995754  0.9131416190036465  1.0000
  C   C31       1.0  0.31629081293338157  0.9567315211170565  0.4131406278738867  1.0000
  C   C32       1.0  0.8162886242811143  0.0432700077816293  0.08685834771480223  1.0000
  C   C33       1.0  0.3938561354998243  0.1172755822770952  0.6453821737424692  1.0000
  C   C34       1.0  0.8938474059823422  0.8827196700664004  0.8546150013360081  1.0000
  C   C35       1.0  0.6061527187891615  0.8827243090001744  0.354612399459761  1.0000
  C   C36       1.0  0.10614980080111283  0.11727812298229881  0.14538291013121815  1.0000
  C   C37       1.0  0.15541610731168737  0.6350910315021281  0.7126334432366837  1.0000
  C   C38       1.0  0.6554101138362397  0.3649058908473748  0.7873741594798606  1.0000
  C   C39       1.0  0.8445862761687124  0.3649098288975808  0.2873698866568476  1.0000
  C   C40       1.0  0.34458838713500484  0.6350960418523003  0.2126244744187461  1.0000
  C   C41       1.0  0.7893105115852704  0.9355276950575873  0.5598132177860936  1.0000
  C   C42       1.0  0.2893112586463076  0.0644742006695296  0.9401858993007299  1.0000
  C   C43       1.0  0.2106918718404955  0.0644638756386229  0.4401852916256461  1.0000
  C   C44       1.0  0.7106872423408251  0.9355308354759869  0.059813444579262416  1.0000
  N   N1        1.0  0.8472027948926597  0.45275354783743876  0.027801814761907906  1.0000
  N   N2        1.0  0.3472145397349635  0.5472408673855683  0.4722018303447088  1.0000
  N   N3        1.0  0.15277499939077901  0.5472421211680681  0.9722027981363299  1.0000
  N   N4        1.0  0.6527904320339603  0.45275067752545806  0.5278000422411113  1.0000
  N   N5        1.0  0.566441289132456  0.7679806565533127  0.585756047328836  1.0000
  N   N6        1.0  0.0664395295189948  0.23201475453507928  0.9142473683739427  1.0000
  N   N7        1.0  0.43356238849456474  0.23201606420278154  0.4142465601353323  1.0000
  N   N8        1.0  0.9335537947892121  0.7679861109973772  0.08575528887811863  1.0000
  N   N9        1.0  0.7062548970646176  0.4081883250712366  0.04819388485582722  1.0000
  N   N10       1.0  0.20625787761187556  0.591812593515023  0.45180290122599603  1.0000
  N   N11       1.0  0.29374230974467264  0.5918135921492365  0.9518067669450121  1.0000
  N   N12       1.0  0.7937354466893396  0.4081882926514666  0.5481970654884165  1.0000
  N   N13       1.0  0.5717273519334116  0.3621701780102952  0.06697152299009453  1.0000
  N   N14       1.0  0.07175264980127591  0.6378268411496535  0.43302837913038433  1.0000
  N   N15       1.0  0.42824785401143844  0.6378234031094294  0.9330350829113816  1.0000
  N   N16       1.0  0.9282600870331807  0.36217607104835997  0.566977666206846  1.0000
  O   O1        1.0  0.1560209576681402  0.4121781118559653  0.7833398026001465  1.0000
  O   O2        1.0  0.6560347223252876  0.5878156641172438  0.7166731448034371  1.0000
  O   O3        1.0  0.8439736608390336  0.587828960571855  0.21666427461568122  1.0000
  O   O4        1.0  0.343963778691176  0.4121934858830301  0.2833302846789892  1.0000
  O   O5        1.0  0.34349387790533836  0.4460994725365879  0.6716271508755016  1.0000
  O   O6        1.0  0.8435079250003599  0.5539005919196285  0.8283807700732952  1.0000
  O   O7        1.0  0.6565020347255841  0.5539003774358093  0.32837280339193603  1.0000
  O   O8        1.0  0.1564853993348977  0.44610544430305776  0.17162329469253026  1.0000
  O   O9        1.0  0.25652431738537024  0.6987268567177481  0.6426835265769884  1.0000
  O   O10       1.0  0.7565220005091008  0.3012685889018343  0.8573215183911602  1.0000
  O   O11       1.0  0.7434767719255433  0.30127506051375963  0.35731712522687803  1.0000
  O   O12       1.0  0.24347391213769504  0.6987343645164046  0.14267914585765604  1.0000
