data_image0
_chemical_formula_structural       Mn4H20C24N8O20
_chemical_formula_sum              "Mn4 H20 C24 N8 O20"
_cell_length_a       7.600167961224059
_cell_length_b       9.433340985049568
_cell_length_c       11.129419567829476
_cell_angle_alpha    90.00250089009289
_cell_angle_beta     89.99577872292251
_cell_angle_gamma    100.08358953491162

_space_group_name_H-M_alt    "P 1"
_space_group_IT_number       1

loop_
  _space_group_symop_operation_xyz
  'x, y, z'

loop_
  _atom_site_type_symbol
  _atom_site_label
  _atom_site_symmetry_multiplicity
  _atom_site_fract_x
  _atom_site_fract_y
  _atom_site_fract_z
  _atom_site_occupancy
  Mn  Mn1       1.0  0.7845016999309067  0.4881117979340673  0.3278921945749574  1.0000
  Mn  Mn2       1.0  0.7155187910056854  0.0118782249572718  0.8279076017202417  1.0000
  Mn  Mn3       1.0  0.21552108298060793  0.511877060671999  0.6721019735208031  1.0000
  Mn  Mn4       1.0  0.28446504822328234  0.9881341295464383  0.17209106039285163  1.0000
  H   H1        1.0  0.9297743213424566  0.6966570556872684  0.09451722936278631  1.0000
  H   H2        1.0  0.570213442715584  0.8033333365989748  0.5945202315587254  1.0000
  H   H3        1.0  0.07022148994641945  0.30333450668369005  0.9054868231791745  1.0000
  H   H4        1.0  0.42978398454512495  0.19667009219990217  0.40548382116214304  1.0000
  H   H5        1.0  0.8938158860773269  0.6726284194711809  0.865849923091304  1.0000
  H   H6        1.0  0.6061800436745413  0.8273649399850103  0.3658492612288243  1.0000
  H   H7        1.0  0.10619226425343699  0.3273704677703932  0.13415592631317003  1.0000
  H   H8        1.0  0.3938246892359699  0.1726307706374968  0.6341601822810646  1.0000
  H   H9        1.0  0.6935660953967826  0.447603112514095  0.7887246052875414  1.0000
  H   H10       1.0  0.806428464707139  0.0523979393829563  0.288723396845775  1.0000
  H   H11       1.0  0.3064289988816498  0.5524068531788657  0.21127495501612262  1.0000
  H   H12       1.0  0.19356759260467984  0.9475892911477788  0.7112761630124569  1.0000
  H   H13       1.0  0.11107566387345  0.4481561057237757  0.3990649367902748  1.0000
  H   H14       1.0  0.3889149364740804  0.05183341958977651  0.8990712557484744  1.0000
  H   H15       1.0  0.8889397725636314  0.5518296549681169  0.6009337240311795  1.0000
  H   H16       1.0  0.6110615564586652  0.948175836932471  0.10092830501248073  1.0000
  H   H17       1.0  0.9795098761403054  0.29453754134816273  0.39817844871288344  1.0000
  H   H18       1.0  0.5204839996848492  0.205455506606441  0.8981821378213442  1.0000
  H   H19       1.0  0.020498500268914158  0.7054516058312785  0.6018184153109303  1.0000
  H   H20       1.0  0.47949981973329153  0.7945514396248968  0.10180933603643892  1.0000
  C   C1        1.0  0.844350398957026  0.6057220407362608  0.0513860761371134  1.0000
  C   C2        1.0  0.6556458376605717  0.8942677341959708  0.5513881257327925  1.0000
  C   C3        1.0  0.155656687726804  0.39427254089444835  0.9486152806172399  1.0000
  C   C4        1.0  0.3443450414289799  0.10573582568239463  0.44861233307828036  1.0000
  C   C5        1.0  0.8257569777197062  0.5915479936220649  0.9274337675780089  1.0000
  C   C6        1.0  0.6742333561055741  0.9084444164858354  0.42743536231856183  1.0000
  C   C7        1.0  0.17424931097273336  0.40844335889722333  0.07256938617563691  1.0000
  C   C8        1.0  0.32575514913250453  0.0915548642128883  0.5725713861094874  1.0000
  C   C9        1.0  0.7165401801216689  0.46776638403221676  0.884397850792574  1.0000
  C   C10       1.0  0.7834545508054231  0.03222940322040561  0.38439795592095294  1.0000
  C   C11       1.0  0.2834585367753136  0.5322316103490438  0.11560350623666693  1.0000
  C   C12       1.0  0.21654809523485602  0.9677685124223177  0.6156007054490902  1.0000
  C   C13       1.0  0.6563940384479424  0.3885143214183628  0.0770017993362799  1.0000
  C   C14       1.0  0.8436036956974036  0.11147591442413333  0.577000040295971  1.0000
  C   C15       1.0  0.3436169772009592  0.6114801815410972  0.9230004558367144  1.0000
  C   C16       1.0  0.15638483015349894  0.8885287742441648  0.4229977230371631  1.0000
  C   C17       1.0  0.562867021523779  0.27709733898033306  0.16445769525173404  1.0000
  C   C18       1.0  0.9371285879569841  0.22289604030579827  0.6644472461035278  1.0000
  C   C19       1.0  0.4371387555347325  0.7228972688629086  0.8355427630167682  1.0000
  C   C20       1.0  0.06287254357156509  0.7771170493624596  0.33553883631347503  1.0000
  C   C21       1.0  0.447128207317796  0.5334065674785151  0.45070940778865787  1.0000
  C   C22       1.0  0.05287971315971867  0.9665913496808827  0.9507112477682258  1.0000
  C   C23       1.0  0.5529089820069044  0.46658200258782057  0.5492838614179691  1.0000
  C   C24       1.0  0.9470944461224208  0.03342444398778349  0.04929729836737811  1.0000
  N   N1        1.0  0.7614364987983888  0.5034306723318595  0.12641445007348304  1.0000
  N   N2        1.0  0.7385635519442673  0.9965595231912733  0.6264169933407686  1.0000
  N   N3        1.0  0.23857189746620827  0.49656388310314276  0.8735887036861811  1.0000
  N   N4        1.0  0.2614187115137269  0.003451781210571901  0.37358436435109615  1.0000
  N   N5        1.0  0.6293893979500282  0.3674982887076154  0.9593005766289976  1.0000
  N   N6        1.0  0.8705991940753179  0.13249486885242592  0.45929908933769076  1.0000
  N   N7        1.0  0.37060800918797543  0.6324997319366475  0.0407025774727572  1.0000
  N   N8        1.0  0.12939610571329746  0.8674999487920091  0.5406995721607615  1.0000
  O   O1        1.0  0.6223296443817644  0.2840568559571609  0.2712354738815961  1.0000
  O   O2        1.0  0.8776828579014052  0.2159345627808804  0.7712331652245653  1.0000
  O   O3        1.0  0.377680573498516  0.7159344178067714  0.7287640856933991  1.0000
  O   O4        1.0  0.1223332118860796  0.78408039114467  0.22875381536863423  1.0000
  O   O5        1.0  0.431554336823865  0.18859256274851793  0.1245435486974529  1.0000
  O   O6        1.0  0.06843136163045223  0.3114111236702542  0.6245181873248598  1.0000
  O   O7        1.0  0.5684347000817381  0.8114088708145177  0.8754685908737516  1.0000
  O   O8        1.0  0.9315692181969766  0.688594404945441  0.37545980829096964  1.0000
  O   O9        1.0  0.5231090025243574  0.5630189884924092  0.3508843202287011  1.0000
  O   O10       1.0  0.9769051709295055  0.9369723933149036  0.850888774615072  1.0000
  O   O11       1.0  0.47693002809319307  0.4369717082257057  0.6491152386069318  1.0000
  O   O12       1.0  0.023053783636157704  0.06304045989983112  0.14912875704515471  1.0000
  O   O13       1.0  0.2908447422855787  0.5536918404685451  0.47893084088553195  1.0000
  O   O14       1.0  0.20915904992133255  0.94630175136129  0.9789240246443641  1.0000
  O   O15       1.0  0.7091824612804416  0.4462882759204233  0.5210624284170607  1.0000
  O   O16       1.0  0.7908227420144911  0.05372362472420629  0.0210791303589488  1.0000
  O   O17       1.0  0.014857660712884491  0.3877986001748752  0.35265053425933257  1.0000
  O   O18       1.0  0.4851448690458326  0.1121868769632499  0.8526533233391191  1.0000
  O   O19       1.0  0.9851538666590541  0.6121926474269941  0.6473526193598786  1.0000
  O   O20       1.0  0.5148378860124864  0.8878157639263834  0.14734803417984926  1.0000
