data_image0
_chemical_formula_structural       Al4H56C80N8O20
_chemical_formula_sum              "Al4 H56 C80 N8 O20"
_cell_length_a       6.629164214476835
_cell_length_b       22.04674443628812
_cell_length_c       27.40544171525109
_cell_angle_alpha    78.57970564967641
_cell_angle_beta     91.29572151247093
_cell_angle_gamma    90.05172717395848

_space_group_name_H-M_alt    "P 1"
_space_group_IT_number       1

loop_
  _space_group_symop_operation_xyz
  'x, y, z'

loop_
  _atom_site_type_symbol
  _atom_site_label
  _atom_site_symmetry_multiplicity
  _atom_site_fract_x
  _atom_site_fract_y
  _atom_site_fract_z
  _atom_site_occupancy
  Al  Al1       1.0  0.8026363678787619  0.25316082203916324  0.24863548714127154  1.0000
  Al  Al2       1.0  0.1954385399116987  0.7464411751630494  0.7515742707933485  1.0000
  Al  Al3       1.0  0.30225804041367615  0.24774051876541847  0.2527955142954497  1.0000
  Al  Al4       1.0  0.6956894723211348  0.7517860127122804  0.747468183135311  1.0000
  H   H1        1.0  0.5312428641152706  0.44287555438118903  0.9570583124949152  1.0000
  H   H2        1.0  0.4678998593001893  0.556479559829569  0.042726221496757005  1.0000
  H   H3        1.0  0.045743097840038195  0.06275586754614446  0.541579541358736  1.0000
  H   H4        1.0  0.9534333177767709  0.9375801017684822  0.4594392671472606  1.0000
  H   H5        1.0  0.3331553421493041  0.4356805255780358  0.19963246657120948  1.0000
  H   H6        1.0  0.6654183681768373  0.5636764507247918  0.8002503567954095  1.0000
  H   H7        1.0  0.8151099960844874  0.0618307495573589  0.3025257016580198  1.0000
  H   H8        1.0  0.18215830755487872  0.9378424566045567  0.6983578960917711  1.0000
  H   H9        1.0  0.5433580651752266  0.4817616931739153  0.8694786261660566  1.0000
  H   H10       1.0  0.4550452757576835  0.5175512922574088  0.13037157996408413  1.0000
  H   H11       1.0  0.061675763988141306  0.022004616495770752  0.628874962743197  1.0000
  H   H12       1.0  0.9363128648924713  0.9778953880019188  0.37206086668945904  1.0000
  H   H13       1.0  0.6717368685494876  0.43020149492457466  0.04119944132203561  1.0000
  H   H14       1.0  0.32737414816017457  0.5689928415473346  0.9585840188707665  1.0000
  H   H15       1.0  0.17621548552351377  0.07442714001361851  0.45792986547403564  1.0000
  H   H16       1.0  0.823378649828399  0.9261617200081886  0.5431207884826249  1.0000
  H   H17       1.0  0.3196171498726556  0.10259053132808303  0.0607175716925568  1.0000
  H   H18       1.0  0.6803162560764306  0.8971353082144162  0.9397343002007831  1.0000
  H   H19       1.0  0.823763145224156  0.4523288109074315  0.4060209220891977  1.0000
  H   H20       1.0  0.17322940338848272  0.5468122405391895  0.5948684784625654  1.0000
  H   H21       1.0  0.3441954615001706  0.16740475154955453  0.12590935255779806  1.0000
  H   H22       1.0  0.6543610698979733  0.8322679974119822  0.8746230643160756  1.0000
  H   H23       1.0  0.8583060089668069  0.38585212486410825  0.3426527100718674  1.0000
  H   H24       1.0  0.1393119264964753  0.6139208149778455  0.6578045793022228  1.0000
  H   H25       1.0  0.2724727895543779  0.9857892223115602  0.06499259432563062  1.0000
  H   H26       1.0  0.7279588019375325  0.01393917251751022  0.9351536643875137  1.0000
  H   H27       1.0  0.7707274585162764  0.42207941747239636  0.5015080733969199  1.0000
  H   H28       1.0  0.22570252745929048  0.5766046329354853  0.499278780318825  1.0000
  H   H29       1.0  0.267339337570661  0.9207103216533599  0.0011017891837426005  1.0000
  H   H30       1.0  0.7332458899229694  0.07896251875811801  0.999108440103747  1.0000
  H   H31       1.0  0.7597109572448417  0.4830013775121459  0.5681306224872742  1.0000
  H   H32       1.0  0.2368525311313618  0.5156713578800521  0.43267342531011377  1.0000
  H   H33       1.0  0.8330104369201977  0.3339785543241264  0.1294708480994942  1.0000
  H   H34       1.0  0.8354017957884211  0.3611157467891388  0.0659523850403829  1.0000
  H   H35       1.0  0.16399314715913962  0.6381021507736833  0.9337685960695126  1.0000
  H   H36       1.0  0.1662141774926127  0.6652716021107494  0.8702535336374454  1.0000
  H   H37       1.0  0.34807081082331587  0.17118551744594876  0.3718585233506814  1.0000
  H   H38       1.0  0.34918972256740943  0.14142717231555227  0.4339697694408216  1.0000
  H   H39       1.0  0.6500084310831157  0.8589516432740325  0.5668194759049641  1.0000
  H   H40       1.0  0.6505635228681542  0.8289742461765714  0.6288346757797286  1.0000
  H   H41       1.0  0.724506211844826  0.1271578491453838  0.16142228266979688  1.0000
  H   H42       1.0  0.2741696161222649  0.8719982634164583  0.8387976735425937  1.0000
  H   H43       1.0  0.24279093311567118  0.32820640574831117  0.36543332136491813  1.0000
  H   H44       1.0  0.7552253281548998  0.6710745904164315  0.6346404561858918  1.0000
  H   H45       1.0  0.6673988043546119  0.015254801047738905  0.08171825134677138  1.0000
  H   H46       1.0  0.560993330905923  0.0493645474214546  0.1255680293599966  1.0000
  H   H47       1.0  0.43906249364189165  0.9496459987669824  0.8745732228207572  1.0000
  H   H48       1.0  0.333153833120619  0.9839632110140573  0.9183999364082212  1.0000
  H   H49       1.0  0.06362080726954389  0.3608414979870744  0.4305981324447786  1.0000
  H   H50       1.0  0.1664722214865861  0.40767618490814783  0.4672863897903454  1.0000
  H   H51       1.0  0.8304075609549031  0.5907214553212867  0.5332959272389388  1.0000
  H   H52       1.0  0.9337687893984707  0.6379206962421125  0.5696346116650943  1.0000
  H   H53       1.0  0.5318347106842722  0.300013195688642  0.1931005041978793  1.0000
  H   H54       1.0  0.4664008384523441  0.6990186906011788  0.8068804910776423  1.0000
  H   H55       1.0  0.0392476867488298  0.19886402973506992  0.3067472951226051  1.0000
  H   H56       1.0  0.9587956508525295  0.8010351555154716  0.6937098389630165  1.0000
  C   C1        1.0  0.5668589772998089  0.3108752476169911  0.3147422442911463  1.0000
  C   C2        1.0  0.4311818822074044  0.6889064903026424  0.6853087882444271  1.0000
  C   C3        1.0  0.03948153857005111  0.19037156351696893  0.18554589209247752  1.0000
  C   C4        1.0  0.9584946019731005  0.8089341014305163  0.8149254440409949  1.0000
  C   C5        1.0  0.5569334880343888  0.15060913090753308  0.3069452703442721  1.0000
  C   C6        1.0  0.4409664858546449  0.849215613587447  0.6937196702899087  1.0000
  C   C7        1.0  0.0686609682837656  0.3494511100475676  0.19472639204600736  1.0000
  C   C8        1.0  0.929738111816306  0.6498956445957305  0.8051648849180283  1.0000
  C   C9        1.0  0.9000567666654078  0.5949484667953726  0.844811827148  1.0000
  C   C10       1.0  0.0985250456355544  0.404355839062191  0.1550140535226063  1.0000
  C   C11       1.0  0.41010157424462074  0.9057434172209186  0.6545965149964205  1.0000
  C   C12       1.0  0.5880556871688681  0.09421763170010425  0.3462621552557437  1.0000
  C   C13       1.0  0.6730137075431201  0.5104342908416442  0.8748047651794053  1.0000
  C   C14       1.0  0.3255259131133457  0.4888641654346131  0.12505708415285713  1.0000
  C   C15       1.0  0.18858248608853503  0.9924216894218673  0.6241584489511426  1.0000
  C   C16       1.0  0.8096213818742156  0.007543941649210228  0.3768010912640278  1.0000
  C   C17       1.0  0.7395728127433687  0.5554317014072724  0.8368379191605585  1.0000
  C   C18       1.0  0.259041061779584  0.44386404052205114  0.1630316041904649  1.0000
  C   C19       1.0  0.25445583920472353  0.9461136573490379  0.6622984878508332  1.0000
  C   C20       1.0  0.7433523044111608  0.0537118093668241  0.33861489951689094  1.0000
  C   C21       1.0  0.0028630158663247984  0.5869381547480118  0.8916299961433154  1.0000
  C   C22       1.0  0.9961387753424232  0.4123356355770369  0.10813968771492452  1.0000
  C   C23       1.0  0.5065239836142723  0.9124890753513597  0.60851577966352  1.0000
  C   C24       1.0  0.49219092007391657  0.08770566848692604  0.3923659673548343  1.0000
  C   C25       1.0  0.9439639580536509  0.5366536961427356  0.9313026121585112  1.0000
  C   C26       1.0  0.05511402978594051  0.4626190744516452  0.06848478058856242  1.0000
  C   C27       1.0  0.4496113993038051  0.963714886133005  0.5688495690761001  1.0000
  C   C28       1.0  0.5494566480000884  0.03663340508584411  0.4321402181898151  1.0000
  C   C29       1.0  0.7679105954155715  0.5024647906728534  0.9224923805590562  1.0000
  C   C30       1.0  0.2310208696948095  0.49684329808807365  0.07732560827992778  1.0000
  C   C31       1.0  0.2790660329450887  0.9999915131898619  0.5770459271435372  1.0000
  C   C32       1.0  0.7197777163133097  0.00023122762765127292  0.42395465487243916  1.0000
  C   C33       1.0  0.0453220188775632  0.5207637950721987  0.9798069763034861  1.0000
  C   C34       1.0  0.9538031474630273  0.4784994720154146  0.01998990514194081  1.0000
  C   C35       1.0  0.5454874346259899  0.9784888457319311  0.5207300602052457  1.0000
  C   C36       1.0  0.4538356294997428  0.022008613415273704  0.4802964843829187  1.0000
  C   C37       1.0  0.7595680203869578  0.4545184650668901  0.010474583028845103  1.0000
  C   C38       1.0  0.23938378625043547  0.5448259612232035  0.9893603702930918  1.0000
  C   C39       1.0  0.2648151941712626  0.048714281923274406  0.4890395588904397  1.0000
  C   C40       1.0  0.7345690235461291  0.951791436450826  0.5120057138837026  1.0000
  C   C41       1.0  0.6769220727048263  0.4633965699431287  0.9634580768745308  1.0000
  C   C42       1.0  0.3220799525348923  0.535964971096476  0.0363869720898151  1.0000
  C   C43       1.0  0.1877995267369315  0.04053067079973972  0.5357115150317711  1.0000
  C   C44       1.0  0.8114452631688708  0.9598615645465287  0.465318716470378  1.0000
  C   C45       1.0  0.8545239546579495  0.12086633707968285  0.1392192844807951  1.0000
  C   C46       1.0  0.14435433023592026  0.8784980206804751  0.8610083196328162  1.0000
  C   C47       1.0  0.3694054708295411  0.35559379276138253  0.3750128492685293  1.0000
  C   C48       1.0  0.6283065251606459  0.6436994268633783  0.625211264226529  1.0000
  C   C49       1.0  0.8400471491305764  0.08282038233971892  0.10393660887541499  1.0000
  C   C50       1.0  0.15952016794386742  0.9165886211051345  0.8962470934107999  1.0000
  C   C51       1.0  0.3480786527631495  0.39225249453122063  0.4109873288243833  1.0000
  C   C52       1.0  0.6492887279249188  0.6067515466422151  0.5894299185075768  1.0000
  C   C53       1.0  0.010598600657054596  0.07652481907791751  0.0748558387326881  1.0000
  C   C54       1.0  0.989252379870443  0.9230896579647451  0.9253643986828878  1.0000
  C   C55       1.0  0.515895807562238  0.42731481721061465  0.42267502011119973  1.0000
  C   C56       1.0  0.48116022865963254  0.5716415255361298  0.5779728047063842  1.0000
  C   C57       1.0  0.1896418321298086  0.1072803933232649  0.08344291001463938  1.0000
  C   C58       1.0  0.809909234348808  0.8923853426073692  0.9169237447589609  1.0000
  C   C59       1.0  0.6965725941599317  0.4245013367063422  0.39745705597977127  1.0000
  C   C60       1.0  0.30061884955296136  0.5746817496325464  0.6032178185555992  1.0000
  C   C61       1.0  0.204740989274427  0.1437002414391912  0.11947139055402542  1.0000
  C   C62       1.0  0.7940884181506717  0.8559118584317389  0.8809521297559613  1.0000
  C   C63       1.0  0.7174724083652677  0.387714375491342  0.36203819089504924  1.0000
  C   C64       1.0  0.2799945657580807  0.6118294012063429  0.6383812333382934  1.0000
  C   C65       1.0  0.03442060099202139  0.15077694835506616  0.1472777489055943  1.0000
  C   C66       1.0  0.9641097089049852  0.8486519838201899  0.8531012601122755  1.0000
  C   C67       1.0  0.5520366996876263  0.35263004036460893  0.35113742584848495  1.0000
  C   C68       1.0  0.4458014727606994  0.6469259381264083  0.6490748462814864  1.0000
  C   C69       1.0  0.1538978063075191  0.9924957535836826  0.0361409399498172  1.0000
  C   C70       1.0  0.8466855546082357  0.00720832182771152  0.9639914087291501  1.0000
  C   C71       1.0  0.6522356645801537  0.45663655201614983  0.500623668460598  1.0000
  C   C72       1.0  0.3441916105665541  0.5420449079025644  0.5001702552812902  1.0000
  C   C73       1.0  0.15101863972207505  0.9558966541208064  0.00015466274969360203  1.0000
  C   C74       1.0  0.8495332904265211  0.0437754288460255  2.9216956675990005e-06  1.0000
  C   C75       1.0  0.6460441044048721  0.4909424182588255  0.5381128616486136  1.0000
  C   C76       1.0  0.35046894034366005  0.5077565933568949  0.462676018932541  1.0000
  C   C77       1.0  0.9968796870193869  0.9624206347230102  0.9632888779912391  1.0000
  C   C78       1.0  0.0036175435590734997  0.03725142338452509  0.0368749890154092  1.0000
  C   C79       1.0  0.4914165974249514  0.5344724799250926  0.5386778559430354  1.0000
  C   C80       1.0  0.5051315952291944  0.4642731510068573  0.4620867087574254  1.0000
  N   N1        1.0  0.8512303453998342  0.37027433219857653  0.10059389727689448  1.0000
  N   N2        1.0  0.14792314745020718  0.6289729209397166  0.8991254531538219  1.0000
  N   N3        1.0  0.3547457112868173  0.1325360470593537  0.3991234331905106  1.0000
  N   N4        1.0  0.6441214488556496  0.8677325880298596  0.6016862400749049  1.0000
  N   N5        1.0  0.6595554552381344  0.053186269006282316  0.09736937893371328  1.0000
  N   N6        1.0  0.34042817249067536  0.9460339752793487  0.9027426234316708  1.0000
  N   N7        1.0  0.16499826059721556  0.3942767565812916  0.4339630987488619  1.0000
  N   N8        1.0  0.8322542018424172  0.6044520813583958  0.5664820789017427  1.0000
  O   O1        1.0  0.37961867330817267  0.16711953628543344  0.2901917500238795  1.0000
  O   O2        1.0  0.6182084552466948  0.8325179023260032  0.7103929472579724  1.0000
  O   O3        1.0  0.8954638522338457  0.32278589672434077  0.2001959959710007  1.0000
  O   O4        1.0  0.10299402936912827  0.6764863979533262  0.7996594303370442  1.0000
  O   O5        1.0  0.7344772547108036  0.3074757855049128  0.293458914772259  1.0000
  O   O6        1.0  0.2634066221161575  0.6924581804590489  0.7064859672884153  1.0000
  O   O7        1.0  0.2094191164739669  0.2114973213458953  0.1972471352468759  1.0000
  O   O8        1.0  0.7884529399652324  0.7878785239828119  0.803224618793358  1.0000
  O   O9        1.0  0.7172289626479652  0.18035649838439843  0.29325033480207446  1.0000
  O   O10       1.0  0.2805789610754132  0.8194826738005647  0.7073443535533601  1.0000
  O   O11       1.0  0.22423301890368924  0.32972008211343967  0.22145334848820403  1.0000
  O   O12       1.0  0.7740125938484753  0.6697631491937059  0.7785523457991702  1.0000
  O   O13       1.0  0.8699448665636424  0.20083060389462304  0.20333538162880424  1.0000
  O   O14       1.0  0.1280150464227319  0.7982796855949349  0.7972135642584348  1.0000
  O   O15       1.0  0.4083246018859654  0.2801369564508819  0.30823372915336483  1.0000
  O   O16       1.0  0.5898779283835083  0.7195885993860287  0.6918229306697158  1.0000
  O   O17       1.0  0.5460465215968355  0.26349569063144435  0.21932499081361106  1.0000
  O   O18       1.0  0.4520539230385552  0.7358080751989893  0.7809162203872403  1.0000
  O   O19       1.0  0.0520703807060485  0.23714079946547886  0.2823846634691449  1.0000
  O   O20       1.0  0.9458253971979075  0.7626219108100687  0.7179043536770422  1.0000
