data_image0
_chemical_formula_structural       Cu4Mo2H32C40N8O8
_chemical_formula_sum              "Cu4 Mo2 H32 C40 N8 O8"
_cell_length_a       9.933890163852649
_cell_length_b       9.933761835161198
_cell_length_c       14.305174642062116
_cell_angle_alpha    98.83961198422176
_cell_angle_beta     98.83977114089822
_cell_angle_gamma    116.36985113963284

_space_group_name_H-M_alt    "P 1"
_space_group_IT_number       1

loop_
  _space_group_symop_operation_xyz
  'x, y, z'

loop_
  _atom_site_type_symbol
  _atom_site_label
  _atom_site_symmetry_multiplicity
  _atom_site_fract_x
  _atom_site_fract_y
  _atom_site_fract_z
  _atom_site_occupancy
  Cu  Cu1       1.0  0.85536490621746  0.9401400273553692  0.8131628284246728  1.0000
  Cu  Cu2       1.0  0.9401353063913122  0.8553713041436523  0.3131608456768333  1.0000
  Cu  Cu3       1.0  0.1446381166074886  0.0598633007372626  0.18684061739061517  1.0000
  Cu  Cu4       1.0  0.0598621940398445  0.14462882718350303  0.686836674179446  1.0000
  Mo  Mo1       1.0  0.7725449808639693  0.22745302446485743  0.7500049376038971  1.0000
  Mo  Mo2       1.0  0.22745846490261107  0.7725507265930177  0.24998951568850464  1.0000
  H   H1        1.0  0.17862213620978198  0.42894000682829864  0.06789532465326431  1.0000
  H   H2        1.0  0.4289444601846455  0.1786337082998131  0.5679042726801953  1.0000
  H   H3        1.0  0.8213804817286742  0.5710623238435701  0.9321044584067265  1.0000
  H   H4        1.0  0.57106000931509  0.821376673354159  0.4320987784492658  1.0000
  H   H5        1.0  0.9419875518464167  0.21851314565348903  0.9490348140642125  1.0000
  H   H6        1.0  0.2185139265363387  0.9419933138564642  0.44904715913550314  1.0000
  H   H7        1.0  0.058007729649631225  0.781486818350494  0.05096662041056992  1.0000
  H   H8        1.0  0.781487491221469  0.0580066315444299  0.5509535992042345  1.0000
  H   H9        1.0  0.6090495083906758  0.3278962814314355  0.09562533309080119  1.0000
  H   H10       1.0  0.3278966458389476  0.609050519174076  0.5956251810615711  1.0000
  H   H11       1.0  0.3909502418433702  0.6720941786555628  0.9043776048353891  1.0000
  H   H12       1.0  0.6721097849354364  0.39095373196618505  0.40438297290656067  1.0000
  H   H13       1.0  0.1599921883816721  0.9564120383484183  0.8865926349288601  1.0000
  H   H14       1.0  0.9564087170714473  0.1599900874167091  0.38659125245170856  1.0000
  H   H15       1.0  0.84000587532833  0.04358541952989731  0.11341162984408014  1.0000
  H   H16       1.0  0.04357398200517783  0.840015051530642  0.6134023127433181  1.0000
  H   H17       1.0  0.8503460583714215  0.5545805518927764  0.20238591151456825  1.0000
  H   H18       1.0  0.5545646475800794  0.8503562737806691  0.7023946872832099  1.0000
  H   H19       1.0  0.14966796247227165  0.44540760655866063  0.797613544423676  1.0000
  H   H20       1.0  0.4454340297539403  0.14965889237411997  0.29760754537763023  1.0000
  H   H21       1.0  0.6249466746578844  0.8162149889843419  0.2421992800112989  1.0000
  H   H22       1.0  0.8162194937359287  0.6249654110039843  0.7421886778793622  1.0000
  H   H23       1.0  0.3750644989039102  0.18377561052118815  0.7577987290938353  1.0000
  H   H24       1.0  0.18376461022531027  0.3750340668764666  0.2578001880105916  1.0000
  H   H25       1.0  0.37747610368160167  0.605919534340515  0.1380421240529088  1.0000
  H   H26       1.0  0.6059195732392055  0.3774871835927558  0.6380315638866847  1.0000
  H   H27       1.0  0.6225322669997837  0.3940801832967723  0.8619622264353095  1.0000
  H   H28       1.0  0.3940640222899389  0.6224974946119275  0.36197227969051937  1.0000
  H   H29       1.0  0.40814838418685884  0.15541296807864305  0.9991085796981238  1.0000
  H   H30       1.0  0.15541427845455752  0.40814417953427545  0.49910607394224366  1.0000
  H   H31       1.0  0.5918493370932721  0.8445895950010539  0.0008871552575300219  1.0000
  H   H32       1.0  0.8445824079261044  0.5918501234028142  0.5008906612274515  1.0000
  C   C1        1.0  0.1833543855943915  0.3280779570710806  0.02854016834856311  1.0000
  C   C2        1.0  0.32805550959991336  0.18335206688318095  0.5285482805334496  1.0000
  C   C3        1.0  0.8166508210203743  0.6719315433594985  0.9714565709838183  1.0000
  C   C4        1.0  0.6719453636353803  0.8166549925063862  0.4714511556112696  1.0000
  C   C5        1.0  0.4684620155642845  0.4448332595005979  0.10526474467933869  1.0000
  C   C6        1.0  0.44484067386556336  0.4684432177716927  0.6052622073261276  1.0000
  C   C7        1.0  0.5315476949337705  0.5551607319982209  0.8947362899688542  1.0000
  C   C8        1.0  0.5551557453545114  0.5315530288811203  0.3947431189308901  1.0000
  C   C9        1.0  0.048640608041267734  0.2100494980112372  0.9634753783007212  1.0000
  C   C10       1.0  0.21003596152956308  0.0486373138496816  0.4634853525287781  1.0000
  C   C11       1.0  0.9513646311074666  0.7899600349551292  0.03652066929912931  1.0000
  C   C12       1.0  0.7899585545949817  0.9513673323904468  0.5365165446515974  1.0000
  C   C13       1.0  0.605602118941391  0.4335796635132069  0.1255903223112753  1.0000
  C   C14       1.0  0.4335792978506987  0.6055874843787522  0.6255814622825042  1.0000
  C   C15       1.0  0.3944073963528325  0.5664141327708877  0.8744148627321024  1.0000
  C   C16       1.0  0.5664251528926982  0.39441845673537296  0.3744161661253145  1.0000
  C   C17       1.0  0.17011477771861644  0.06369367538854219  0.9276118342558703  1.0000
  C   C18       1.0  0.0636873543650296  0.17011100900342063  0.42762346211831204  1.0000
  C   C19       1.0  0.8298852558210329  0.9363053190731495  0.07238445170770558  1.0000
  C   C20       1.0  0.9362957847433788  0.829889122349904  0.5723765576964226  1.0000
  C   C21       1.0  0.7416882724308849  0.5588932872237609  0.1848974846457878  1.0000
  C   C22       1.0  0.5588872401725736  0.7416942281612364  0.6848875663653473  1.0000
  C   C23       1.0  0.2583255532089764  0.4410946760129518  0.8151061216876272  1.0000
  C   C24       1.0  0.4411165102672712  0.2583164602606018  0.3151091412830098  1.0000
  C   C25       1.0  0.6182465608884083  0.7074685000428146  0.206697474795952  1.0000
  C   C26       1.0  0.707469764504346  0.6182561918666494  0.7067033928119528  1.0000
  C   C27       1.0  0.38176130232586997  0.292521274022441  0.7932937509587532  1.0000
  C   C28       1.0  0.29252288628128303  0.3817448113954357  0.2933013507531186  1.0000
  C   C29       1.0  0.4788053971490668  0.5876687297054559  0.14741032925775946  1.0000
  C   C30       1.0  0.5876586306332569  0.47880258203261405  0.6474232661570198  1.0000
  C   C31       1.0  0.5212044083395782  0.4123313969512949  0.8525851465959134  1.0000
  C   C32       1.0  0.41233269244715826  0.5211898682647699  0.35258870321485597  1.0000
  C   C33       1.0  0.30912134083611414  0.17673055806613286  0.9914391505209891  1.0000
  C   C34       1.0  0.1767197865337806  0.30912536183581824  0.491427340071958  1.0000
  C   C35       1.0  0.6908740313730276  0.8232717075472492  0.008563265983283943  1.0000
  C   C36       1.0  0.8232631737597557  0.6908641287481603  0.5085741992807229  1.0000
  C   C37       1.0  0.32053658570657007  0.3158732156544631  0.04219290822972971  1.0000
  C   C38       1.0  0.31587861882501034  0.32054153197145036  0.5421796875976739  1.0000
  C   C39       1.0  0.679469703064413  0.6841242608007789  0.9578095327197929  1.0000
  C   C40       1.0  0.6841235873381349  0.6794620052816781  0.45781948993409566  1.0000
  N   N1        1.0  0.04105968079847598  0.08000172376187459  0.9110143576277068  1.0000
  N   N2        1.0  0.0799743742266159  0.0410500328208556  0.411022401275666  1.0000
  N   N3        1.0  0.9589375498607636  0.9200063888315739  0.0889882697189606  1.0000
  N   N4        1.0  0.9200196693321694  0.9589595884774977  0.5889737330175321  1.0000
  N   N5        1.0  0.749517146920894  0.6953560029671877  0.22607152893283458  1.0000
  N   N6        1.0  0.6953417077900494  0.7495298626356756  0.7260721862212165  1.0000
  N   N7        1.0  0.2504878253111896  0.30463455006986345  0.773928539772399  1.0000
  N   N8        1.0  0.3046570115780796  0.2504770945023012  0.2739297810769443  1.0000
  O   O1        1.0  0.7415244367447755  0.07376700045384867  0.8104648147357381  1.0000
  O   O2        1.0  0.07378066221697559  0.7415345498076816  0.3104471348399898  1.0000
  O   O3        1.0  0.2584795765781606  0.9262379107037262  0.18952984264931422  1.0000
  O   O4        1.0  0.9262342538901647  0.2584699801958052  0.6895536614444778  1.0000
  O   O5        1.0  0.8260261599384647  0.40108120744267234  0.836857409022187  1.0000
  O   O6        1.0  0.4010777568609213  0.8260162395042981  0.3368435255470886  1.0000
  O   O7        1.0  0.17396334150332385  0.5989092619589655  0.16314711695075354  1.0000
  O   O8        1.0  0.5989248653550375  0.17398992471611052  0.6631497166888778  1.0000
