data_image0
_chemical_formula_structural       Zn4H54C82N4O16
_chemical_formula_sum              "Zn4 H54 C82 N4 O16"
_cell_length_a       11.05533931661947
_cell_length_b       13.861101402764742
_cell_length_c       26.34826131237157
_cell_angle_alpha    89.9616767507924
_cell_angle_beta     90.107142615397
_cell_angle_gamma    89.83955271343571

_space_group_name_H-M_alt    "P 1"
_space_group_IT_number       1

loop_
  _space_group_symop_operation_xyz
  'x, y, z'

loop_
  _atom_site_type_symbol
  _atom_site_label
  _atom_site_symmetry_multiplicity
  _atom_site_fract_x
  _atom_site_fract_y
  _atom_site_fract_z
  _atom_site_occupancy
  Zn  Zn1       1.0  0.5003771295069797  0.39954020428426423  0.5026886310872741  1.0000
  Zn  Zn2       1.0  0.49657532891868783  0.6005902369004944  0.502468951808396  1.0000
  Zn  Zn3       1.0  0.4984876504048259  0.600866143548103  0.0840580730189018  1.0000
  Zn  Zn4       1.0  0.5010243256982393  0.40014111566460997  0.0836820396411397  1.0000
  H   H1        1.0  0.6141563557806862  0.24693218708297593  0.4396433436295979  1.0000
  H   H2        1.0  0.3836656723745194  0.2485796138192455  0.5630691102591996  1.0000
  H   H3        1.0  0.34470022398330974  0.7536260349068018  0.5480933376683197  1.0000
  H   H4        1.0  0.646771189858022  0.7511709993102827  0.4556791626872113  1.0000
  H   H5        1.0  0.5701994519624521  0.030920441913068003  0.3932007125437025  1.0000
  H   H6        1.0  0.7060323185891946  0.09049041322842298  0.4088368079393733  1.0000
  H   H7        1.0  0.4223746145459374  0.0318109038275907  0.6095933733431665  1.0000
  H   H8        1.0  0.28783852827061207  0.0934424182050435  0.5931426353304587  1.0000
  H   H9        1.0  0.23687044939712368  0.9705980709467711  0.5289780116596816  1.0000
  H   H10       1.0  0.2699391959033973  0.909716676100068  0.5861588501171298  1.0000
  H   H11       1.0  0.7569899158830536  0.9666693744966255  0.4728869806446951  1.0000
  H   H12       1.0  0.720681160584384  0.9064890863795226  0.41588398597515663  1.0000
  H   H13       1.0  0.6740647969679188  0.3741414499943688  0.19981466190109395  1.0000
  H   H14       1.0  0.8186537554395699  0.2729226402047402  0.24797878777492605  1.0000
  H   H15       1.0  0.6763642255465926  0.3820726091098763  0.3889610425786644  1.0000
  H   H16       1.0  0.8202930503563197  0.2772492022034854  0.3428170697607982  1.0000
  H   H17       1.0  0.3793194652057111  0.615933044091456  0.3397505193667883  1.0000
  H   H18       1.0  0.38056773808295935  0.6140929988792222  0.24464309786954896  1.0000
  H   H19       1.0  0.4758220020673392  0.3496529293118443  0.6639378975752948  1.0000
  H   H20       1.0  0.5285498667619777  0.6559787336925921  0.665193112515901  1.0000
  H   H21       1.0  0.4732347426394199  0.6520486837740621  0.9228040593590522  1.0000
  H   H22       1.0  0.535520468475717  0.34665090241818314  0.9216269491070932  1.0000
  H   H23       1.0  0.3657387425445364  0.3196769821065573  0.778672737173679  1.0000
  H   H24       1.0  0.4818095489468419  0.2597790637593178  0.7447614769582958  1.0000
  H   H25       1.0  0.6339379404841878  0.6843658150084124  0.7800665138930257  1.0000
  H   H26       1.0  0.5163830080376145  0.7437685513294027  0.7466233698025704  1.0000
  H   H27       1.0  0.36477418611005424  0.6831003671355164  0.8082376515760146  1.0000
  H   H28       1.0  0.4814207106677343  0.7421773741675964  0.8421365923351872  1.0000
  H   H29       1.0  0.6351949529350379  0.31682815234697864  0.8066864150599075  1.0000
  H   H30       1.0  0.5177913037049465  0.25834269565856266  0.8402156909064828  1.0000
  H   H31       1.0  0.7721352328418905  0.6264717629144769  0.5740989653053532  1.0000
  H   H32       1.0  0.8828443333162568  0.7291445309369919  0.634550304483696  1.0000
  H   H33       1.0  0.2222801374273331  0.6166725788400316  0.580276638615736  1.0000
  H   H34       1.0  0.1089887697293008  0.7240499684988677  0.6380051725264195  1.0000
  H   H35       1.0  0.11457909764888537  0.3827534453504811  0.4549552413575101  1.0000
  H   H36       1.0  0.8878938016065308  0.38486200071998405  0.452645244876294  1.0000
  H   H37       1.0  0.6139522141964308  0.7521450094649609  0.14631293313376403  1.0000
  H   H38       1.0  0.3832508038834491  0.7530181614783016  0.0226952165586738  1.0000
  H   H39       1.0  0.34533861739986804  0.24850235995750583  0.0392654305618336  1.0000
  H   H40       1.0  0.6519370782029625  0.2478621842672553  0.1295058641211497  1.0000
  H   H41       1.0  0.5727201969461504  0.9690369757412752  0.192738963597435  1.0000
  H   H42       1.0  0.7080899013971873  0.9083027844989073  0.17689486815921637  1.0000
  H   H43       1.0  0.42218269818427956  0.9704814264310855  0.9768117914568393  1.0000
  H   H44       1.0  0.2875584019302195  0.9094069755546103  0.9928878417778932  1.0000
  H   H45       1.0  0.23781238308502142  0.031720416155224  0.05777473224036811  1.0000
  H   H46       1.0  0.26971787629577193  0.09296200170669523  0.0006523921665291  1.0000
  H   H47       1.0  0.7592323356928079  0.031868484758327  0.11312215233224522  1.0000
  H   H48       1.0  0.7231639022684321  0.09220744979749182  0.1701460478373917  1.0000
  H   H49       1.0  0.7680072906568398  0.37210405954034087  0.014526495776451001  1.0000
  H   H50       1.0  0.87350879678268  0.2693758169186609  0.9523214015511458  1.0000
  H   H51       1.0  0.21740170757851027  0.3803237464371634  0.0022061985950828002  1.0000
  H   H52       1.0  0.0991363829042697  0.2749212065303297  0.9454206399115606  1.0000
  H   H53       1.0  0.11751305742333068  0.6115436359738953  0.1310013033288655  1.0000
  H   H54       1.0  0.8909682583603882  0.6120465306587234  0.1344726641309606  1.0000
  C   C1        1.0  0.5027461766870475  0.5038301538471757  0.6024166949563751  1.0000
  C   C2        1.0  0.2620635263009419  0.49463832552850573  0.507400532023958  1.0000
  C   C3        1.0  0.5005107308028514  0.5046934316539549  0.4034040213910473  1.0000
  C   C4        1.0  0.7360559921076588  0.49659406141314116  0.5022820327712054  1.0000
  C   C5        1.0  0.5061745365500839  0.49920824531702823  0.9843608658978769  1.0000
  C   C6        1.0  0.26319424675694597  0.5017702161718347  0.0781221086584267  1.0000
  C   C7        1.0  0.5021901350829765  0.500125592775511  0.1829847318071174  1.0000
  C   C8        1.0  0.7369834462241373  0.49959681214365054  0.0847562853310109  1.0000
  C   C9        1.0  0.6328070298116302  0.04656808061074  0.42483334730793143  1.0000
  C   C10       1.0  0.3608871126153801  0.048413487126922006  0.5776466974354264  1.0000
  C   C11       1.0  0.31038773252437574  0.953903231734003  0.5560335237596946  1.0000
  C   C12       1.0  0.682230926481573  0.9512501970081145  0.446278778237705  1.0000
  C   C13       1.0  0.5637185242860596  0.20314585828887033  0.4667142085848114  1.0000
  C   C14       1.0  0.5651907970934572  0.10277484289395031  0.4647318623291881  1.0000
  C   C15       1.0  0.43414029484814176  0.20390471252090947  0.5363313875451965  1.0000
  C   C16       1.0  0.4303946757892093  0.10360148784863552  0.5380087954635614  1.0000
  C   C17       1.0  0.411150974494177  0.7972351029470701  0.5279232547831613  1.0000
  C   C18       1.0  0.40703260257371454  0.8975773505144106  0.5286561493823001  1.0000
  C   C19       1.0  0.5811656487705293  0.7959656371727635  0.4757647063520595  1.0000
  C   C20       1.0  0.5855726036574254  0.8963002380439636  0.47425097946860734  1.0000
  C   C21       1.0  0.49735850269228615  0.0527805221132311  0.5013499220453852  1.0000
  C   C22       1.0  0.4965896048899054  0.9473516524732446  0.5013745954060056  1.0000
  C   C23       1.0  0.510211630904557  0.49991614211688074  0.23973981391377214  1.0000
  C   C24       1.0  0.5897275357275049  0.4361928672027844  0.2665115106827116  1.0000
  C   C25       1.0  0.4380624297572311  0.5645034874286665  0.2660010212619  1.0000
  C   C26       1.0  0.6733381358668993  0.3747298915565055  0.2411548825035865  1.0000
  C   C27       1.0  0.7537642686781538  0.3182696461860601  0.26813652686412587  1.0000
  C   C28       1.0  0.5096136733552469  0.5025758118817336  0.34671915248565455  1.0000
  C   C29       1.0  0.4375243075471076  0.5656785139660698  0.3193029204939393  1.0000
  C   C30       1.0  0.5898821646657098  0.4379633596813692  0.3211266895495939  1.0000
  C   C31       1.0  0.674548176776632  0.3789848983397094  0.34765298777440273  1.0000
  C   C32       1.0  0.7545573394860624  0.3206025366331745  0.3217969166176431  1.0000
  C   C33       1.0  0.4624614200380037  0.3233658382445555  0.7683600928403324  1.0000
  C   C34       1.0  0.5371639586640669  0.67976771956058  0.7697705108626496  1.0000
  C   C35       1.0  0.4616354363944453  0.678815363328475  0.8184720500527902  1.0000
  C   C36       1.0  0.5385553140007175  0.32215803138564786  0.8170279538511096  1.0000
  C   C37       1.0  0.486555438083002  0.4160323165770592  0.685672546286881  1.0000
  C   C38       1.0  0.48412294228434405  0.4145224706519883  0.7384924492250348  1.0000
  C   C39       1.0  0.5165785499124026  0.5890625372130599  0.6863731927582535  1.0000
  C   C40       1.0  0.5168031021857261  0.5892120880096599  0.7392242560649508  1.0000
  C   C41       1.0  0.4858693179285538  0.585879682228942  0.901049354128631  1.0000
  C   C42       1.0  0.48371751961176557  0.587459089061781  0.8482495941679035  1.0000
  C   C43       1.0  0.5207182134723992  0.4132760121129452  0.9004349555209644  1.0000
  C   C44       1.0  0.5187521535895172  0.41290827176363365  0.8475766511375938  1.0000
  C   C45       1.0  0.5021322700679676  0.5028837975367537  0.6592653451240977  1.0000
  C   C46       1.0  0.5001531346347292  0.5014656268333297  0.7655647219702575  1.0000
  C   C47       1.0  0.5044437598754499  0.4993406197757793  0.9275173673633932  1.0000
  C   C48       1.0  0.5005204895049928  0.5005329034373532  0.8212056647277777  1.0000
  C   C49       1.0  0.8712568878249416  0.4980869467482023  0.5070806525132241  1.0000
  C   C50       1.0  0.9326806745307579  0.5620042943699417  0.5411493240010828  1.0000
  C   C51       1.0  0.9368412992803101  0.4340053976117986  0.4775365860341907  1.0000
  C   C52       1.0  0.87042964051998  0.6246551604867033  0.5750793829151278  1.0000
  C   C53       1.0  0.9327968881467895  0.6822118513308625  0.6087342866838059  1.0000
  C   C54       1.0  0.1266166316029071  0.4954270441008364  0.5100036962095444  1.0000
  C   C55       1.0  0.0638536377728869  0.43260055402204506  0.478878119229556  1.0000
  C   C56       1.0  0.0628677317394164  0.5600486612809874  0.5427339385785146  1.0000
  C   C57       1.0  0.12396983277630373  0.6197796429051223  0.5783603105961959  1.0000
  C   C58       1.0  0.0605071852050969  0.6796245099564686  0.6105381668644583  1.0000
  C   C59       1.0  0.6347852235602289  0.952795946439032  0.16106043133086703  1.0000
  C   C60       1.0  0.36076143537839306  0.9537697025801535  0.0086247205725911  1.0000
  C   C61       1.0  0.3107532720668403  0.04831477846198601  0.030592448765723607  1.0000
  C   C62       1.0  0.6846035849949389  0.04773753321792639  0.13965644764557084  1.0000
  C   C63       1.0  0.5639167588163546  0.7967435699461731  0.1192766690164433  1.0000
  C   C64       1.0  0.5662208314353023  0.8971014853315752  0.12123655531060253  1.0000
  C   C65       1.0  0.4335937389008464  0.797272875408602  0.0496585574491135  1.0000
  C   C66       1.0  0.4303271211445718  0.8976540035303914  0.048114653830801  1.0000
  C   C67       1.0  0.4127004504608678  0.2042120632425721  0.0587610658066922  1.0000
  C   C68       1.0  0.40815573552355744  0.1038799620639992  0.057856843643989506  1.0000
  C   C69       1.0  0.5846637959044473  0.2038128524676779  0.11003213319058601  1.0000
  C   C70       1.0  0.5880451569535339  0.10345390072883728  0.1116989576443501  1.0000
  C   C71       1.0  0.4980868524277611  0.9477789417968764  0.0847681938069798  1.0000
  C   C72       1.0  0.4980539004326873  0.0532324171887737  0.0848246979369875  1.0000
  C   C73       1.0  0.87218508204829  0.4987850067615796  0.08000848099700163  1.0000
  C   C74       1.0  0.9319304882883515  0.4349638074183061  0.045532175995965915  1.0000
  C   C75       1.0  0.9384961032709781  0.5625286998470854  0.1092379465222635  1.0000
  C   C76       1.0  0.8663614712877463  0.37304887206389037  0.012426621664836504  1.0000
  C   C77       1.0  0.9255839076258213  0.31577357458611743  0.9776247155702437  1.0000
  C   C78       1.0  0.12758791059367522  0.5002011320060973  0.0753735179935831  1.0000
  C   C79       1.0  0.0654485363020925  0.5626275664370155  0.1071436036798659  1.0000
  C   C80       1.0  0.06204585422106851  0.4364785315407076  0.0425996474876413  1.0000
  C   C81       1.0  0.1194582550384027  0.37747402025611637  0.0055537879747334  1.0000
  C   C82       1.0  0.05298643540306361  0.318576963488617  0.9739460370202052  1.0000
  N   N1        1.0  0.4997246828122853  0.2518826838365342  0.5016753014269639  1.0000
  N   N2        1.0  0.4962398478901804  0.7482490379787166  0.5021361119738401  1.0000
  N   N3        1.0  0.4990541587374011  0.7486314398724974  0.084326795360937  1.0000
  N   N4        1.0  0.4991699282248022  0.2524191901190989  0.0841201699746676  1.0000
  O   O1        1.0  0.512690300276823  0.42280971225685704  0.5798530555460958  1.0000
  O   O2        1.0  0.49311203466663045  0.5858403075624706  0.5807110652271703  1.0000
  O   O3        1.0  0.3137919493283903  0.5759984581911439  0.5018364942260973  1.0000
  O   O4        1.0  0.3142529480219238  0.4129042845791916  0.5098364687816003  1.0000
  O   O5        1.0  0.5026632074620494  0.5872108447504019  0.4244353539383354  1.0000
  O   O6        1.0  0.48922867275935294  0.42384197374630617  0.4259663211945438  1.0000
  O   O7        1.0  0.6866730149969557  0.41440085337745813  0.4963531879994322  1.0000
  O   O8        1.0  0.6804460353716023  0.5772449687811019  0.5039062514844943  1.0000
  O   O9        1.0  0.4874458119568317  0.5795113802491302  0.0066517495861191  1.0000
  O   O10       1.0  0.5258418213139322  0.4186781241030175  0.006494069115611  1.0000
  O   O11       1.0  0.31903645386927343  0.4215998681770046  0.0731180525606305  1.0000
  O   O12       1.0  0.31272357352301583  0.582999035726168  0.0866203236295888  1.0000
  O   O13       1.0  0.485376805899584  0.41960108384128614  0.16101225816153433  1.0000
  O   O14       1.0  0.5106672964026374  0.5821149038075007  0.1613553746906859  1.0000
  O   O15       1.0  0.6846815019882726  0.5808472308232238  0.0797976331592167  1.0000
  O   O16       1.0  0.6854187201464939  0.4191326300534328  0.09363776374750901  1.0000
