data_image0
_chemical_formula_structural       Co2H24C32N4O8
_chemical_formula_sum              "Co2 H24 C32 N4 O8"
_cell_length_a       8.589733808536153
_cell_length_b       8.77472425847828
_cell_length_c       11.94850534337021
_cell_angle_alpha    108.3531296437855
_cell_angle_beta     107.81463082078803
_cell_angle_gamma    98.36238947820678

_space_group_name_H-M_alt    "P 1"
_space_group_IT_number       1

loop_
  _space_group_symop_operation_xyz
  'x, y, z'

loop_
  _atom_site_type_symbol
  _atom_site_label
  _atom_site_symmetry_multiplicity
  _atom_site_fract_x
  _atom_site_fract_y
  _atom_site_fract_z
  _atom_site_occupancy
  Co  Co1       1.0  0.991662472761753  0.7012986119779754  0.7944558499184284  1.0000
  Co  Co2       1.0  0.6972018452268925  0.9068713584614939  0.20542679212083217  1.0000
  H   H1        1.0  0.3183975706795862  0.5394544269776701  0.08520542453540259  1.0000
  H   H2        1.0  0.7338875594041667  0.45418332114692817  0.9150831938364024  1.0000
  H   H3        1.0  0.23869464060040707  0.25268394304300296  0.8299380770897004  1.0000
  H   H4        1.0  0.9086750019398339  0.4222649964988888  0.17032741876886354  1.0000
  H   H5        1.0  0.32680335584885256  0.007574872640645901  0.832560757190713  1.0000
  H   H6        1.0  0.9946051034682668  0.1745211693797302  0.16752144744607736  1.0000
  H   H7        1.0  0.4892230160906052  0.85592173808174  0.9483045589484365  1.0000
  H   H8        1.0  0.04097183429326624  0.9071448022831489  0.051482536841234564  1.0000
  H   H9        1.0  0.6518094088842261  0.25517890733140547  0.29308050230838495  1.0000
  H   H10       1.0  0.8583911362087517  0.9620397107874722  0.7069088706646128  1.0000
  H   H11       1.0  0.4974284669957214  0.4261576119768478  0.19325778644670075  1.0000
  H   H12       1.0  0.8041925695341234  0.23291113456841123  0.8070122036883591  1.0000
  H   H13       1.0  0.021952327908557747  0.7540983471135972  0.4180817159375041  1.0000
  H   H14       1.0  0.10431193835908908  0.3357779379817387  0.5817219057293814  1.0000
  H   H15       1.0  0.35653952100127373  0.7464736526343783  0.6067408420513091  1.0000
  H   H16       1.0  0.2501400544021806  0.1391167524208115  0.3931518059799616  1.0000
  H   H17       1.0  0.15480191994596026  0.8261417336605419  0.3003400514247617  1.0000
  H   H18       1.0  0.35456728621871747  0.5252376797001119  0.6994315722489051  1.0000
  H   H19       1.0  0.3253231121521764  0.8703664260197995  0.17316163871100093  1.0000
  H   H20       1.0  0.6521820891549053  0.6966725431338359  0.8266757344747692  1.0000
  H   H21       1.0  0.7416451126416062  0.7783412173426141  0.404780007774484  1.0000
  H   H22       1.0  0.8371675394613547  0.37303968163449497  0.595254409241207  1.0000
  H   H23       1.0  0.5915328378008127  0.7311430800188816  0.5409495642194387  1.0000
  H   H24       1.0  0.5509485418475321  0.18953779220210984  0.4591213134511707  1.0000
  C   C1        1.0  0.15904408902733277  0.533344667063126  0.8999024394533068  1.0000
  C   C2        1.0  0.7592842551713944  0.6332889750423975  0.10023574419984282  1.0000
  C   C3        1.0  0.2676366617887568  0.4656035094473338  0.9833487934693539  1.0000
  C   C4        1.0  0.784662914473067  0.48212970929639454  0.016953563854144798  1.0000
  C   C5        1.0  0.2975534853710259  0.3173945771659135  0.9333518257507126  1.0000
  C   C6        1.0  0.8643446979255387  0.3837979748042172  0.06693369647953056  1.0000
  C   C7        1.0  0.3956232687450694  0.23142938868955548  0.002304726773871809  1.0000
  C   C8        1.0  0.8934927158552598  0.2289088384781549  0.9978951226602892  1.0000
  C   C9        1.0  0.39789698404101154  0.06902646288494199  0.9346975413719962  1.0000
  C   C10       1.0  0.9634193989358194  0.1339942971304779  0.06536838108564778  1.0000
  C   C11       1.0  0.4875872582714321  0.9827172592204076  0.9983193059901155  1.0000
  C   C12       1.0  0.9893429590573746  0.9840664418137023  0.0016091018066716543  1.0000
  C   C13       1.0  0.5768791367071912  0.20639976636887514  0.1913779024392711  1.0000
  C   C14       1.0  0.8853817827392376  0.014916939351650197  0.808640719060776  1.0000
  C   C15       1.0  0.4891448255032102  0.2995941169897875  0.1344567460041972  1.0000
  C   C16       1.0  0.8547304321032739  0.1650433242812922  0.8657124660482794  1.0000
  C   C17       1.0  0.04650719291043971  0.7344029651641719  0.6008589883292645  1.0000
  C   C18       1.0  0.9458621271388167  0.1333512175216711  0.3990584219549335  1.0000
  C   C19       1.0  0.11261806160547387  0.750055115996737  0.5034553303949353  1.0000
  C   C20       1.0  0.10946943750182207  0.24619256379110507  0.4963565516216023  1.0000
  C   C21       1.0  0.2762874293101234  0.7568093960886203  0.5201490594748466  1.0000
  C   C22       1.0  0.2564356469234994  0.2360859390094275  0.4796681042866951  1.0000
  C   C23       1.0  0.3593517610781588  0.7768856781957891  0.43452430193379143  1.0000
  C   C24       1.0  0.4250686883209696  0.34172309990021427  0.5653476532531273  1.0000
  C   C25       1.0  0.2845160385341074  0.8143488303888302  0.3271887131321094  1.0000
  C   C26       1.0  0.4574553403424701  0.48657071047596656  0.6725931617134293  1.0000
  C   C27       1.0  0.37956244827503843  0.8411462986665371  0.2565488657258968  1.0000
  C   C28       1.0  0.6230578200323862  0.5840370248574159  0.743295927128287  1.0000
  C   C29       1.0  0.6125020158323408  0.7892184230527376  0.38498871868343804  1.0000
  C   C30       1.0  0.7277643829789611  0.4036826418654797  0.6149864996008108  1.0000
  C   C31       1.0  0.5264984864230229  0.7625968910000083  0.46091269558037623  1.0000
  C   C32       1.0  0.5658922492017098  0.3010685237665029  0.5390885911924245  1.0000
  N   N1        1.0  0.5768046457855007  0.049224861816327306  0.12514670645282422  1.0000
  N   N2        1.0  0.9515308216052816  0.9238323102414226  0.8747428136319118  1.0000
  N   N3        1.0  0.5418275269939057  0.8303821503201619  0.28486693249603706  1.0000
  N   N4        1.0  0.7570850089992406  0.5449835798573801  0.7150391710679503  1.0000
  O   O1        1.0  0.1370568897363071  0.6785757933229064  0.9528857605413992  1.0000
  O   O2        1.0  0.6846761596399773  0.7256238246756085  0.0471362229010169  1.0000
  O   O3        1.0  0.08871619406127708  0.4537122842799944  0.7811989057374407  1.0000
  O   O4        1.0  0.8072020265722915  0.6722685738720885  0.21891559754441672  1.0000
  O   O5        1.0  0.14829178810883545  0.7276796339506503  0.7038034271601818  1.0000
  O   O6        1.0  0.9445069882458839  0.023363733681286195  0.2961540773051752  1.0000
  O   O7        1.0  0.8928455877203022  0.7286928421139081  0.5845886770296292  1.0000
  O   O8        1.0  0.8085995990244612  0.1443864611216767  0.41541048124425833  1.0000
