data_image0
_chemical_formula_structural       Zn8H26C40S5O47
_chemical_formula_sum              "Zn8 H26 C40 S5 O47"
_cell_length_a       18.482733470387085
_cell_length_b       18.489945897208234
_cell_length_c       18.59159477113681
_cell_angle_alpha    119.53010003880107
_cell_angle_beta     90.90529303595295
_cell_angle_gamma    119.52006913805477

_space_group_name_H-M_alt    "P 1"
_space_group_IT_number       1

loop_
  _space_group_symop_operation_xyz
  'x, y, z'

loop_
  _atom_site_type_symbol
  _atom_site_label
  _atom_site_symmetry_multiplicity
  _atom_site_fract_x
  _atom_site_fract_y
  _atom_site_fract_z
  _atom_site_occupancy
  Zn  Zn1       1.0  0.4550718822603059  0.5916569426807287  0.5354965437657526  1.0000
  Zn  Zn2       1.0  0.44923424135353685  0.4212882979520743  0.5422902919641571  1.0000
  Zn  Zn3       1.0  0.6281399932276486  0.5895847313878378  0.5378530874555878  1.0000
  Zn  Zn4       1.0  0.4543164447359088  0.41918167154557306  0.3678856359344636  1.0000
  Zn  Zn5       1.0  0.055041662089472344  0.4212802565436748  0.9620709844181476  1.0000
  Zn  Zn6       1.0  0.8754878470359699  0.41443379357880883  0.9522925024129447  1.0000
  Zn  Zn7       1.0  0.048683311373984815  0.5859527326837934  0.9550353662301061  1.0000
  Zn  Zn8       1.0  0.04295339303580894  0.5904159369046625  0.12892731713886713  1.0000
  H   H1        1.0  0.3229000932901658  0.5630793283274473  0.16213243514302175  1.0000
  H   H2        1.0  0.21955786345077402  0.6239776634000195  0.812115163528027  1.0000
  H   H3        1.0  0.23597183318055664  0.4631765905646006  0.8072245013331879  1.0000
  H   H4        1.0  0.11348031884929803  0.33848506313753285  0.155441785694748  1.0000
  H   H5        1.0  0.18025911720520327  0.4551646959795335  0.34302497395574244  1.0000
  H   H6        1.0  0.38927776520174723  0.6795684002628378  0.3490834930527313  1.0000
  H   H7        1.0  0.7593485917091131  0.08087873162465092  0.7589048776666303  1.0000
  H   H8        1.0  0.533138466551172  0.7838429043424356  0.7385942205439234  1.0000
  H   H9        1.0  0.5735955330046707  0.41172079272288903  0.21315025235615784  1.0000
  H   H10       1.0  0.13769718791557747  0.9905192261351702  0.43699824710167673  1.0000
  H   H11       1.0  0.3467618130207484  0.14052808605894282  0.22054138938393208  1.0000
  H   H12       1.0  0.8998350092674274  0.5850157182544252  0.3014280789618694  1.0000
  H   H13       1.0  0.9268831427918587  0.6758361903392188  0.7765680454083537  1.0000
  H   H14       1.0  0.571960213839283  0.40005987756159567  0.6822368148067497  1.0000
  H   H15       1.0  0.3803072137386536  0.7161458493953674  0.8268925688097608  1.0000
  H   H16       1.0  0.1827894213656691  0.26755587761120847  0.48868024847919855  1.0000
  H   H17       1.0  0.31628373121310466  0.7467162658709088  0.502048498092158  1.0000
  H   H18       1.0  0.9011798033706669  0.9599291718361442  0.8644742244978897  1.0000
  H   H19       1.0  0.887766444909161  0.9640302745987981  0.722223136652971  1.0000
  H   H20       1.0  0.7299701723884128  0.441591768829703  0.14058153978668736  1.0000
  H   H21       1.0  0.808136943163646  0.5872198302106285  0.39432610780391997  1.0000
  H   H22       1.0  0.15149652139978534  0.9046358305133497  0.2921657306126518  1.0000
  H   H23       1.0  0.22334048410165516  0.9179774627726689  0.14799444399827882  1.0000
  H   H24       1.0  0.2859952043403028  0.3890963971855471  0.1534342120644538  1.0000
  H   H25       1.0  0.7410848652542512  0.445253400446049  0.7837549977936574  1.0000
  H   H26       1.0  0.8005533973184171  0.612633919675808  0.7048617891602402  1.0000
  C   C1        1.0  0.35919810051186835  0.23203950553848077  0.35961828765479703  1.0000
  C   C2        1.0  0.692816814415373  0.8824488540318997  0.729257118451194  1.0000
  C   C3        1.0  0.8285977982374958  0.5404497446399645  0.2684165295826019  1.0000
  C   C4        1.0  0.63511503525784  0.7752713020221408  0.6526131711505555  1.0000
  C   C5        1.0  0.7995745994016233  0.48916154953364804  0.17948786249787213  1.0000
  C   C6        1.0  0.7752055356941626  0.5425645439693056  0.3237223559770115  1.0000
  C   C7        1.0  0.685824297786674  0.49477624627181194  0.2974971148364389  1.0000
  C   C8        1.0  0.19124677289849507  0.9454580268941869  0.26550509848310344  1.0000
  C   C9        1.0  0.18923139569928085  0.8873218807070843  0.18323832559426023  1.0000
  C   C10       1.0  0.23983970400188787  0.05476434186086719  0.3209793705362003  1.0000
  C   C11       1.0  0.2974817633439742  0.11841167109513152  0.3003462570626922  1.0000
  C   C12       1.0  0.17577283099736016  0.41353423348547863  0.1987158113137681  1.0000
  C   C13       1.0  0.8355752245561163  0.5664366392919363  0.7790874662675974  1.0000
  C   C14       1.0  0.8112115815249439  0.5024442429200492  0.804914483699676  1.0000
  C   C15       1.0  0.7731951585186466  0.5613610771900711  0.7254897466788178  1.0000
  C   C16       1.0  0.342410691386057  0.49541158266978874  0.6141371430462995  1.0000
  C   C17       1.0  0.683222933570903  0.50081020134558  0.695607480296836  1.0000
  C   C18       1.0  0.24028387806453821  0.5728178423982798  0.7933790043939126  1.0000
  C   C19       1.0  0.21574519838716102  0.5140355279241788  0.8229397432053812  1.0000
  C   C20       1.0  0.29529759868247407  0.5732259364769307  0.7376766410949712  1.0000
  C   C21       1.0  0.27739381488076736  0.48951547403137863  0.6609184759499058  1.0000
  C   C22       1.0  0.8608101099364375  0.4947212138204051  0.12940604359880575  1.0000
  C   C23       1.0  0.21125448090428028  0.4777243984756014  0.30149184396751855  1.0000
  C   C24       1.0  0.15591749754186424  0.5115428197269409  0.8753694561412713  1.0000
  C   C25       1.0  0.8774724982670323  0.23069044851889944  0.8626485425690901  1.0000
  C   C26       1.0  0.1364349415900463  0.7754863506691764  0.13362014607714193  1.0000
  C   C27       1.0  0.8695549788802098  0.5018355921072273  0.8580670944195176  1.0000
  C   C28       1.0  0.6363141025203376  0.5030386614855189  0.3600556522344859  1.0000
  C   C29       1.0  0.14028997449873506  0.5091506866435935  0.14571515836863816  1.0000
  C   C30       1.0  0.6310842055836403  0.5069184955226121  0.6392090869574644  1.0000
  C   C31       1.0  0.36554888221863996  0.5073637881332262  0.3551650193537768  1.0000
  C   C32       1.0  0.2704235720495802  0.441916559800312  0.19670185438206994  1.0000
  C   C33       1.0  0.29216688779911953  0.5383775838579228  0.20262697005583163  1.0000
  C   C34       1.0  0.23344515802597243  0.574281685976331  0.3073736640748166  1.0000
  C   C35       1.0  0.1967423559647656  0.5097875277080065  0.20416143234243822  1.0000
  C   C36       1.0  0.3282115893926871  0.6033337759970011  0.30544541988240326  1.0000
  C   C37       1.0  0.3072071337228692  0.506967646271427  0.29943936369316754  1.0000
  C   C38       1.0  0.8378039218955919  0.056093252568729206  0.8124537288084139  1.0000
  C   C39       1.0  0.8214811819824491  0.11688985935102643  0.8073851159912876  1.0000
  C   C40       1.0  0.7817409301163496  0.944352957225263  0.7463647627621198  1.0000
  S   S1        1.0  0.6417748993890485  0.9352801304402406  0.8000742578918859  1.0000
  S   S2        1.0  0.21947997557014529  0.10970954414680993  0.42252343226601136  1.0000
  S   S3        1.0  0.17634525167711249  0.36700754427087656  0.6111052065252806  1.0000
  S   S4        1.0  0.2102937454296878  0.6592276356484277  0.38225286424466975  1.0000
  S   S5        1.0  0.9368222780647386  0.0998647306061784  0.8856503559288027  1.0000
  O   O1        1.0  0.4981343298664314  0.5041271601116223  0.49611719193838155  1.0000
  O   O2        1.0  0.13196800899268613  0.7299650504871309  0.05325153127016333  1.0000
  O   O3        1.0  0.8300304743060922  0.430735815236389  0.8701700289493602  1.0000
  O   O4        1.0  0.3922356606361319  0.2725670172558097  0.3183789659689964  1.0000
  O   O5        1.0  0.12561284888576552  0.5771305998078803  0.1810704659215787  1.0000
  O   O6        1.0  0.9532368365491308  0.5693630014935636  0.888610915459935  1.0000
  O   O7        1.0  0.11470907600934771  0.44003459553646723  0.06411176530212968  1.0000
  O   O8        1.0  0.959609063276332  0.27511439429057566  0.8743473969488419  1.0000
  O   O9        1.0  0.10026207997924534  0.7337255891840047  0.1728192762365239  1.0000
  O   O10       1.0  0.8240054346646773  0.43905377544974306  0.045603329833575346  1.0000
  O   O11       1.0  0.12397313808378384  0.5619846118374313  0.886199867203835  1.0000
  O   O12       1.0  0.366364516690254  0.5551340970456239  0.5903635576592307  1.0000
  O   O13       1.0  0.5507484594558747  0.7306000028309684  0.6362445290551192  1.0000
  O   O14       1.0  0.36867042991771376  0.43936129563939375  0.6024729417321311  1.0000
  O   O15       1.0  0.6770575666524226  0.5580320237427545  0.44246021638416266  1.0000
  O   O16       1.0  0.5469298794697153  0.4450503416361045  0.615930360703153  1.0000
  O   O17       1.0  0.371318084916112  0.43181401484205406  0.317994914549736  1.0000
  O   O18       1.0  0.6717783181939083  0.5694498581808176  0.6192475187693488  1.0000
  O   O19       1.0  0.4047918162117057  0.5830023697712932  0.43608860917176867  1.0000
  O   O20       1.0  0.7029407502986588  0.011510555636867504  0.8885181369144064  1.0000
  O   O21       1.0  0.5986992424527884  0.9572485331836944  0.7565538372487666  1.0000
  O   O22       1.0  0.569569423660262  0.8417552619746191  0.8014103570196125  1.0000
  O   O23       1.0  0.5522272377830646  0.4507656010495823  0.3218106028180259  1.0000
  O   O24       1.0  0.6341966437143969  0.4356378818065921  0.21210665551333815  1.0000
  O   O25       1.0  0.28334190410189564  0.14185150014920822  0.495822353163362  1.0000
  O   O26       1.0  0.1977253649152644  0.17559710138611007  0.4246268301281829  1.0000
  O   O27       1.0  0.1262576003609013  0.013184185947587001  0.40311402528813284  1.0000
  O   O28       1.0  0.30526186117962334  0.08015271170421563  0.2200244676440164  1.0000
  O   O29       1.0  0.9226546591459197  0.6400367155500106  0.8027377574042375  1.0000
  O   O30       1.0  0.6341089965722517  0.43165016257983524  0.7125647589480265  1.0000
  O   O31       1.0  0.3709911774181833  0.6655078245212921  0.7670946566309097  1.0000
  O   O32       1.0  0.18666415499218666  0.31015242497667134  0.6373737045635364  1.0000
  O   O33       1.0  0.1054977044355994  0.37931690448230887  0.620424414556389  1.0000
  O   O34       1.0  0.3767830327643082  0.2763957842332658  0.44143101466396206  1.0000
  O   O35       1.0  0.16968271697321313  0.3197445391361243  0.5108532418585767  1.0000
  O   O36       1.0  0.25818549586023937  0.7524563492954288  0.387995091728925  1.0000
  O   O37       1.0  0.11738059910280191  0.6044018154335619  0.36828641950725677  1.0000
  O   O38       1.0  0.25736014376194294  0.6828893999677917  0.4732715719528854  1.0000
  O   O39       1.0  0.9895000052315339  0.08177809049769989  0.8308498437676661  1.0000
  O   O40       1.0  0.9718632825761302  0.19447715863994125  0.9676277325631872  1.0000
  O   O41       1.0  0.8980690684874374  0.0160350554100148  0.9073056910061084  1.0000
  O   O42       1.0  0.8250558544382686  0.9070905330629273  0.7008233668289986  1.0000
  O   O43       1.0  0.6702907950543491  0.7331173826152692  0.6069117352746004  1.0000
  O   O44       1.0  0.005728878423390352  0.5010257136587484  0.9998214534443617  1.0000
  O   O45       1.0  0.943991453074702  0.553646978258499  0.17194663209382097  1.0000
  O   O46       1.0  0.14126329536025387  0.45703334659150135  0.9039542477688512  1.0000
  O   O47       1.0  0.8344046269345214  0.2691937952918835  0.8886021509282924  1.0000
