data_image0
_chemical_formula_structural       Cu4H36C36N8O16
_chemical_formula_sum              "Cu4 H36 C36 N8 O16"
_cell_length_a       8.008994382001035
_cell_length_b       10.182346139082409
_cell_length_c       11.67206650050076
_cell_angle_alpha    98.26780708183745
_cell_angle_beta     90.00005133260706
_cell_angle_gamma    89.99996523836305

_space_group_name_H-M_alt    "P 1"
_space_group_IT_number       1

loop_
  _space_group_symop_operation_xyz
  'x, y, z'

loop_
  _atom_site_type_symbol
  _atom_site_label
  _atom_site_symmetry_multiplicity
  _atom_site_fract_x
  _atom_site_fract_y
  _atom_site_fract_z
  _atom_site_occupancy
  Cu  Cu1       1.0  0.4343541314359669  0.44278425485290995  0.22349725290544603  1.0000
  Cu  Cu2       1.0  0.0656434786191014  0.9427854090350392  0.2234991122812104  1.0000
  Cu  Cu3       1.0  0.5656430906888517  0.5572141383319789  0.7765043323482601  1.0000
  Cu  Cu4       1.0  0.9343562406994579  0.057215959634717706  0.7765062743454365  1.0000
  H   H1        1.0  0.15632170168284176  0.355978521460976  0.1400076704951942  1.0000
  H   H2        1.0  0.3436746178480732  0.8559785758889545  0.14001127597051521  1.0000
  H   H3        1.0  0.8436742718431418  0.6440248346215967  0.8599928257155726  1.0000
  H   H4        1.0  0.656321355682685  0.14402378432110646  0.8599959489070628  1.0000
  H   H5        1.0  0.1560169042700963  0.6226826329175168  0.0834690651135972  1.0000
  H   H6        1.0  0.3439820188905144  0.12268151204672506  0.0834697245916161  1.0000
  H   H7        1.0  0.84398656083291  0.3773177468116842  0.916529343110824  1.0000
  H   H8        1.0  0.656018949020172  0.877314898924851  0.9165264707753951  1.0000
  H   H9        1.0  0.0010636965500765  0.5421754164788977  0.15630919178310174  1.0000
  H   H10       1.0  0.4989366325046447  0.0421732438572491  0.156309814218325  1.0000
  H   H11       1.0  0.9989397685533558  0.4578309159541689  0.8436933924182455  1.0000
  H   H12       1.0  0.5010618382166354  0.9578261413002807  0.8436927525958567  1.0000
  H   H13       1.0  0.2867755152777462  0.49120436347768487  0.9584049195453306  1.0000
  H   H14       1.0  0.2132280111969038  0.9912074455176663  0.9584079689963545  1.0000
  H   H15       1.0  0.7132304470217221  0.5087900600808409  0.04159616623792319  1.0000
  H   H16       1.0  0.7867729567176056  0.008792931178973598  0.0415964360705274  1.0000
  H   H17       1.0  0.1924765928946854  0.33119984370414096  0.9517774205013084  1.0000
  H   H18       1.0  0.3075233027641317  0.8311989204385455  0.9517791672336315  1.0000
  H   H19       1.0  0.8075268722123211  0.668796564233915  0.0482247717095845  1.0000
  H   H20       1.0  0.6924751679605945  0.1687964933611283  0.048226326875138205  1.0000
  H   H21       1.0  0.9565959797109755  0.1279839727307888  0.42527379953263994  1.0000
  H   H22       1.0  0.5434040870508949  0.6279831519182295  0.4252728264906622  1.0000
  H   H23       1.0  0.04340373960513229  0.8720144213202091  0.5747260723380095  1.0000
  H   H24       1.0  0.4565968808608574  0.37201524256581564  0.5747261886884658  1.0000
  H   H25       1.0  0.7152411558208697  0.1605057436539141  0.5538158607436898  1.0000
  H   H26       1.0  0.7847578050336849  0.6605038380006435  0.5538148996292662  1.0000
  H   H27       1.0  0.2847548177034795  0.8394956293494787  0.4461809589630832  1.0000
  H   H28       1.0  0.21524690866389304  0.33949455864914296  0.44617983209150947  1.0000
  H   H29       1.0  0.48698489068028294  0.8206581575032884  0.34290237268273677  1.0000
  H   H30       1.0  0.013011721026160198  0.32065616968194627  0.3429052897800702  1.0000
  H   H31       1.0  0.5130135800337285  0.1793412332870331  0.6570890571369788  1.0000
  H   H32       1.0  0.9869842524991409  0.679340241723878  0.6570900488936431  1.0000
  H   H33       1.0  0.7381249612932166  0.8059502059834925  0.22223053931382003  1.0000
  H   H34       1.0  0.7618759514850665  0.30594812371883506  0.2222318840784965  1.0000
  H   H35       1.0  0.2618810010016901  0.19404818979947439  0.7777659057910782  1.0000
  H   H36       1.0  0.23811752485147508  0.694047292681546  0.7777684698775644  1.0000
  C   C1        1.0  0.13596326894755612  0.5598103068309968  0.15095876628799942  1.0000
  C   C2        1.0  0.3640370394966297  0.0598101702526179  0.1509604186926126  1.0000
  C   C3        1.0  0.8640426933478123  0.44019205727678207  0.849040748365475  1.0000
  C   C4        1.0  0.6359614312226257  0.9401921929900112  0.8490408093425046  1.0000
  C   C5        1.0  0.1937833067538364  0.6380521212991255  0.2657326186292721  1.0000
  C   C6        1.0  0.3062170910794535  0.13805299883769348  0.2657352198225382  1.0000
  C   C7        1.0  0.806223904134903  0.36195222935392474  0.7342637189935033  1.0000
  C   C8        1.0  0.6937776338474322  0.8619543281696804  0.7342632057851618  1.0000
  C   C9        1.0  0.2810008196459606  0.4010225819107517  0.9997409603510903  1.0000
  C   C10       1.0  0.21899783608641604  0.9010246697671674  0.9997430315136244  1.0000
  C   C11       1.0  0.7190001482694584  0.5989748175673739  0.0002630701110888136  1.0000
  C   C12       1.0  0.7809981374441293  0.09897471409096428  0.00026210537549079877  1.0000
  C   C13       1.0  0.4538440099052536  0.33802196343339114  0.9891881137393597  1.0000
  C   C14       1.0  0.04615093493585929  0.8380261031654254  0.9891886232887471  1.0000
  C   C15       1.0  0.5461557094148191  0.6619744432055085  0.01081664854611831  1.0000
  C   C16       1.0  0.9538400442080928  0.1619772507516473  0.010816156380002401  1.0000
  C   C17       1.0  0.848046785814084  0.06382586470915189  0.4094750154404708  1.0000
  C   C18       1.0  0.651952061296079  0.5638259947305214  0.4094742287903514  1.0000
  C   C19       1.0  0.1519516849061233  0.9361715369359089  0.590524731561594  1.0000
  C   C20       1.0  0.34804890661623494  0.43617239932022756  0.5905256430806531  1.0000
  C   C21       1.0  0.7095175742539723  0.08068044604555519  0.48120803741176843  1.0000
  C   C22       1.0  0.7904813534831021  0.580680523445892  0.481206472585967  1.0000
  C   C23       1.0  0.2904796478689065  0.9193169564663249  0.5187899962061806  1.0000
  C   C24       1.0  0.2095196144261635  0.41931688079844043  0.5187881342655203  1.0000
  C   C25       1.0  0.5736562068948245  0.9935439235310923  0.4614087568579919  1.0000
  C   C26       1.0  0.9263436245991344  0.4935437643901466  0.46140787450148224  1.0000
  C   C27       1.0  0.42634226382451595  0.006454470953435998  0.5385902583204256  1.0000
  C   C28       1.0  0.073657343312064  0.5064546305271874  0.5385902839857621  1.0000
  C   C29       1.0  0.5857525831043661  0.8932368923313306  0.36553171208795737  1.0000
  C   C30       1.0  0.9142459521237711  0.3932347530109935  0.3655305731385852  1.0000
  C   C31       1.0  0.4142471362095108  0.10676150345283018  0.6344647330151646  1.0000
  C   C32       1.0  0.08575126999834028  0.6067596735822461  0.6344645157990173  1.0000
  C   C33       1.0  0.7280675377234899  0.8829966252139698  0.29673595479116704  1.0000
  C   C34       1.0  0.7719334127946736  0.38299553193694885  0.2967365734325966  1.0000
  C   C35       1.0  0.271935927379559  0.11700177013617717  0.7032613470048973  1.0000
  C   C36       1.0  0.22806380933023007  0.6169988924898389  0.7032627989644098  1.0000
  N   N1        1.0  0.22915976776266686  0.4345207997345354  0.12184372420642829  1.0000
  N   N2        1.0  0.2708364673709269  0.9345208816249695  0.12184814509014794  1.0000
  N   N3        1.0  0.7708362057633593  0.5654805719689832  0.8781556655759815  1.0000
  N   N4        1.0  0.7291595061604355  0.0654794937727559  0.878158830050964  1.0000
  N   N5        1.0  0.8585395798691378  0.9667045666464134  0.3180720114154952  1.0000
  N   N6        1.0  0.6414675768097808  0.46670451530963675  0.3180735376693066  1.0000
  N   N7        1.0  0.14147012821580768  0.03329283586307948  0.6819260222059924  1.0000
  N   N8        1.0  0.35853588829778715  0.5332918921951302  0.6819295112334701  1.0000
  O   O1        1.0  0.31331771923441204  0.5874516101198708  0.31956862371441025  1.0000
  O   O2        1.0  0.18668278797873938  0.0874515414651711  0.3195701755973701  1.0000
  O   O3        1.0  0.6866857458682033  0.41255373077360963  0.6804321222349472  1.0000
  O   O4        1.0  0.8133194285296952  0.9125508213434514  0.6804319091306966  1.0000
  O   O5        1.0  0.12528654995524138  0.7461341158066688  0.302844424145583  1.0000
  O   O6        1.0  0.37471631001164235  0.24613596081773176  0.3028446189550138  1.0000
  O   O7        1.0  0.8747269039136184  0.25387321206370217  0.6971522880836644  1.0000
  O   O8        1.0  0.6252721719248342  0.7538783186668282  0.697143543734093  1.0000
  O   O9        1.0  0.5412426537513466  0.3430673960417963  0.0831376849497332  1.0000
  O   O10       1.0  0.9587568001618718  0.8430703840476779  0.0831408735637567  1.0000
  O   O11       1.0  0.45876081135510555  0.6569290123295559  0.9168636505692761  1.0000
  O   O12       1.0  0.04124042196483659  0.15693098418926607  0.9168653697540635  1.0000
  O   O13       1.0  0.504266026471683  0.2866942684205256  0.8913690219877567  1.0000
  O   O14       1.0  0.9957270345865227  0.7867041917091768  0.8913679654840861  1.0000
  O   O15       1.0  0.4957349414460595  0.7132991605663221  0.10863622238525039  1.0000
  O   O16       1.0  0.0042651931495924994  0.21330511837784627  0.10863413662689682  1.0000
