data_image0
_chemical_formula_structural       Ag4H16C18N6O10
_chemical_formula_sum              "Ag4 H16 C18 N6 O10"
_cell_length_a       7.455816673228012
_cell_length_b       8.584537081755192
_cell_length_c       10.757406156878709
_cell_angle_alpha    105.18300996098795
_cell_angle_beta     100.94554337178741
_cell_angle_gamma    99.70832032018873

_space_group_name_H-M_alt    "P 1"
_space_group_IT_number       1

loop_
  _space_group_symop_operation_xyz
  'x, y, z'

loop_
  _atom_site_type_symbol
  _atom_site_label
  _atom_site_symmetry_multiplicity
  _atom_site_fract_x
  _atom_site_fract_y
  _atom_site_fract_z
  _atom_site_occupancy
  Ag  Ag1       1.0  0.8932624127924528  0.933510037217218  0.27393475085293056  1.0000
  Ag  Ag2       1.0  0.10670947522929451  0.06649114204447673  0.7260667316493183  1.0000
  Ag  Ag3       1.0  0.3194571891142602  0.8181008518739932  0.6272439953957446  1.0000
  Ag  Ag4       1.0  0.6805447565498214  0.18192039603205504  0.37275861591233195  1.0000
  H   H1        1.0  0.39248911203795706  0.6015835750824365  0.8231346441625647  1.0000
  H   H2        1.0  0.6075164428008577  0.39841157377125574  0.17686509607867149  1.0000
  H   H3        1.0  0.648039301394263  0.0699831165541696  0.81835186599654  1.0000
  H   H4        1.0  0.35196491404045105  0.9300071683067517  0.18164786484594944  1.0000
  H   H5        1.0  0.7315148726759162  0.5006704315881194  0.6984121342071107  1.0000
  H   H6        1.0  0.26848614889168954  0.4993233859211942  0.301585002463213  1.0000
  H   H7        1.0  0.601902301835942  0.6588557145379073  0.05478119817488652  1.0000
  H   H8        1.0  0.3981165475686197  0.34113802943019783  0.9452207842477308  1.0000
  H   H9        1.0  0.9308209913949242  0.19639371361365227  0.16222232008958315  1.0000
  H   H10       1.0  0.06917676688244269  0.8036140576722417  0.8377655112477742  1.0000
  H   H11       1.0  0.8838936937494282  0.2424573857184314  0.013193415478283987  1.0000
  H   H12       1.0  0.11610125382269135  0.7575397601252121  0.9867979648265292  1.0000
  H   H13       1.0  0.22727660504949657  0.9669288674806326  0.4444588152512948  1.0000
  H   H14       1.0  0.7727155858004336  0.03307810738684943  0.5555319716477599  1.0000
  H   H15       1.0  0.3428904657795542  0.8339869114611246  0.387313300494462  1.0000
  H   H16       1.0  0.6571131804751928  0.16601654908934196  0.6126829029427797  1.0000
  C   C1        1.0  0.4980641035161426  0.7169660374242781  0.873539552850879  1.0000
  C   C2        1.0  0.5019498793999873  0.2830350014142482  0.1264602503699308  1.0000
  C   C3        1.0  0.39868627946130175  0.29362000553037154  0.663821668555002  1.0000
  C   C4        1.0  0.6013285209888083  0.7064005281262666  0.33616367300712113  1.0000
  C   C5        1.0  0.6421389169784746  0.9758849971781062  0.8697617638177846  1.0000
  C   C6        1.0  0.35786159802108136  0.0241129450839495  0.1302266609253309  1.0000
  C   C7        1.0  0.6289610991434316  0.4988589287381942  0.6108119963063601  1.0000
  C   C8        1.0  0.3710170296894191  0.5011040547992351  0.389202671982531  1.0000
  C   C9        1.0  0.7586308926838116  0.008099872550481325  0.998805287236941  1.0000
  C   C10       1.0  0.24138085692188588  0.9919089683184129  0.001185266996458267  1.0000
  C   C11       1.0  0.3196773841425014  0.3940961386090507  0.4612774115813707  1.0000
  C   C12       1.0  0.6803288744081187  0.6058797450001593  0.5387397994610836  1.0000
  C   C13       1.0  0.6125274015731678  0.7480819511855757  0.9989504615089545  1.0000
  C   C14       1.0  0.38747875445337615  0.2519119831869504  0.0010361033550907298  1.0000
  C   C15       1.0  0.13396560895337473  0.27144708071907087  0.40457923739207763  1.0000
  C   C16       1.0  0.8660639473311561  0.7285743415507824  0.5954340511768521  1.0000
  C   C17       1.0  0.4500358857803874  0.3942962050848209  0.5748525445944068  1.0000
  C   C18       1.0  0.5499521229524333  0.6056833191392528  0.425158484655782  1.0000
  N   N1        1.0  0.8853089703496623  0.1538353491681406  0.059486328357557704  1.0000
  N   N2        1.0  0.11469302276225335  0.8461669843520028  0.9405104337021158  1.0000
  N   N3        1.0  0.5141316759248726  0.8342193465453749  0.8101098655055239  1.0000
  N   N4        1.0  0.48588234581025347  0.1657922833101395  0.1898851306156288  1.0000
  N   N5        1.0  0.741326173853388  0.8912656752584243  0.061972198220878724  1.0000
  N   N6        1.0  0.2586992406746376  0.10875149121687852  0.9380333989604283  1.0000
  O   O1        1.0  0.1252489338328644  0.12827168209263826  0.4223368384203994  1.0000
  O   O2        1.0  0.8747052564313408  0.8717586033784669  0.5776691683961062  1.0000
  O   O3        1.0  0.0010597333996500197  0.3103162507053341  0.33583363465418614  1.0000
  O   O4        1.0  0.9989427857588141  0.6896770688097151  0.6641719829847617  1.0000
  O   O5        1.0  0.23495352410959924  0.8500355229105098  0.43158400988321693  1.0000
  O   O6        1.0  0.7650415037352973  0.149975817955486  0.5684152673832088  1.0000
  O   O7        1.0  0.2636652670336943  0.32293891166241206  0.7153754386428233  1.0000
  O   O8        1.0  0.7363678807646964  0.6770331655959299  0.2846218973756862  1.0000
  O   O9        1.0  0.4966268361097903  0.19050889112840966  0.6852812569022362  1.0000
  O   O10       1.0  0.5033148149247426  0.8094902364181424  0.31472851380754463  1.0000
