data_image0
_chemical_formula_structural       Zr6H29C50O42F
_chemical_formula_sum              "Zr6 H29 C50 O42 F1"
_cell_length_a       14.794624707323507
_cell_length_b       14.791815843275261
_cell_length_c       14.812709293911649
_cell_angle_alpha    60.057278252563755
_cell_angle_beta     59.94146033819715
_cell_angle_gamma    60.09085700289252

_space_group_name_H-M_alt    "P 1"
_space_group_IT_number       1

loop_
  _space_group_symop_operation_xyz
  'x, y, z'

loop_
  _atom_site_type_symbol
  _atom_site_label
  _atom_site_symmetry_multiplicity
  _atom_site_fract_x
  _atom_site_fract_y
  _atom_site_fract_z
  _atom_site_occupancy
  Zr  Zr1       1.0  0.8804971766913142  0.8828951750160455  0.6170575102216914  1.0000
  Zr  Zr2       1.0  0.12034119536401286  0.11847793506743905  0.3814517861748  1.0000
  Zr  Zr3       1.0  0.11893724982037701  0.8802461766502033  0.6198587360217545  1.0000
  Zr  Zr4       1.0  0.8817055779056703  0.12158479250472708  0.37859467869449037  1.0000
  Zr  Zr5       1.0  0.1192652458833762  0.8815492492862377  0.38025982864328267  1.0000
  Zr  Zr6       1.0  0.8811537134655437  0.11977738872028716  0.6184643039510859  1.0000
  H   H1        1.0  0.09313629553211913  0.7190895230286217  0.5929968949775812  1.0000
  H   H2        1.0  0.0955917539870725  0.0941399990084193  0.21779685386241707  1.0000
  H   H3        1.0  0.09440260485590811  0.09376416175665986  0.5941216570175172  1.0000
  H   H4        1.0  0.7182705289392004  0.09541715061028111  0.5926447126146428  1.0000
  H   H5        1.0  0.14145261340966198  0.5896033605845972  0.35286722272211074  1.0000
  H   H6        1.0  0.8537608235997498  0.4159290757863588  0.6428384281433424  1.0000
  H   H7        1.0  0.5890946409059411  0.14217282961044475  0.9156251084879017  1.0000
  H   H8        1.0  0.4176013650826817  0.8523267875503819  0.08911177349772725  1.0000
  H   H9        1.0  0.8525411406342657  0.14084618132174143  0.09008676582896409  1.0000
  H   H10       1.0  0.14164079059095508  0.8550231683875963  0.9146204232042693  1.0000
  H   H11       1.0  0.5888066132129168  0.4152045496463261  0.3539263491093223  1.0000
  H   H12       1.0  0.41637813600829804  0.5906495330005725  0.6397913886107033  1.0000
  H   H13       1.0  0.14111811068015356  0.5906277043610116  0.9158454319514462  1.0000
  H   H14       1.0  0.7412614823049782  0.6232385199400668  0.964137005665897  1.0000
  H   H15       1.0  0.828509093288247  0.5380472062328396  0.878641494108791  1.0000
  H   H16       1.0  0.8339599338308261  0.3685761413365328  0.04805638886487881  1.0000
  H   H17       1.0  0.7470124635767021  0.453705708504117  0.13349729793538512  1.0000
  H   H18       1.0  0.5897823339356733  0.8545840190011944  0.640249137956168  1.0000
  H   H19       1.0  0.41633743007732704  0.14170569481097314  0.3531466070488278  1.0000
  H   H20       1.0  0.15190060448377105  0.3526277242151393  0.3410087898539587  1.0000
  H   H21       1.0  0.8428627497194727  0.6551969566994629  0.6517071323614161  1.0000
  H   H22       1.0  0.3513698295229232  0.15312757032643287  0.15336495194002003  1.0000
  H   H23       1.0  0.6554590950263728  0.8430491863066295  0.8502839827775474  1.0000
  H   H24       1.0  0.8420969530561919  0.15303438568510325  0.8513761371781782  1.0000
  H   H25       1.0  0.1518276090142337  0.8424119214156036  0.15361279299224154  1.0000
  H   H26       1.0  0.35226666560636505  0.6542744870722146  0.3411398792020817  1.0000
  H   H27       1.0  0.653736272442977  0.35248150262604827  0.6516753049403334  1.0000
  H   H28       1.0  0.35194831501577545  0.84235336664495  0.6519092178698145  1.0000
  H   H29       1.0  0.6548294830461003  0.1531193406973018  0.3411163943271801  1.0000
  C   C1        1.0  0.9969707223346447  0.698546997735001  0.4961558070378799  1.0000
  C   C2        1.0  0.309281468467702  0.9963279211094688  0.19769231979750398  1.0000
  C   C3        1.0  0.997402127954679  0.30811800997520333  0.497931839258122  1.0000
  C   C4        1.0  0.6976124758410052  0.9981720452592527  0.8072619507657208  1.0000
  C   C5        1.0  0.9947323615387093  0.7015019106049324  0.8049373694543503  1.0000
  C   C6        1.0  0.6979934367681649  0.9987076719527651  0.4954495533863435  1.0000
  C   C7        1.0  0.999825017597736  0.30595391690698664  0.20008879725386902  1.0000
  C   C8        1.0  0.3087693543268629  0.9967728631261679  0.4972742054821495  1.0000
  C   C9        1.0  0.308450401097197  0.6980380763150579  0.49597011333587204  1.0000
  C   C10       1.0  0.9966583177196496  0.9980569157371945  0.8079257810082865  1.0000
  C   C11       1.0  0.697883078733682  0.3091386152789967  0.4966066977921742  1.0000
  C   C12       1.0  0.9973225980542042  0.9973472435268461  0.19711845017813806  1.0000
  C   C13       1.0  0.9987578919924401  0.40790707012006805  0.49653055728177253  1.0000
  C   C14       1.0  0.996091614925561  0.5980335492234801  0.49861888029683854  1.0000
  C   C15       1.0  0.08175903565852144  0.4571786250389422  0.41336031374870424  1.0000
  C   C16       1.0  0.9138191361688827  0.548080173695368  0.5824625954348974  1.0000
  C   C17       1.0  0.0785454614770488  0.551490430350718  0.41630326472453305  1.0000
  C   C18       1.0  0.9167556029468288  0.4539921028785444  0.5794970019579039  1.0000
  C   C19       1.0  0.4089023452049148  0.9979569426942022  0.09778734864649156  1.0000
  C   C20       1.0  0.598462041333015  0.9959422785124731  0.9076176855777048  1.0000
  C   C21       1.0  0.457541971105286  0.08156098415600618  0.04810300080119129  1.0000
  C   C22       1.0  0.5495599001695199  0.9125960032019979  0.9570725546195432  1.0000
  C   C23       1.0  0.5516335291934454  0.07862343613400927  0.9538137213463216  1.0000
  C   C24       1.0  0.4555056687968816  0.9154815018299801  0.05121771366160037  1.0000
  C   C25       1.0  0.9955903086799583  0.9995701671462739  0.9074371220821645  1.0000
  C   C26       1.0  0.9983712466727255  0.9960062787313648  0.09755366545913786  1.0000
  C   C27       1.0  0.9128985523561468  0.08228711326451321  0.9569704554289372  1.0000
  C   C28       1.0  0.08150312833232222  0.913776069449817  0.04755107652566439  1.0000
  C   C29       1.0  0.9159465072450034  0.07852624136830857  0.05133596737086766  1.0000
  C   C30       1.0  0.07832695277257083  0.9174236905121518  0.9532745738058992  1.0000
  C   C31       1.0  0.4082916827697644  0.5983916749396698  0.49465310474371893  1.0000
  C   C32       1.0  0.5977894735111916  0.40842633152884394  0.4981477212291309  1.0000
  C   C33       1.0  0.45748872904768223  0.5483923158510038  0.4123714876458847  1.0000
  C   C34       1.0  0.5481595502630016  0.4579542733905908  0.5808545080514236  1.0000
  C   C35       1.0  0.5512403118924925  0.45415077222281053  0.41606573363510807  1.0000
  C   C36       1.0  0.45433312591463715  0.552206065017927  0.5771842763885573  1.0000
  C   C37       1.0  0.9947770066707874  0.6013228217607677  0.9050502341206368  1.0000
  C   C38       1.0  0.9998143090171395  0.4057496532925315  0.0999559427558553  1.0000
  C   C39       1.0  0.9166035961198278  0.5487752000560632  0.9560779219212205  1.0000
  C   C40       1.0  0.07901311741230188  0.4599159531303202  0.045776550178125285  1.0000
  C   C41       1.0  0.9197250011371025  0.4544570564053745  0.05015488026660362  1.0000
  C   C42       1.0  0.07724246660358598  0.5539998709918876  0.9523497622536325  1.0000
  C   C43       1.0  0.815250962902475  0.5506736159275221  0.9520204802679969  1.0000
  C   C44       1.0  0.8186710061041966  0.4440241359518566  0.05852198103858796  1.0000
  C   C45       1.0  0.40843684183759915  0.9959823327001659  0.4982632010403449  1.0000
  C   C46       1.0  0.598180855888515  0.99969905107848  0.4946241422773454  1.0000
  C   C47       1.0  0.4575799380259083  0.9136299318325031  0.5810961298151796  1.0000
  C   C48       1.0  0.5486053839929923  0.08250243862190139  0.41223739287060823  1.0000
  C   C49       1.0  0.5516979676529987  0.9172761483013258  0.5774684114421548  1.0000
  C   C50       1.0  0.4545062587208761  0.07884941008158113  0.4158290403653239  1.0000
  O   O1        1.0  0.9192211413343473  0.7400672223615247  0.5733482992109629  1.0000
  O   O2        1.0  0.2681477783917785  0.07374664970047466  0.23888044961505972  1.0000
  O   O3        1.0  0.07567380783382306  0.26621956485706016  0.421306114598643  1.0000
  O   O4        1.0  0.7376228916523928  0.921860590171754  0.7649321974188511  1.0000
  O   O5        1.0  0.07195379620948494  0.7411019759002642  0.7647073428816781  1.0000
  O   O6        1.0  0.7388251819752225  0.07663001885914861  0.4184335284702954  1.0000
  O   O7        1.0  0.922611112710463  0.26675114992339394  0.23832186226303517  1.0000
  O   O8        1.0  0.2670411955248965  0.9197131826519749  0.5751983589791578  1.0000
  O   O9        1.0  0.2670333756491842  0.7384149509868294  0.41899096960043625  1.0000
  O   O10       1.0  0.9195247704745241  0.07586744821350079  0.7666144386960667  1.0000
  O   O11       1.0  0.7383596462191808  0.26774980971244833  0.5745632732325914  1.0000
  O   O12       1.0  0.07516484439966567  0.9202038406968286  0.23768493189289333  1.0000
  O   O13       1.0  0.07250553884046697  0.9225722539057273  0.7666537525113667  1.0000
  O   O14       1.0  0.7391444496215841  0.2681300097510331  0.4208131977167753  1.0000
  O   O15       1.0  0.9224216751278504  0.07374865837741149  0.23752702267572798  1.0000
  O   O16       1.0  0.2668050283144156  0.7387616748725279  0.5720687762209095  1.0000
  O   O17       1.0  0.9185074310465284  0.7404474930089505  0.764824376543693  1.0000
  O   O18       1.0  0.26744463011399944  0.07271898844372515  0.42196740888415013  1.0000
  O   O19       1.0  0.07564421285934496  0.2644969387193754  0.2412517558046261  1.0000
  O   O20       1.0  0.7386732189659004  0.9233351537736497  0.5714057744054131  1.0000
  O   O21       1.0  0.7384244759957143  0.07427962219466606  0.7659454350011928  1.0000
  O   O22       1.0  0.07317305643805165  0.739246008914307  0.42059195288710777  1.0000
  O   O23       1.0  0.2674654492208718  0.9211165260008016  0.2381110338499823  1.0000
  O   O24       1.0  0.9215438879240594  0.2668825977041324  0.5738647867728942  1.0000
  O   O25       1.0  0.7985212458682864  0.06885305379142882  0.5657739314801162  1.0000
  O   O26       1.0  0.06752440707769847  0.06701177846311175  0.5675017002778943  1.0000
  O   O27       1.0  0.06845834176176176  0.06709281860476321  0.29797326666135143  1.0000
  O   O28       1.0  0.06680105564886685  0.7992592392472487  0.5660136981622087  1.0000
  O   O29       1.0  0.1491622736901589  0.9500430421397893  0.450583504835116  1.0000
  O   O30       1.0  0.9506213315922594  0.9520023935194646  0.44880136367181933  1.0000
  O   O31       1.0  0.9511951595312951  0.14907923168944154  0.4501580390952426  1.0000
  O   O32       1.0  0.9500689216074896  0.951279594328355  0.6480751531424999  1.0000
  O   O33       1.0  0.16392746070675215  0.4178463807530192  0.33084181245799016  1.0000
  O   O34       1.0  0.8323503058789895  0.587492221819936  0.6655869832574268  1.0000
  O   O35       1.0  0.41737430641365597  0.1644689106135928  0.08707804636593859  1.0000
  O   O36       1.0  0.5901119889105358  0.8300410357871544  0.9170657078952971  1.0000
  O   O37       1.0  0.8309681211236396  0.16501915241491372  0.9170048918881758  1.0000
  O   O38       1.0  0.1639819416548108  0.8316076574441879  0.08688399148498144  1.0000
  O   O39       1.0  0.4178714466388058  0.5877551729423018  0.3301206246282788  1.0000
  O   O40       1.0  0.5873159125261084  0.4181944957650926  0.6634883054696701  1.0000
  O   O41       1.0  0.417573710690263  0.8314820987913408  0.6637114664152292  1.0000
  O   O42       1.0  0.5882678667053867  0.1650635300979246  0.3301235252685828  1.0000
  F   F1        1.0  0.16224395082409881  0.42021285367150096  0.08438634653330018  1.0000
