data_image0
_chemical_formula_structural       Cd6H44C64O32
_chemical_formula_sum              "Cd6 H44 C64 O32"
_cell_length_a       6.785902936690996
_cell_length_b       14.351289380536683
_cell_length_c       17.919949527172257
_cell_angle_alpha    89.99974913300444
_cell_angle_beta     90.00043814825777
_cell_angle_gamma    89.27782061631149

_space_group_name_H-M_alt    "P 1"
_space_group_IT_number       1

loop_
  _space_group_symop_operation_xyz
  'x, y, z'

loop_
  _atom_site_type_symbol
  _atom_site_label
  _atom_site_symmetry_multiplicity
  _atom_site_fract_x
  _atom_site_fract_y
  _atom_site_fract_z
  _atom_site_occupancy
  Cd  Cd1       1.0  0.9999986594312774  2.466234704502576e-06  0.5000000868522179  1.0000
  Cd  Cd2       1.0  0.49999679785862844  0.9999994942101149  0.9999996182986807  1.0000
  Cd  Cd3       1.0  0.43468731604936295  0.1416119128406947  0.5323127158564916  1.0000
  Cd  Cd4       1.0  0.06531178179531591  0.8583876236597657  0.0323139751811041  1.0000
  Cd  Cd5       1.0  0.5653114855398513  0.8583873050162366  0.4676864715292197  1.0000
  Cd  Cd6       1.0  0.9346885080120657  0.14161297549075158  0.967688560428094  1.0000
  H   H1        1.0  0.8764015523791003  0.9873040700008315  0.7396154821753314  1.0000
  H   H2        1.0  0.6235909418767561  0.012699601845895402  0.2396126176721651  1.0000
  H   H3        1.0  0.12358844288173289  0.012698704783879595  0.2603859373403666  1.0000
  H   H4        1.0  0.37640195753778016  0.9872989680452592  0.7603882438178715  1.0000
  H   H5        1.0  0.7321598406943225  0.7955688582053707  0.9148147599794002  1.0000
  H   H6        1.0  0.7678302429564142  0.20443109469893977  0.414816112520576  1.0000
  H   H7        1.0  0.26784190115913736  0.2044296385069515  0.08518442741189601  1.0000
  H   H8        1.0  0.232167084923752  0.7955681353458741  0.5851864230866681  1.0000
  H   H9        1.0  0.6650876249022275  0.71393726913368  0.6843130390030796  1.0000
  H   H10       1.0  0.8349155503763085  0.2860666146919257  0.18431430291597908  1.0000
  H   H11       1.0  0.334911234460506  0.28606752272251157  0.3156867064102472  1.0000
  H   H12       1.0  0.16508325122968873  0.7139326031603231  0.8156865585815893  1.0000
  H   H13       1.0  0.4940984929810243  0.6968145653759307  0.9205763180971047  1.0000
  H   H14       1.0  0.0059039621349441995  0.3031821375658551  0.4205787877784317  1.0000
  H   H15       1.0  0.5059091438261235  0.30318388255206935  0.0794211951910739  1.0000
  H   H16       1.0  0.9940904182376046  0.696817116879707  0.5794215156752928  1.0000
  H   H17       1.0  0.7217431512181276  0.632499798791116  0.9254456403050426  1.0000
  H   H18       1.0  0.7782648305605306  0.3674999482263387  0.4254509171179492  1.0000
  H   H19       1.0  0.2782689357064286  0.3675013995439897  0.0745524310221484  1.0000
  H   H20       1.0  0.2217339782888388  0.6324999663697639  0.5745521765275612  1.0000
  H   H21       1.0  0.19139343453232271  0.6201197412928892  0.9277562734521823  1.0000
  H   H22       1.0  0.3086195024169954  0.3798789263283382  0.427758247879666  1.0000
  H   H23       1.0  0.8086215782144991  0.37987934239739457  0.0722417978830023  1.0000
  H   H24       1.0  0.6913778182421808  0.6201196069663691  0.5722442877287861  1.0000
  H   H25       1.0  0.003540487044738  0.4718303717578181  0.9378874239361751  1.0000
  H   H26       1.0  0.49646825349628193  0.528170365993887  0.4378894312419561  1.0000
  H   H27       1.0  0.9964701261260133  0.5281708387776546  0.06210953131425611  1.0000
  H   H28       1.0  0.5035305408999164  0.47182815510513615  0.5621125463313916  1.0000
  H   H29       1.0  0.5358851087382703  0.31523436645103686  0.8925044234206609  1.0000
  H   H30       1.0  0.9641148148906923  0.6847628389469378  0.3925102520051952  1.0000
  H   H31       1.0  0.4641225208422952  0.6847633847284271  0.1074925318314399  1.0000
  H   H32       1.0  0.03588546045792639  0.3152363667080564  0.6074906094945618  1.0000
  H   H33       1.0  0.7176733108667862  0.46099087046910364  0.8770233649996158  1.0000
  H   H34       1.0  0.7823277688643486  0.5390057126357631  0.3770308437623058  1.0000
  H   H35       1.0  0.2823357924563936  0.5390068685131055  0.1229735902546736  1.0000
  H   H36       1.0  0.2176695590158175  0.4609935174090508  0.6229716918449384  1.0000
  H   H37       1.0  0.0693256455534126  0.1125237446258325  0.6257711987175584  1.0000
  H   H38       1.0  0.4306738670667656  0.8874766744197514  0.1257711973523854  1.0000
  H   H39       1.0  0.9306761179965904  0.8874768423274302  0.3742313368938213  1.0000
  H   H40       1.0  0.5693293702146677  0.11252390033938295  0.8742302221866113  1.0000
  H   H41       1.0  0.9440384266635676  0.1772377246491459  0.5703548034219068  1.0000
  H   H42       1.0  0.5559639010851499  0.8227633011380532  0.0703556019132208  1.0000
  H   H43       1.0  0.055961855917225  0.8227621777528283  0.4296471741512136  1.0000
  H   H44       1.0  0.44403638148445884  0.17723660126704735  0.9296452595853283  1.0000
  C   C1        1.0  0.7762724026554723  0.8523420521848732  0.7034670319417486  1.0000
  C   C2        1.0  0.7237252544932248  0.14766107646802598  0.20346566339609504  1.0000
  C   C3        1.0  0.22372055452699158  0.1476620917071045  0.2965338295386175  1.0000
  C   C4        1.0  0.2762720733645665  0.8523381535830408  0.7965346400619994  1.0000
  C   C5        1.0  0.8268879413687102  0.9189811880144346  0.7569029660825279  1.0000
  C   C6        1.0  0.6731093063372668  0.08102095696826689  0.25690056598030964  1.0000
  C   C7        1.0  0.1731079271884397  0.0810194477340787  0.24309733737096914  1.0000
  C   C8        1.0  0.3268894735945693  0.9189761706367959  0.7430991794463184  1.0000
  C   C9        1.0  0.810099287184663  0.897594081707062  0.8324467184059189  1.0000
  C   C10       1.0  0.6898906329333699  0.10240771358059667  0.33244596687906386  1.0000
  C   C11       1.0  0.18989364834041572  0.1024079719330402  0.16755470111536405  1.0000
  C   C12       1.0  0.3101052211929911  0.8975915286645914  0.6675554526514206  1.0000
  C   C13       1.0  0.7447349205140557  0.8097084339934638  0.8553765282608625  1.0000
  C   C14       1.0  0.7552583996757462  0.1902925117933378  0.3553762192345573  1.0000
  C   C15       1.0  0.25526535480099005  0.19029077167090233  0.1446209850151803  1.0000
  C   C16       1.0  0.2447389354086198  0.8097074150062651  0.6446246422596147  1.0000
  C   C17       1.0  0.6927198986869526  0.7437052231777624  0.8016749652037377  1.0000
  C   C18       1.0  0.8072752993728755  0.2562966955657586  0.30167681014713577  1.0000
  C   C19       1.0  0.30728187206165813  0.2562960605318523  0.19832533825729123  1.0000
  C   C20       1.0  0.1927205547590773  0.7437025466778663  0.6983251674206344  1.0000
  C   C21       1.0  0.7091274113484616  0.7651498365948368  0.7255904740897493  1.0000
  C   C22       1.0  0.7908721704072407  0.23485385276691056  0.2255901137345333  1.0000
  C   C23       1.0  0.2908699453653156  0.2348521804644434  0.27440703917708487  1.0000
  C   C24       1.0  0.2091236837023303  0.7651453894829673  0.7744096316840938  1.0000
  C   C25       1.0  0.7867474288680683  0.8774731257928178  0.62252815931285  1.0000
  C   C26       1.0  0.7132574621468777  0.12253177624944557  0.12252740598651  1.0000
  C   C27       1.0  0.2132440473395931  0.12253033354943449  0.3774715860919713  1.0000
  C   C28       1.0  0.2867428204171318  0.8774681261572114  0.8774728974747463  1.0000
  C   C29       1.0  0.8552363196017295  0.9700481376593258  0.8887414593419792  1.0000
  C   C30       1.0  0.6447547149277852  0.029951949006289204  0.3887402707415433  1.0000
  C   C31       1.0  0.14475955617640324  0.029953194839300996  0.11125884411031  1.0000
  C   C32       1.0  0.3552396365608034  0.9700445184388612  0.6112600327170199  1.0000
  C   C33       1.0  0.14325695846775233  0.29772932249055356  0.9298002993878783  1.0000
  C   C34       1.0  0.3567457177034327  0.7022708125724931  0.4298012870092833  1.0000
  C   C35       1.0  0.856747752528321  0.7022712400791419  0.0701983299668782  1.0000
  C   C36       1.0  0.6432545576339948  0.2977283930856273  0.5701984584159021  1.0000
  C   C37       1.0  0.2558971162472901  0.3843233954816084  0.9157188004367783  1.0000
  C   C38       1.0  0.24410967712294956  0.615674691562397  0.4157203182554882  1.0000
  C   C39       1.0  0.7441149417933133  0.6156750158530783  0.08427927089524453  1.0000
  C   C40       1.0  0.7558891172508667  0.38432382954287186  0.584279427168717  1.0000
  C   C41       1.0  0.5798797864052646  0.6390199196056939  0.8957656494389498  1.0000
  C   C42       1.0  0.9201231500704099  0.36097724315197866  0.3957680175669083  1.0000
  C   C43       1.0  0.4201293313710864  0.3609792128736017  0.10423242188748821  1.0000
  C   C44       1.0  0.07987269682376312  0.6390213023462364  0.6042322858902125  1.0000
  C   C45       1.0  0.46629941505781153  0.5503125636541312  0.900748910795201  1.0000
  C   C46       1.0  0.0337026424844709  0.44968425027119696  0.4007531816082165  1.0000
  C   C47       1.0  0.533708221754928  0.44968588427231265  0.0992491605302632  1.0000
  C   C48       1.0  0.9662946853845041  0.5503149797767362  0.5992482379244564  1.0000
  C   C49       1.0  0.26474036743287144  0.5531318265027066  0.9176978763104344  1.0000
  C   C50       1.0  0.23526497745530153  0.44686486815529486  0.4177010749638725  1.0000
  C   C51       1.0  0.7352702240805018  0.44686729378089757  0.08229963698090613  1.0000
  C   C52       1.0  0.7647338025045088  0.5531322594419521  0.5823014606491768  1.0000
  C   C53       1.0  0.1598190709956171  0.47083173893281566  0.9241448709750486  1.0000
  C   C54       1.0  0.3401834484489754  0.5291642472856423  0.42414641571570405  1.0000
  C   C55       1.0  0.8401855966745159  0.5291646431362622  0.0758537583869554  1.0000
  C   C56       1.0  0.659816826894044  0.47083495837091494  0.5758538877467673  1.0000
  C   C57       1.0  0.4576449012684876  0.3815123266546863  0.8984952808396827  1.0000
  C   C58       1.0  0.04236007300972489  0.6184858689915911  0.3984995444062633  1.0000
  C   C59       1.0  0.5423642165134623  0.6184868058230462  0.101503348524048  1.0000
  C   C60       1.0  0.9576401951290947  0.38151263991017703  0.6015024331692729  1.0000
  C   C61       1.0  0.5609264889208916  0.4640245806248302  0.8903038588393458  1.0000
  C   C62       1.0  0.9390763236175063  0.5359712191984796  0.39030901848093447  1.0000
  C   C63       1.0  0.43908410259248853  0.5359745396587741  0.10969365445199492  1.0000
  C   C64       1.0  0.06092393728353329  0.46402659295787163  0.6096912849839528  1.0000
  O   O1        1.0  0.872093555856303  0.9535984622186219  0.606408686422334  1.0000
  O   O2        1.0  0.6279065762454722  0.046405173149253194  0.10640739074593603  1.0000
  O   O3        1.0  0.1279008750575841  0.04640566947922049  0.3935910589856491  1.0000
  O   O4        1.0  0.3720863664894125  0.9535975772440821  0.8935929126995675  1.0000
  O   O5        1.0  0.0675536947181641  0.13571932270982498  0.5746208998534925  1.0000
  O   O6        1.0  0.43244775412627234  0.8642827517686199  0.0746204268279058  1.0000
  O   O7        1.0  0.9324480760528289  0.8642819609935443  0.4253816357566862  1.0000
  O   O8        1.0  0.5675525428853164  0.13571854413667947  0.9253804346682274  1.0000
  O   O9        1.0  0.7077860793429808  0.8220273008734296  0.5759119376264934  1.0000
  O   O10       1.0  0.7922266904772358  0.17797500192695984  0.07591233831048069  1.0000
  O   O11       1.0  0.2922171723636424  0.17797466739060036  0.42408780779822314  1.0000
  O   O12       1.0  0.20778242731589813  0.8220241305476461  0.9240874071278213  1.0000
  O   O13       1.0  0.8242899740000026  0.9533876174352327  0.9589821542717445  1.0000
  O   O14       1.0  0.6757068830476669  0.04661134269959888  0.45898099828428945  1.0000
  O   O15       1.0  0.1757088348157936  0.04661229717024179  0.0410175911500446  1.0000
  O   O16       1.0  0.32429042316393725  0.9533857970964659  0.5410209792892928  1.0000
  O   O17       1.0  0.9177199052865106  0.0485665178977257  0.8666102886163999  1.0000
  O   O18       1.0  0.582272173644327  0.9514350739538879  0.3666095980492798  1.0000
  O   O19       1.0  0.0822774442342435  0.9514348024036463  0.1333900148380778  1.0000
  O   O20       1.0  0.41772516145123006  0.04856485284259549  0.6333923795194709  1.0000
  O   O21       1.0  0.6178326559888347  0.6583658123123326  0.8179094252588115  1.0000
  O   O22       1.0  0.8821643413676982  0.34163600335482147  0.31791230762033973  1.0000
  O   O23       1.0  0.38217352151767164  0.3416340413131279  0.1820880880247628  1.0000
  O   O24       1.0  0.11783006067341262  0.6583653413394895  0.6820885538670469  1.0000
  O   O25       1.0  0.23606976762766146  0.2191086685032387  0.9386689018214014  1.0000
  O   O26       1.0  0.26393750041171427  0.7808906835675768  0.4386721318697653  1.0000
  O   O27       1.0  0.7639364171166249  0.780891881867639  0.06133028557282931  1.0000
  O   O28       1.0  0.7360627605117073  0.21910712858252163  0.5613304037442717  1.0000
  O   O29       1.0  0.9570195556553642  0.30110849315033045  0.9361480467465526  1.0000
  O   O30       1.0  0.5429857076393532  0.6988926118671442  0.4361481245150785  1.0000
  O   O31       1.0  0.0429851553351099  0.6988920694209282  0.063850024570911  1.0000
  O   O32       1.0  0.4570145749078733  0.3011072905442019  0.5638505048343205  1.0000
