data_image0
_chemical_formula_structural       K4H16C24S4N4O20
_chemical_formula_sum              "K4 H16 C24 S4 N4 O20"
_cell_length_a       7.210841483253472
_cell_length_b       7.975750589015053
_cell_length_c       15.12419363790051
_cell_angle_alpha    89.99979679508017
_cell_angle_beta     99.98018163212578
_cell_angle_gamma    90.00012740809113

_space_group_name_H-M_alt    "P 1"
_space_group_IT_number       1

loop_
  _space_group_symop_operation_xyz
  'x, y, z'

loop_
  _atom_site_type_symbol
  _atom_site_label
  _atom_site_symmetry_multiplicity
  _atom_site_fract_x
  _atom_site_fract_y
  _atom_site_fract_z
  _atom_site_occupancy
  K   K1        1.0  0.1499187479269892  0.3434756460037677  0.5625230322693966  1.0000
  K   K2        1.0  0.3500862538243864  0.8434730997489197  0.43747662186252273  1.0000
  K   K3        1.0  0.8500867222425014  0.656525685920201  0.437475143149463  1.0000
  K   K4        1.0  0.6499093518077713  0.15652697835838575  0.5625233768318765  1.0000
  H   H1        1.0  0.33262568898284417  0.0276973246480736  0.9571517512825096  1.0000
  H   H2        1.0  0.16737310936306224  0.5276933070633663  0.04284797553462741  1.0000
  H   H3        1.0  0.6673755510256779  0.9723040072661037  0.0428480554364441  1.0000
  H   H4        1.0  0.8326253105324779  0.47230175584181916  0.9571529187231037  1.0000
  H   H5        1.0  0.40675190828013524  0.726111812909011  0.9881936190603541  1.0000
  H   H6        1.0  0.09325006504506918  0.22610918162668275  0.011806001889510798  1.0000
  H   H7        1.0  0.5932521498881015  0.27388826520897425  0.011805761157091907  1.0000
  H   H8        1.0  0.9067511710659842  0.7738871350810683  0.9881951268953701  1.0000
  H   H9        1.0  0.36973678438580737  0.5231106262573918  0.8593226247503338  1.0000
  H   H10       1.0  0.13026482383143898  0.023110962471840003  0.1406766834292981  1.0000
  H   H11       1.0  0.6302644595133842  0.47688819806026583  0.14067585990915893  1.0000
  H   H12       1.0  0.8697392323857966  0.9768841004419572  0.8593233578232573  1.0000
  H   H13       1.0  0.27300402183871597  0.6258437025405144  0.7039841308266048  1.0000
  H   H14       1.0  0.22699636402310824  0.12583817255449503  0.29601488384797386  1.0000
  H   H15       1.0  0.7269958139589505  0.37416139077856064  0.2960142365634013  1.0000
  H   H16       1.0  0.7730062821416082  0.8741581441565175  0.7039857011702042  1.0000
  C   C1        1.0  0.26729021586589846  0.9935303482989398  0.81449116736993  1.0000
  C   C2        1.0  0.23271083093948156  0.4935280828378197  0.185508538570609  1.0000
  C   C3        1.0  0.732711020249688  0.006470983610775198  0.185509961410645  1.0000
  C   C4        1.0  0.7672875928512608  0.5064694876728096  0.814491033623348  1.0000
  C   C5        1.0  0.32246595696766167  0.9373974592591098  0.902615296810069  1.0000
  C   C6        1.0  0.1775293539649638  0.4373944221576521  0.09738469740550931  1.0000
  C   C7        1.0  0.6775310567728211  0.06260387264972418  0.09738481914737213  1.0000
  C   C8        1.0  0.822467653932719  0.5626031483430224  0.9026174016475822  1.0000
  C   C9        1.0  0.36327160496581706  0.7687851006648498  0.9193175224100829  1.0000
  C   C10       1.0  0.13672762735801308  0.268782093250131  0.0806824518336029  1.0000
  C   C11       1.0  0.6367310431498935  0.2312162312503574  0.0806824015729859  1.0000
  C   C12       1.0  0.8632722025900534  0.7312117158578318  0.9193178986585056  1.0000
  C   C13       1.0  0.3439728468227372  0.6564748902181349  0.8475836876285643  1.0000
  C   C14       1.0  0.15602900253288246  0.15647018444131794  0.15241539175941204  1.0000
  C   C15       1.0  0.6560283990263186  0.3435276955032265  0.1524141359968922  1.0000
  C   C16       1.0  0.8439750497914174  0.8435248784680169  0.8475859715547642  1.0000
  C   C17       1.0  0.28871441048446667  0.7134578547545799  0.7598011193773146  1.0000
  C   C18       1.0  0.21129034644018665  0.21345266927171017  0.24020206296578553  1.0000
  C   C19       1.0  0.7112910421702309  0.28654723855078146  0.24020300531560684  1.0000
  C   C20       1.0  0.7887108896719963  0.7865449012365319  0.7597990658180224  1.0000
  C   C21       1.0  0.25130636804451  0.8828839402511052  0.7410438601158661  1.0000
  C   C22       1.0  0.24869729685345018  0.3828787043290021  0.25895560914649723  1.0000
  C   C23       1.0  0.748696282021072  0.11712115306780649  0.2589554028331662  1.0000
  C   C24       1.0  0.7513053493112593  0.6171176123820102  0.7410449758716809  1.0000
  S   S1        1.0  0.1661488463685217  0.9355902571818006  0.6247157360480174  1.0000
  S   S2        1.0  0.33385209372602986  0.4355881712256817  0.37528473032356413  1.0000
  S   S3        1.0  0.8338523897482017  0.0644123285283982  0.37528539273148454  1.0000
  S   S4        1.0  0.6661477381741674  0.5644119068869671  0.6247149591323549  1.0000
  N   N1        1.0  0.22600146722332679  0.1733605084501022  0.8051397859243111  1.0000
  N   N2        1.0  0.2739947782909907  0.6733581900137011  0.1948594564674977  1.0000
  N   N3        1.0  0.7739955465182857  0.8266420772592227  0.1948603300320499  1.0000
  N   N4        1.0  0.7259994192328421  0.3266406342920832  0.8051404249638665  1.0000
  O   O1        1.0  0.15363003367615136  0.24090371835125526  0.865262492553228  1.0000
  O   O2        1.0  0.3463677420742854  0.7409019525535214  0.1347367512269813  1.0000
  O   O3        1.0  0.8463683862250516  0.759097613556385  0.1347384016991242  1.0000
  O   O4        1.0  0.6536250512341579  0.25909561795519664  0.8652616908797272  1.0000
  O   O5        1.0  0.26904209865428896  0.25001938535767476  0.7406813439155615  1.0000
  O   O6        1.0  0.23095428546936594  0.7500152908764265  0.25931776696396014  1.0000
  O   O7        1.0  0.730952098874077  0.7499844541500664  0.2593185375115041  1.0000
  O   O8        1.0  0.7690441363760383  0.2499835334324629  0.7406824662597417  1.0000
  O   O9        1.0  0.9998764415740878  0.0407524367493366  0.625951497882703  1.0000
  O   O10       1.0  0.5001222393522865  0.5407508605596334  0.37404745524663957  1.0000
  O   O11       1.0  0.00012057411399979946  0.9592501489622193  0.3740479570428478  1.0000
  O   O12       1.0  0.499877590601443  0.45924921755078424  0.6259528952400899  1.0000
  O   O13       1.0  0.31917886935227807  0.0261513515192107  0.5923044232093417  1.0000
  O   O14       1.0  0.18081711387689123  0.526147408185217  0.40769374967012345  1.0000
  O   O15       1.0  0.6808181463369392  0.9738524879928364  0.4076950317151358  1.0000
  O   O16       1.0  0.8191813118614489  0.4738514161281344  0.5923051614919502  1.0000
  O   O17       1.0  0.12487631052141515  0.774315264595586  0.5794477688880307  1.0000
  O   O18       1.0  0.37512011948211205  0.27431421104885345  0.4205506392767475  1.0000
  O   O19       1.0  0.8751235233286535  0.2256885749207669  0.42055125953385913  1.0000
  O   O20       1.0  0.624878302365559  0.7256871208610178  0.5794495939448013  1.0000
