data_image0
_chemical_formula_structural       Cd2H10C10Br4N2O2
_chemical_formula_sum              "Cd2 H10 C10 Br4 N2 O2"
_cell_length_a       6.491653068142012
_cell_length_b       7.072084596725052
_cell_length_c       10.464931010875329
_cell_angle_alpha    71.58728597680178
_cell_angle_beta     82.91357638150312
_cell_angle_gamma    64.9843810279879

_space_group_name_H-M_alt    "P 1"
_space_group_IT_number       1

loop_
  _space_group_symop_operation_xyz
  'x, y, z'

loop_
  _atom_site_type_symbol
  _atom_site_label
  _atom_site_symmetry_multiplicity
  _atom_site_fract_x
  _atom_site_fract_y
  _atom_site_fract_z
  _atom_site_occupancy
  Cd  Cd1       1.0  0.3294514873550156  0.323630804086747  0.49573752965335416  1.0000
  Cd  Cd2       1.0  0.67054450037012  0.6763701337113586  0.5042636886917863  1.0000
  H   H1        1.0  0.15716022408609118  0.056819126178567096  0.3208546282240476  1.0000
  H   H2        1.0  0.8428423691070747  0.943176874713444  0.6791432670425621  1.0000
  H   H3        1.0  0.06206856770004522  0.29303434110941845  0.08204966144545271  1.0000
  H   H4        1.0  0.9379468570006393  0.7069646161305556  0.9179503663928089  1.0000
  H   H5        1.0  0.19514981145082538  0.11605010129095919  0.8937601122808942  1.0000
  H   H6        1.0  0.8048652233854056  0.8839536994989815  0.10624083214169389  1.0000
  H   H7        1.0  0.42086059996882585  0.7128389613119949  0.954544406161979  1.0000
  H   H8        1.0  0.5791303361612774  0.2871588977215112  0.045452149667788405  1.0000
  H   H9        1.0  0.5087959543686863  0.49778665262703475  0.2027853946236462  1.0000
  H   H10       1.0  0.4911800455728253  0.5022098422935102  0.7972145992848921  1.0000
  C   C1        1.0  0.21165462626912993  0.9927584420007423  0.2350013024645178  1.0000
  C   C2        1.0  0.7883483255923095  0.007240724837373604  0.765001625666045  1.0000
  C   C3        1.0  0.16095336722413114  0.1179875293270527  0.1019315218765939  1.0000
  C   C4        1.0  0.8390590585503476  0.882014777852319  0.8980632658960985  1.0000
  C   C5        1.0  0.23437478578554755  0.0197119472261846  0.9988979142001355  1.0000
  C   C6        1.0  0.7656373125726501  0.9802951691743543  0.0011006592010290284  1.0000
  C   C7        1.0  0.36009348010821907  0.7943274627266275  0.0328779392485288  1.0000
  C   C8        1.0  0.6398956059287922  0.205675211702669  0.9671244383553413  1.0000
  C   C9        1.0  0.4103903328812207  0.6733556647117921  0.16638288232284992  1.0000
  C   C10       1.0  0.5896114861678681  0.3266386647509876  0.8336211653690101  1.0000
  Br  Br1       1.0  0.34673185627547554  0.9188442688292183  0.6544341535796505  1.0000
  Br  Br2       1.0  0.6532677331961948  0.08115172152618301  0.3455697266743272  1.0000
  Br  Br3       1.0  0.026735389154808303  0.5090063705487964  0.6801323899651521  1.0000
  Br  Br4       1.0  0.9732659775816472  0.49099283679275624  0.3198697052668821  1.0000
  N   N1        1.0  0.33584999681079336  0.7743567781094071  0.2645849187076976  1.0000
  N   N2        1.0  0.6641423739365989  0.2256377600451954  0.7354170006371632  1.0000
  O   O1        1.0  0.38496859458262345  0.6573855687694349  0.3931697289805172  1.0000
  O   O2        1.0  0.6150318106652362  0.3426120701293129  0.6068299115443097  1.0000
