data_image0
_chemical_formula_structural       Cu2H32C40I2N12
_chemical_formula_sum              "Cu2 H32 C40 I2 N12"
_cell_length_a       8.01684401537932
_cell_length_b       10.105481574841427
_cell_length_c       12.050341604966913
_cell_angle_alpha    90.61830294834738
_cell_angle_beta     109.42671624111553
_cell_angle_gamma    89.98551022050896

_space_group_name_H-M_alt    "P 1"
_space_group_IT_number       1

loop_
  _space_group_symop_operation_xyz
  'x, y, z'

loop_
  _atom_site_type_symbol
  _atom_site_label
  _atom_site_symmetry_multiplicity
  _atom_site_fract_x
  _atom_site_fract_y
  _atom_site_fract_z
  _atom_site_occupancy
  Cu  Cu1       1.0  0.2935232857881472  0.7498808007978469  2.0828398653757562e-05  1.0000
  Cu  Cu2       1.0  0.706478519020294  0.25011940933178073  0.9999802255487541  1.0000
  H   H1        1.0  0.7104157139673433  0.691495232866622  0.10329347666323949  1.0000
  H   H2        1.0  0.6066331763309802  0.8085224061311042  0.896808712277512  1.0000
  H   H3        1.0  0.28958476705112435  0.3085039912353481  0.8967081105137924  1.0000
  H   H4        1.0  0.3933673117371369  0.191479786800663  0.10319288994598712  1.0000
  H   H5        1.0  0.2806836405604328  0.4752929901515942  0.1366703104724891  1.0000
  H   H6        1.0  0.14341412950449947  0.0248604093808069  0.8632521616252264  1.0000
  H   H7        1.0  0.7193168367313515  0.5247062179893974  0.8633287862165419  1.0000
  H   H8        1.0  0.8565863573213831  0.9751417782306291  0.13674861043561046  1.0000
  H   H9        1.0  0.9527902195101629  0.5324742897081337  0.2022503524385399  1.0000
  H   H10       1.0  0.7500993839425545  0.9675564750030009  0.7979166143152984  1.0000
  H   H11       1.0  0.047211586540505786  0.4675259257418176  0.7977515316715371  1.0000
  H   H12       1.0  0.24990109569910854  0.032443722747927915  0.20208248738921958  1.0000
  H   H13       1.0  0.8883810032153078  0.3687078104950104  0.21402213618339525  1.0000
  H   H14       1.0  0.6736532897376363  0.1313221178457979  0.7860095947093274  1.0000
  H   H15       1.0  0.11161683243851427  0.6312914101308639  0.7859788671585266  1.0000
  H   H16       1.0  0.32634719101167775  0.86867906419473  0.21398868184802217  1.0000
  H   H17       1.0  0.8200940021930092  0.23524709661351303  0.30169138893683123  1.0000
  H   H18       1.0  0.5177517208352923  0.26464540251205904  0.6982434507267714  1.0000
  H   H19       1.0  0.1799064786908815  0.7647531064577394  0.6983085429303559  1.0000
  H   H20       1.0  0.4822421395873348  0.7353518230391461  0.3017550065061699  1.0000
  H   H21       1.0  0.822773313665159  0.04603037549495071  0.42672492719628974  1.0000
  H   H22       1.0  0.39569899466952296  0.45393877500805524  0.5732631041993842  1.0000
  H   H23       1.0  0.1772298102334914  0.9539688414424677  0.5732755834905137  1.0000
  H   H24       1.0  0.6042988384998437  0.5460604349771575  0.4267362388172061  1.0000
  H   H25       1.0  0.9318821460196317  0.07179853220411302  0.6451499055495165  1.0000
  H   H26       1.0  0.2869737622483583  0.4282819054716926  0.3547606368046133  1.0000
  H   H27       1.0  0.0681209766367914  0.9282006794129816  0.35484977497461767  1.0000
  H   H28       1.0  0.7130293602734878  0.5717182851146775  0.645237388409676  1.0000
  H   H29       1.0  0.03433911730827079  0.2850587603672992  0.7373527946510452  1.0000
  H   H30       1.0  0.2970834518560749  0.21493206754592356  0.2626177639820285  1.0000
  H   H31       1.0  0.9656626851502845  0.7149404601523985  0.2626482542808688  1.0000
  H   H32       1.0  0.702919671907999  0.7850681283607771  0.7373810913949372  1.0000
  C   C1        1.0  0.6286506376613088  0.6184280598396654  0.12630079608307196  1.0000
  C   C2        1.0  0.5018452435604245  0.8816101222265902  0.8737748040293243  1.0000
  C   C3        1.0  0.3713485230247213  0.38157215213418993  0.873700504191895  1.0000
  C   C4        1.0  0.498155243265465  0.11839206538485311  0.12622596803151256  1.0000
  C   C5        1.0  0.41442004978352986  0.5061196908141313  0.14576963562939235  1.0000
  C   C6        1.0  0.2680896507888803  0.9939442367706594  0.8542371747171561  1.0000
  C   C7        1.0  0.5855804240507112  0.493877543427324  0.8542302811913206  1.0000
  C   C8        1.0  0.7319108372792369  0.0060579561611149016  0.145764427506343  1.0000
  C   C9        1.0  0.8772885193163518  0.4705398229631472  0.2431052736661742  1.0000
  C   C10       1.0  0.6337005118361461  0.029468895001173206  0.756986074544365  1.0000
  C   C11       1.0  0.12271196045988829  0.5294593958184991  0.7568954833481885  1.0000
  C   C12       1.0  0.3662973224408716  0.9705312992736527  0.24301244332504984  1.0000
  C   C13       1.0  0.9409481528522361  0.4849920201908591  0.37541043098007537  1.0000
  C   C14       1.0  0.5653996277925514  0.014994890973106608  0.6246025617147029  1.0000
  C   C15       1.0  0.05905496869653598  0.5150062071366224  0.6245900746912414  1.0000
  C   C16       1.0  0.4345995268169033  0.9850043154298336  0.3753962430567698  1.0000
  C   C17       1.0  0.8707691770795304  0.2484551875400741  0.39670334220539166  1.0000
  C   C18       1.0  0.4737791948673402  0.2515040461392886  0.6032496521373505  1.0000
  C   C19       1.0  0.1292299811220374  0.7515450137931269  0.603296297744244  1.0000
  C   C20       1.0  0.5262146691473999  0.7484941743421701  0.3967496402737468  1.0000
  C   C21       1.0  0.8706352313880641  0.14209489725769234  0.46642354816541615  1.0000
  C   C22       1.0  0.4041052915899499  0.3579050904591414  0.533544742270074  1.0000
  C   C23       1.0  0.12936657342037708  0.8579053128719353  0.5335775057819918  1.0000
  C   C24       1.0  0.5958938666116179  0.6420951108740599  0.46645489767955445  1.0000
  C   C25       1.0  0.9319617708663654  0.15695569506017656  0.5904937718529909  1.0000
  C   C26       1.0  0.3416205771563766  0.34310562095281943  0.4094523854748859  1.0000
  C   C27       1.0  0.06804267695683557  0.8430435289356167  0.40950786091404023  1.0000
  C   C28       1.0  0.6583799037275141  0.6568945821184331  0.5905475463923013  1.0000
  C   C29       1.0  0.990622284424489  0.2775437617584943  0.6417599353869293  1.0000
  C   C30       1.0  0.34897847694909956  0.22250120383108662  0.3582135527739754  1.0000
  C   C31       1.0  0.009384807521136898  0.7224554603930715  0.3582414510525426  1.0000
  C   C32       1.0  0.6510180371300577  0.7774989993463424  0.6417863335032197  1.0000
  C   C33       1.0  0.9343354879013643  0.3755255883674807  0.44582360067568066  1.0000
  C   C34       1.0  0.4884198374135379  0.12444580391191815  0.5541638550771781  1.0000
  C   C35       1.0  0.06566499311710318  0.6244736357344892  0.5541779865013441  1.0000
  C   C36       1.0  0.5115766743157336  0.8755534096555739  0.44583602618452295  1.0000
  C   C37       1.0  0.004696764194996198  0.6091816017844495  0.42721396633223224  1.0000
  C   C38       1.0  0.5774252102312828  0.8908023997356982  0.5727997472383637  1.0000
  C   C39       1.0  0.995306357353776  0.39081662554303176  0.5727865393390844  1.0000
  C   C40       1.0  0.42257262404573476  0.10919779453912072  0.4271987706310442  1.0000
  I   I1        1.0  0.9774933622891948  0.7499700636047424  0.9997412919166497  1.0000
  I   I2        1.0  0.022508455376318195  0.25003607886414875  0.0002589619610375991  1.0000
  N   N1        1.0  0.45182876858565624  0.6190416500400744  0.09636270946290187  1.0000
  N   N2        1.0  0.35500137984663366  0.8810805435828968  0.9037206661350441  1.0000
  N   N3        1.0  0.548170383673913  0.38095656675293565  0.9036360902930841  1.0000
  N   N4        1.0  0.6450004309037993  0.11892165108691442  0.09628122800601353  1.0000
  N   N5        1.0  0.6918473855675272  0.51011236188608  0.189601620202872  1.0000
  N   N6        1.0  0.5016425000068594  0.9898246553141805  0.8103446491821135  1.0000
  N   N7        1.0  0.30815309655859113  0.4898878465054965  0.8103991418269846  1.0000
  N   N8        1.0  0.4983579844691447  0.010176542687325702  0.18965611786322972  1.0000
  N   N9        1.0  0.5571718823326107  0.4370003554323605  0.20324034055672519  1.0000
  N   N10       1.0  0.3533215170711939  0.06296669861566073  0.79669015853618  1.0000
  N   N11       1.0  0.4428272675770798  0.5629968717507126  0.7967584541837669  1.0000
  N   N12       1.0  0.6466789685124608  0.9370354836754587  0.20330978336198774  1.0000
