data_image0
_chemical_formula_structural       MnH16C20N6O10
_chemical_formula_sum              "Mn1 H16 C20 N6 O10"
_cell_length_a       6.2942320024918645
_cell_length_b       7.239618263453089
_cell_length_c       11.009580117485807
_cell_angle_alpha    87.00977421329029
_cell_angle_beta     84.8335084109601
_cell_angle_gamma    87.91122951529114

_space_group_name_H-M_alt    "P 1"
_space_group_IT_number       1

loop_
  _space_group_symop_operation_xyz
  'x, y, z'

loop_
  _atom_site_type_symbol
  _atom_site_label
  _atom_site_symmetry_multiplicity
  _atom_site_fract_x
  _atom_site_fract_y
  _atom_site_fract_z
  _atom_site_occupancy
  Mn  Mn1       1.0  1.05364878564e-05  6.1630645689e-06  1.916260181600001e-06  1.0000
  H   H1        1.0  0.33551569528916764  0.7902954619178078  0.0401398377244107  1.0000
  H   H2        1.0  0.6644998262651708  0.20970689477518792  0.9598611109205994  1.0000
  H   H3        1.0  0.38511685756731845  0.9713894498651643  0.10972419482411776  1.0000
  H   H4        1.0  0.6149065084828322  0.02861576210602124  0.8902744561467134  1.0000
  H   H5        1.0  0.6642530449157036  0.8025391228171942  0.7021419755887027  1.0000
  H   H6        1.0  0.3357382770785761  0.19744950720543397  0.2978562608416767  1.0000
  H   H7        1.0  0.7668292261469246  0.6899372584271221  0.41358567168776994  1.0000
  H   H8        1.0  0.23314646414032575  0.31006021840676123  0.5864233451635885  1.0000
  H   H9        1.0  0.7228153490665506  0.18639400447491997  0.6369017587175565  1.0000
  H   H10       1.0  0.27716033402010953  0.8135912356787077  0.3630963433776345  1.0000
  H   H11       1.0  0.7109568520316358  0.008079354759331626  0.4506439410809764  1.0000
  H   H12       1.0  0.2890409374345139  0.9919129291417904  0.5493465196860117  1.0000
  H   H13       1.0  0.9714288576268332  0.7694104889898201  0.24522318024073544  1.0000
  H   H14       1.0  0.02854985031488866  0.2306056179233097  0.7547897947913359  1.0000
  H   H15       1.0  0.7297476551120782  0.6206085708902763  0.9205547628878397  1.0000
  H   H16       1.0  0.270294748798463  0.37939978785829015  0.07944028519538902  1.0000
  C   C1        1.0  0.7183568618419541  0.13822730741658526  0.21561323080766218  1.0000
  C   C2        1.0  0.28164740429196655  0.8617796627642209  0.7843822810067139  1.0000
  C   C3        1.0  0.7404860881295645  0.24689168033142297  0.3258029061972679  1.0000
  C   C4        1.0  0.2595074252180041  0.7531094782678597  0.6741943124542616  1.0000
  C   C5        1.0  0.7640870007330633  0.4393418513011796  0.3155977192615964  1.0000
  C   C6        1.0  0.23590300351718702  0.5606609304103145  0.684403136206804  1.0000
  C   C7        1.0  0.7630107661375404  0.5398433190406566  0.4205754705651686  1.0000
  C   C8        1.0  0.23697007864879538  0.4601525010059576  0.5794289466322626  1.0000
  C   C9        1.0  0.7491932975893364  0.4496240353003104  0.5359057073881532  1.0000
  C   C10       1.0  0.2507836503814147  0.5503629905526425  0.4640958603357178  1.0000
  C   C11       1.0  0.7363111204438578  0.25628081156226307  0.5465070963141587  1.0000
  C   C12       1.0  0.2636770188961535  0.7437077100689466  0.4534912542416763  1.0000
  C   C13       1.0  0.7289919506869038  0.15755942810070422  0.4420260787370155  1.0000
  C   C14       1.0  0.2710038669344357  0.8424346209790985  0.5579688675584437  1.0000
  C   C15       1.0  0.7320371945773086  0.5563438632192332  0.648429485857527  1.0000
  C   C16       1.0  0.2679479323135183  0.4436394692920446  0.35157390931916427  1.0000
  C   C17       1.0  0.8867120090178275  0.7018727186641913  0.17991711241683822  1.0000
  C   C18       1.0  0.11328502262295356  0.2981378492240766  0.8200892961286005  1.0000
  C   C19       1.0  0.7664736583810023  0.6220673335403577  0.015265938427411594  1.0000
  C   C20       1.0  0.23355744401571593  0.3779409094505298  0.9847322264179187  1.0000
  N   N1        1.0  0.8748854914833544  0.759316031299413  0.06339210898386231  1.0000
  N   N2        1.0  0.12513069015767533  0.24069509906659198  0.9366127090345064  1.0000
  N   N3        1.0  0.788564532408749  0.5387837559888099  0.2011621367030686  1.0000
  N   N4        1.0  0.21143617254853808  0.46122372089590163  0.7988398296571052  1.0000
  N   N5        1.0  0.7119473817924273  0.485939054225895  0.09597634210255286  1.0000
  N   N6        1.0  0.2880727976128483  0.5140684579119893  0.9040185990845375  1.0000
  O   O1        1.0  0.8938564935623391  0.10521110614150332  0.15249795549475212  1.0000
  O   O2        1.0  0.10615502025122936  0.8948008901749135  0.8475033102085237  1.0000
  O   O3        1.0  0.5306117077333922  0.0911059894709325  0.1977036809848088  1.0000
  O   O4        1.0  0.46939589729276315  0.9089044383261894  0.8022832635172963  1.0000
  O   O5        1.0  0.2700230789269753  0.8971272928731866  0.08112302090904681  1.0000
  O   O6        1.0  0.7299984715163248  0.10288303350156985  0.9188716624034544  1.0000
  O   O7        1.0  0.7121697552981344  0.4811355827595919  0.751519427351447  1.0000
  O   O8        1.0  0.2878120247192513  0.5188491092516048  0.2484848873191084  1.0000
  O   O9        1.0  0.7331154379488182  0.7410580957296276  0.6273918529468008  1.0000
  O   O10       1.0  0.26687303382015404  0.2589250815607755  0.37260871078142815  1.0000
