data_image0
_chemical_formula_structural       Hg2H32C44Br4N8
_chemical_formula_sum              "Hg2 H32 C44 Br4 N8"
_cell_length_a       5.0777472040123115
_cell_length_b       13.354766455485615
_cell_length_c       15.64710917858481
_cell_angle_alpha    95.93070208505283
_cell_angle_beta     89.99987698125771
_cell_angle_gamma    89.99979107863732

_space_group_name_H-M_alt    "P 1"
_space_group_IT_number       1

loop_
  _space_group_symop_operation_xyz
  'x, y, z'

loop_
  _atom_site_type_symbol
  _atom_site_label
  _atom_site_symmetry_multiplicity
  _atom_site_fract_x
  _atom_site_fract_y
  _atom_site_fract_z
  _atom_site_occupancy
  Hg  Hg1       1.0  0.5318551096867453  1.4288396883000413e-06  0.2500041525025907  1.0000
  Hg  Hg2       1.0  0.4681451567660915  0.9999972663278957  0.7499989384050352  1.0000
  H   H1        1.0  0.7652215739345891  0.03643217818873271  0.43980145654269615  1.0000
  H   H2        1.0  0.7652104567099088  0.9635677707275578  0.060197599144423505  1.0000
  H   H3        1.0  0.23478460065861384  0.9635665091348149  0.5601990772970424  1.0000
  H   H4        1.0  0.2347878403731869  0.0364331652717738  0.9397999325453198  1.0000
  H   H5        1.0  0.09503775468267152  0.13676350122773334  0.5315893018910742  1.0000
  H   H6        1.0  0.09503278461824753  0.8632371314989697  0.9684098880736371  1.0000
  H   H7        1.0  0.9049684199151642  0.8632359310793235  0.4684087396093943  1.0000
  H   H8        1.0  0.9049694512228897  0.13676230277091153  0.0315887926948193  1.0000
  H   H9        1.0  0.25819268871130424  0.30408794590503174  0.3156541769132559  1.0000
  H   H10       1.0  0.25818925375464363  0.6959112390004595  0.1843438894531317  1.0000
  H   H11       1.0  0.7417997002441865  0.6959129861787972  0.6843420762462029  1.0000
  H   H12       1.0  0.7418011658365131  0.3040859348485866  0.8156539578752628  1.0000
  H   H13       1.0  0.9158552074319175  0.19764019613997874  0.23275117403134965  1.0000
  H   H14       1.0  0.9158620070793192  0.8023595351836194  0.2672490357988053  1.0000
  H   H15       1.0  0.0841233958715648  0.8023599968502424  0.767249489272146  1.0000
  H   H16       1.0  0.08413235126254652  0.1976383914857253  0.7327488762541562  1.0000
  H   H17       1.0  0.3776327961354795  0.27637299015074757  0.5541938953132828  1.0000
  H   H18       1.0  0.37763720754667673  0.723628734633245  0.9458058300198928  1.0000
  H   H19       1.0  0.62236550094935  0.7236271949853049  0.4458042109166342  1.0000
  H   H20       1.0  0.6223650283060636  0.2763684411670368  0.05419265656999529  1.0000
  H   H21       1.0  0.7080052953965392  0.31142777785823483  0.6197466388796329  1.0000
  H   H22       1.0  0.708002603512405  0.6885712046247506  0.8802532587466914  1.0000
  H   H23       1.0  0.291996940450602  0.6885709016285235  0.38025133789627563  1.0000
  H   H24       1.0  0.2919996323125034  0.3114297431312139  0.1197481085396106  1.0000
  H   H25       1.0  0.042772524112095305  0.40748143729926783  0.7076912836417151  1.0000
  H   H26       1.0  0.0427674076987259  0.5925155101249189  0.7923082651152882  1.0000
  H   H27       1.0  0.9572277423650988  0.5925149876391773  0.2923077774891567  1.0000
  H   H28       1.0  0.9572269506427489  0.4074816676410721  0.2076908607442149  1.0000
  H   H29       1.0  0.2979206416085844  0.5441251001642159  0.6478944484325382  1.0000
  H   H30       1.0  0.2979203934042971  0.45587222685672674  0.8521055936322595  1.0000
  H   H31       1.0  0.7020835635992101  0.45587434390382253  0.35210742866692607  1.0000
  H   H32       1.0  0.7020739649449156  0.544123445262862  0.1478934027748551  1.0000
  C   C1        1.0  0.8795476567552641  0.09622156824318752  0.4148308901250175  1.0000
  C   C2        1.0  0.8795408928804704  0.9037782164788554  0.08516934969087228  1.0000
  C   C3        1.0  0.1204565484705071  0.9037756114754886  0.585168874996782  1.0000
  C   C4        1.0  0.12045937357952143  0.09622197061567313  0.9148293958045954  1.0000
  C   C5        1.0  0.061948420756778  0.15240121199518336  0.46543996559565665  1.0000
  C   C6        1.0  0.0619464757727428  0.8476012766894246  0.03455980025184862  1.0000
  C   C7        1.0  0.9380577538350751  0.8475989750950036  0.5345587798973668  1.0000
  C   C8        1.0  0.938053790683384  0.1523996632283087  0.9654390099698131  1.0000
  C   C9        1.0  0.20480876626174194  0.2282675323176947  0.4304482276366954  1.0000
  C   C10       1.0  0.20481323359324932  0.7717347443331448  0.06955078097811909  1.0000
  C   C11       1.0  0.7951875614440668  0.7717334036830864  0.5695493040538651  1.0000
  C   C12       1.0  0.7951850634933209  0.2282646899396283  0.9304478997919645  1.0000
  C   C13       1.0  0.152870579300405  0.24534229175110772  0.3449951558737183  1.0000
  C   C14       1.0  0.1528726769284674  0.7546600612740307  0.1550038956288518  1.0000
  C   C15       1.0  0.8471198402636945  0.7546601518603356  0.6550031445380284  1.0000
  C   C16       1.0  0.8471197120322459  0.24533861821996794  0.844994081151121  1.0000
  C   C17       1.0  0.9640575186616545  0.1867981111358291  0.2991172591501439  1.0000
  C   C18       1.0  0.9640567751679825  0.813202302137384  0.20088297560736376  1.0000
  C   C19       1.0  0.0359329009055358  0.8132020818457023  0.7008834041484773  1.0000
  C   C20       1.0  0.0359375831781392  0.18679562061212354  0.7991136579128764  1.0000
  C   C21       1.0  0.39449872204004793  0.28644528525600793  0.4854359254005232  1.0000
  C   C22       1.0  0.3944962403958458  0.7135559616069003  0.014563501125174102  1.0000
  C   C23       1.0  0.6055035137976149  0.7135556507404317  0.5145616062875931  1.0000
  C   C24       1.0  0.6055000873211753  0.28644196702092733  0.9854350501933452  1.0000
  C   C25       1.0  0.7526077076820031  0.3955589447376229  0.5099484492412003  1.0000
  C   C26       1.0  0.7526110128341587  0.6044407249785025  0.9900514762794117  1.0000
  C   C27       1.0  0.24739255878185418  0.6044404895337081  0.49005023152807325  1.0000
  C   C28       1.0  0.24738728425589332  0.3955572075677196  0.009948353571019208  1.0000
  C   C29       1.0  0.8096387387801726  0.3730105253282262  0.5930065815472148  1.0000
  C   C30       1.0  0.8096384365414977  0.6269890644490631  0.9069945754155454  1.0000
  C   C31       1.0  0.1903634970545909  0.6269889148214177  0.40699401702033805  1.0000
  C   C32       1.0  0.1903618299159788  0.37301037570203033  0.0930060231528245  1.0000
  C   C33       1.0  0.0037592822576329  0.4266510922791014  0.6427275737626061  1.0000
  C   C34       1.0  0.0037598296645811  0.5733466692510236  0.8572733504652704  1.0000
  C   C35       1.0  0.9962429535869859  0.5733468402642218  0.3572722560861976  1.0000
  C   C36       1.0  0.99623649805379  0.42664975961016455  0.1427269891999501  1.0000
  C   C37       1.0  0.1458692868265246  0.5025092279634223  0.6102212230176604  1.0000
  C   C38       1.0  0.14586641604220324  0.4974890735067846  0.8897783700610021  1.0000
  C   C39       1.0  0.8541368877666716  0.49748945936013206  0.3897793108220782  1.0000
  C   C40       1.0  0.8541259729219846  0.5025081042606561  0.1102207557993182  1.0000
  C   C41       1.0  0.900619938182679  0.4730911342194447  0.4743227944989384  1.0000
  C   C42       1.0  0.9006132853472053  0.5269071158302836  0.0256779377309257  1.0000
  C   C43       1.0  0.0993862364066516  0.5269083059273072  0.525677804066987  1.0000
  C   C44       1.0  0.09938304236943199  0.4730900638941835  0.974321827394121  1.0000
  Br  Br1       1.0  0.3993296867505692  0.10579357483872093  0.1304872990776147  1.0000
  Br  Br2       1.0  0.3992581120964331  0.8942544340859802  0.3695468212969146  1.0000
  Br  Br3       1.0  0.6007395075173605  0.8942616741345688  0.8695506917850578  1.0000
  Br  Br4       1.0  0.6007382156716118  0.10573520564694408  0.630448460968033  1.0000
  N   N1        1.0  0.8317884769871713  0.11306332644065982  0.33316297255288413  1.0000
  N   N2        1.0  0.8317813355913233  0.8869372813323936  0.1668373714254159  1.0000
  N   N3        1.0  0.1682098200930255  0.8869361137118832  0.6668376260162957  1.0000
  N   N4        1.0  0.16821499211796723  0.11306215294183633  0.8331613093454848  1.0000
  N   N5        1.0  0.5669667563526559  0.34420272367480464  0.455613717534625  1.0000
  N   N6        1.0  0.5669725149703027  0.6557982734961103  0.04438684510884632  1.0000
  N   N7        1.0  0.43303154072405914  0.6557982182042966  0.5443857319542147  1.0000
  N   N8        1.0  0.43302578212187376  0.34419965709018635  0.9556123454752168  1.0000
