data_image0
_chemical_formula_structural       Dy2H12C12O18
_chemical_formula_sum              "Dy2 H12 C12 O18"
_cell_length_a       8.240232953298543
_cell_length_b       8.527385291531685
_cell_length_c       8.90676857269679
_cell_angle_alpha    93.57217010852992
_cell_angle_beta     116.84730615945885
_cell_angle_gamma    112.17303526616392

_space_group_name_H-M_alt    "P 1"
_space_group_IT_number       1

loop_
  _space_group_symop_operation_xyz
  'x, y, z'

loop_
  _atom_site_type_symbol
  _atom_site_label
  _atom_site_symmetry_multiplicity
  _atom_site_fract_x
  _atom_site_fract_y
  _atom_site_fract_z
  _atom_site_occupancy
  Dy  Dy1       1.0  0.08978588099521555  0.519237922799043  0.7725349126407011  1.0000
  Dy  Dy2       1.0  0.9102105662043131  0.4807587296544328  0.22746301790858334  1.0000
  H   H1        1.0  0.1631590801511678  0.22761556409103895  0.9044943087550124  1.0000
  H   H2        1.0  0.8368367041637939  0.7723771611206232  0.09550194673455785  1.0000
  H   H3        1.0  0.35777545414550366  0.40074783776385914  0.062430226828951184  1.0000
  H   H4        1.0  0.6422223419474592  0.599248869590113  0.9375648918007543  1.0000
  H   H5        1.0  0.20392484365682853  0.8004199507981085  0.6136701079418144  1.0000
  H   H6        1.0  0.7960708190143961  0.19958332194686076  0.3863201143380834  1.0000
  H   H7        1.0  0.9748775578178267  0.823078405143562  0.7959740103472582  1.0000
  H   H8        1.0  0.0251202329568088  0.17692089817437312  0.20402353727601505  1.0000
  H   H9        1.0  0.9064253533654846  0.6934906817272122  0.903153630527697  1.0000
  H   H10       1.0  0.09357586607177378  0.30650737317562  0.09684410986267267  1.0000
  H   H11       1.0  0.30758287408384866  0.9047548161632262  0.8128276805806535  1.0000
  H   H12       1.0  0.6924245023311497  0.09524463763322899  0.1871726824397726  1.0000
  C   C1        1.0  0.343438710993503  0.7186516222301195  0.19034529551252882  1.0000
  C   C2        1.0  0.6565604270581957  0.28135550049769614  0.8096589770552994  1.0000
  C   C3        1.0  0.33313772284614623  0.5051371986559232  0.6124315760763892  1.0000
  C   C4        1.0  0.6668628427268499  0.4948595015865678  0.38756916813126435  1.0000
  C   C5        1.0  0.8943998418922803  0.0626096439034214  0.6225473485755088  1.0000
  C   C6        1.0  0.10560691303767554  0.9373935770131254  0.37746762589961236  1.0000
  C   C7        1.0  0.5339546124568385  0.8312023720303614  0.35134473552918166  1.0000
  C   C8        1.0  0.466045240280998  0.16880083159114895  0.6486595498262062  1.0000
  C   C9        1.0  0.4539062422264377  0.5020101782600647  0.5366697827137372  1.0000
  C   C10       1.0  0.5461085954274905  0.4979985639873804  0.4633331782310321  1.0000
  C   C11       1.0  0.6995372463769415  0.9273941430679429  0.48102455391443033  1.0000
  C   C12       1.0  0.3004701337400205  0.0726104792739406  0.5189829169765616  1.0000
  O   O1        1.0  0.3979938640349658  0.5166099753918801  0.7740286345686798  1.0000
  O   O2        1.0  0.6020149436032866  0.4833842244646718  0.2259753079621305  1.0000
  O   O3        1.0  0.20864542236547834  0.3487809811019958  0.9731499746808439  1.0000
  O   O4        1.0  0.7913524005537622  0.6512130952142671  0.02684608978042029  1.0000
  O   O5        1.0  0.3556229450548257  0.708686990691703  0.053257715344528736  1.0000
  O   O6        1.0  0.6443673148733282  0.29131607414252875  0.946742629671995  1.0000
  O   O7        1.0  0.2709460485236264  0.7947396322477829  0.7376121299946945  1.0000
  O   O8        1.0  0.7290400893290965  0.20525821625201252  0.2623782934928869  1.0000
  O   O9        1.0  0.9388683281876522  0.21727146435027583  0.600332953812824  1.0000
  O   O10       1.0  0.06113911992049751  0.7827278725337055  0.3996786586247225  1.0000
  O   O11       1.0  0.9745242561165667  0.715770565492356  0.8331773889975055  1.0000
  O   O12       1.0  0.02547148703349218  0.28422481413950607  0.16681567077708337  1.0000
  O   O13       1.0  0.1828845368947755  0.6403138854457782  0.1964954741794642  1.0000
  O   O14       1.0  0.817113248561526  0.35968801383611293  0.8035045024373774  1.0000
  O   O15       1.0  0.005964078531171398  0.0259286535476662  0.7537098557698556  1.0000
  O   O16       1.0  0.9940386063595453  0.9740718534684164  0.24630662570360323  1.0000
  O   O17       1.0  0.15778147307169382  0.49555447997515506  0.5129843965988812  1.0000
  O   O18       1.0  0.8422183812825138  0.5044409591369643  0.4870103518923584  1.0000
