data_image0
_chemical_formula_structural       Na2Zn2H28C22N2O18
_chemical_formula_sum              "Na2 Zn2 H28 C22 N2 O18"
_cell_length_a       7.904205739695021
_cell_length_b       8.481972329587608
_cell_length_c       11.437953195842745
_cell_angle_alpha    98.99785152339383
_cell_angle_beta     97.28550022383337
_cell_angle_gamma    94.7968652940442

_space_group_name_H-M_alt    "P 1"
_space_group_IT_number       1

loop_
  _space_group_symop_operation_xyz
  'x, y, z'

loop_
  _atom_site_type_symbol
  _atom_site_label
  _atom_site_symmetry_multiplicity
  _atom_site_fract_x
  _atom_site_fract_y
  _atom_site_fract_z
  _atom_site_occupancy
  Na  Na1       1.0  0.714087201803011  0.4749847207989221  0.5365870878466481  1.0000
  Na  Na2       1.0  0.2859009538884365  0.5250142186782654  0.46341038106515964  1.0000
  Zn  Zn1       1.0  0.818427201346566  0.1271729419525158  0.6548704294158726  1.0000
  Zn  Zn2       1.0  0.18157873442424943  0.8728013737998098  0.3451323649946404  1.0000
  H   H1        1.0  0.3752534759133824  0.2069303233396909  0.8212329950237205  1.0000
  H   H2        1.0  0.6247588699572975  0.7930845687599233  0.17876748130348835  1.0000
  H   H3        1.0  0.35828378476085726  0.1536049840235094  0.6638570212108875  1.0000
  H   H4        1.0  0.6417058462435253  0.8464052613040991  0.33616008642864875  1.0000
  H   H5        1.0  0.3495387703800219  0.9093994721286264  0.6274607862401211  1.0000
  H   H6        1.0  0.6504418365051166  0.09059273092702111  0.372543165298545  1.0000
  H   H7        1.0  0.4474614075460224  0.7924177245267927  0.7245052095566323  1.0000
  H   H8        1.0  0.5525479195528363  0.20757807857233254  0.27549656376397286  1.0000
  H   H9        1.0  0.611832700117276  0.2721842744357303  0.9517295848506252  1.0000
  H   H10       1.0  0.38817786919656083  0.7278184059500604  0.0482616274611161  1.0000
  H   H11       1.0  0.7747151805542958  0.24923953847584815  0.14300775101475696  1.0000
  H   H12       1.0  0.22529088885048767  0.7507600297662339  0.85699496772002  1.0000
  H   H13       1.0  0.8504142772523766  0.7619794023812435  0.008797565670747126  1.0000
  H   H14       1.0  0.14960902979039764  0.23802267852203585  0.9911904146856759  1.0000
  H   H15       1.0  0.6802169836961411  0.7777928417690987  0.8163596354505958  1.0000
  H   H16       1.0  0.31980594120992134  0.22220686523036193  0.18362894505766295  1.0000
  H   H17       1.0  0.9482737070749965  0.16286795257148162  0.44758637748424235  1.0000
  H   H18       1.0  0.051717667988611986  0.8371273195326481  0.5524136502347404  1.0000
  H   H19       1.0  0.0431664130060341  0.2924428119834559  0.5617444811682405  1.0000
  H   H20       1.0  0.9568149409653447  0.7075610394510436  0.43824671817040445  1.0000
  H   H21       1.0  0.9704838896339825  0.7143368164448772  0.7199590223448811  1.0000
  H   H22       1.0  0.02951212993711751  0.285671404455016  0.2800374961755666  1.0000
  H   H23       1.0  0.8709995225994903  0.5578404116157502  0.7601038676684624  1.0000
  H   H24       1.0  0.1290004101960776  0.44217760052507776  0.2399044967942245  1.0000
  H   H25       1.0  0.9020777044570495  0.4929190441913534  0.33235564005890694  1.0000
  H   H26       1.0  0.09790300445563822  0.5070814297060127  0.6676430299225091  1.0000
  H   H27       1.0  0.7134290956284561  0.5559434317425485  0.31472034888541606  1.0000
  H   H28       1.0  0.28655747403323056  0.4440461587742135  0.6852847769657658  1.0000
  C   C1        1.0  0.5592200772817437  0.33368529621933624  0.7386181680586648  1.0000
  C   C2        1.0  0.440779900551263  0.6663155387336062  0.26137798207984997  1.0000
  C   C3        1.0  0.4497996618135218  0.17971955381919003  0.7469935478136095  1.0000
  C   C4        1.0  0.550200627735066  0.820292365843912  0.2530124896118195  1.0000
  C   C5        1.0  0.5828784450863297  0.8333729116533491  0.5798456175181033  1.0000
  C   C6        1.0  0.4171077486613656  0.1666228202261024  0.42016358748100663  1.0000
  C   C7        1.0  0.47365261507297884  0.8915629495186652  0.6758018196116568  1.0000
  C   C8        1.0  0.5263306968946182  0.1084304061410748  0.32420425165369693  1.0000
  C   C9        1.0  0.6330785310701686  0.027183603000516098  0.867472304367155  1.0000
  C   C10       1.0  0.3669232649993646  0.9728208061873431  0.13252525051405675  1.0000
  C   C11       1.0  0.6628124433098393  0.15922230843096946  0.9620531203064857  1.0000
  C   C12       1.0  0.33720395465379494  0.8407781016106526  0.03795153109244611  1.0000
  C   C13       1.0  0.7557854077232022  0.14647216035503163  0.07072336260373652  1.0000
  C   C14       1.0  0.2442414571749936  0.8535304128716703  0.929287739687773  1.0000
  C   C15       1.0  0.8251914985144284  0.003914906864345393  0.08932464956994583  1.0000
  C   C16       1.0  0.17481692455130834  0.9960902184368124  0.9106648568703549  1.0000
  C   C17       1.0  0.7964686938950792  0.8728407576098505  0.9950123060323223  1.0000
  C   C18       1.0  0.20354786693675217  0.12715923690962683  0.004977452425933404  1.0000
  C   C19       1.0  0.7018073998826395  0.8830738538125544  0.8864283591772307  1.0000
  C   C20       1.0  0.2981986920408631  0.11691712583558461  0.11356825239546003  1.0000
  C   C21       1.0  0.9287428316244759  0.9921381321635112  0.20396803493050444  1.0000
  C   C22       1.0  0.07126482519405641  0.0078553936437515  0.7960359758204802  1.0000
  N   N1        1.0  0.5409844370248892  0.039156119932165695  0.7572525289717049  1.0000
  N   N2        1.0  0.4590183363638688  0.9608473112227998  0.24275463939856934  1.0000
  O   O1        1.0  0.49379876012972806  0.46326538689296387  0.7570361655982297  1.0000
  O   O2        1.0  0.5061905323913934  0.5367406987381643  0.2429603789133878  1.0000
  O   O3        1.0  0.7115967111807323  0.32557165677844324  0.7098828277250463  1.0000
  O   O4        1.0  0.28841477372048985  0.6744285286490809  0.29010647140466983  1.0000
  O   O5        1.0  0.7049033872448122  0.9278697074681832  0.5557138518993767  1.0000
  O   O6        1.0  0.29511387643002246  0.07212147814131241  0.4443065706011994  1.0000
  O   O7        1.0  0.5413654404195328  0.6930472577304345  0.52411370758405  1.0000
  O   O8        1.0  0.45862578333012755  0.3069552571396131  0.47588703301327234  1.0000
  O   O9        1.0  0.9484387280660728  0.10973081531903972  0.2908948315047795  1.0000
  O   O10       1.0  0.051564572550624584  0.8902592317073257  0.7091075448392276  1.0000
  O   O11       1.0  0.996631985306017  0.8606860644845256  0.21152292076434523  1.0000
  O   O12       1.0  0.0033558519543320045  0.13931886970046042  0.7884733709633949  1.0000
  O   O13       1.0  0.9316508895627609  0.22448876483067434  0.525847002928778  1.0000
  O   O14       1.0  0.06833326332213123  0.7755091430968691  0.4741508595902105  1.0000
  O   O15       1.0  0.9277219497215939  0.5971185748415876  0.6978598303363768  1.0000
  O   O16       1.0  0.0722778001536071  0.4028896984171056  0.30214404112314963  1.0000
  O   O17       1.0  0.8186768657142808  0.5563671574133907  0.3731310019169457  1.0000
  O   O18       1.0  0.18130610243852635  0.4436237265726035  0.6268721652789112  1.0000
