data_image0
_chemical_formula_structural       Cu2H16C20Br4N4
_chemical_formula_sum              "Cu2 H16 C20 Br4 N4"
_cell_length_a       7.8229644390985165
_cell_length_b       9.313134860798035
_cell_length_c       8.993071286014745
_cell_angle_alpha    121.15341143643792
_cell_angle_beta     106.54096546944817
_cell_angle_gamma    90.03434617474338

_space_group_name_H-M_alt    "P 1"
_space_group_IT_number       1

loop_
  _space_group_symop_operation_xyz
  'x, y, z'

loop_
  _atom_site_type_symbol
  _atom_site_label
  _atom_site_symmetry_multiplicity
  _atom_site_fract_x
  _atom_site_fract_y
  _atom_site_fract_z
  _atom_site_occupancy
  Cu  Cu1       1.0  0.7499069568718821  0.9308663179966034  6.131032775151506e-05  1.0000
  Cu  Cu2       1.0  0.25009154314899007  0.06913744954680108  0.9999407386379525  1.0000
  H   H1        1.0  0.09379554435048476  0.05066479842862748  0.3358457841149869  1.0000
  H   H2        1.0  0.4062224806574548  0.7149106816137659  0.6640763882142121  1.0000
  H   H3        1.0  0.9062097443368414  0.9493329994754378  0.6641393918091151  1.0000
  H   H4        1.0  0.5937789617547437  0.28508788860364825  0.33592268998761177  1.0000
  H   H5        1.0  0.2589410347979708  0.9195672587488986  0.5084366668433016  1.0000
  H   H6        1.0  0.24103524350043407  0.41120029151910137  0.4912742092769234  1.0000
  H   H7        1.0  0.7410843487820955  0.08043097634665487  0.49154145406737354  1.0000
  H   H8        1.0  0.7589590612391389  0.5888025259870205  0.5087318944626843  1.0000
  H   H9        1.0  0.1300497886829106  0.621050792603512  0.3998583358877495  1.0000
  H   H10       1.0  0.36977128231077216  0.22118368344151657  0.5997252028286152  1.0000
  H   H11       1.0  0.8699831375010446  0.378945197598263  0.6001283253445632  1.0000
  H   H12       1.0  0.6302158847561755  0.7788233813533196  0.40028792644876854  1.0000
  H   H13       1.0  0.8590667507283597  0.4620149173003015  0.12075028276650099  1.0000
  H   H14       1.0  0.6407079835877949  0.3411311376965074  0.8788662462728278  1.0000
  H   H15       1.0  0.14094132273943674  0.5379900213938102  0.8792547170432736  1.0000
  H   H16       1.0  0.3592691251602602  0.6588789295727298  0.12115256677623876  1.0000
  C   C1        1.0  0.04696042682789433  0.9211543719692374  0.29460786890580676  1.0000
  C   C2        1.0  0.45297086128528  0.6266350383102692  0.7052979738921576  1.0000
  C   C3        1.0  0.9530434059935259  0.07884283849413258  0.705390011121217  1.0000
  C   C4        1.0  0.5470311231739658  0.3733727466423673  0.2947113877938675  1.0000
  C   C5        1.0  0.1365394298437934  0.8476619438313548  0.38881421201006794  1.0000
  C   C6        1.0  0.36338009568744684  0.458893420070865  0.6109317244369662  1.0000
  C   C7        1.0  0.8634759619025016  0.1523330756337486  0.611169854826805  1.0000
  C   C8        1.0  0.6366080976735446  0.5411121316760656  0.3890764538366579  1.0000
  C   C9        1.0  0.06665162512107507  0.6816998795058068  0.3274611622446881  1.0000
  C   C10       1.0  0.43319158188482715  0.35424656500288165  0.6722130753708907  1.0000
  C   C11       1.0  0.9333609690141669  0.3182945112424562  0.6725341432083947  1.0000
  C   C12       1.0  0.5668016971856957  0.6457643197091585  0.32780457924466305  1.0000
  C   C13       1.0  0.9129952016421468  0.5928486545138513  0.17127685925492375  1.0000
  C   C14       1.0  0.5868084943734074  0.42146462973241927  0.8283884363762293  1.0000
  C   C15       1.0  0.0870069634229864  0.4071534584984846  0.828718594995983  1.0000
  C   C16       1.0  0.4131704739218448  0.5785349190564091  0.17162003868494918  1.0000
  C   C17       1.0  0.8304455735121576  0.673983499815101  0.08286181741564046  1.0000
  C   C18       1.0  0.669358683920258  0.5910640220168377  0.9169630720895795  1.0000
  C   C19       1.0  0.16955089566568657  0.3260168516838178  0.9171458210276238  1.0000
  C   C20       1.0  0.33063086237089573  0.4089416270150893  0.08304771534187685  1.0000
  Br  Br1       1.0  0.9343002385242511  0.21372648059579555  0.19798812786036987  1.0000
  Br  Br2       1.0  0.5656073652231014  0.015846184679297378  0.8020557770762975  1.0000
  Br  Br3       1.0  0.06568095075936506  0.7862774363881544  0.80203420013224  1.0000
  Br  Br4       1.0  0.4344117238725289  0.9841342399652859  0.19791192631475935  1.0000
  N   N1        1.0  0.8961881416362798  0.837708656916327  0.1472322232890234  1.0000
  N   N2        1.0  0.6036657508761323  0.690499982142036  0.8527057672658097  1.0000
  N   N3        1.0  0.10380876829844958  0.162293851080058  0.8527688057261852  1.0000
  N   N4        1.0  0.3963301992496895  0.3094978207973965  0.14730047490767345  1.0000
