data_image0
_chemical_formula_structural       Li8H64C32Br8O8
_chemical_formula_sum              "Li8 H64 C32 Br8 O8"
_cell_length_a       7.609903721058078
_cell_length_b       11.469007424026316
_cell_length_c       14.342987368075061
_cell_angle_alpha    90.0000408317538
_cell_angle_beta     90.00036913653261
_cell_angle_gamma    90.00024720590844

_space_group_name_H-M_alt    "P 1"
_space_group_IT_number       1

loop_
  _space_group_symop_operation_xyz
  'x, y, z'

loop_
  _atom_site_type_symbol
  _atom_site_label
  _atom_site_symmetry_multiplicity
  _atom_site_fract_x
  _atom_site_fract_y
  _atom_site_fract_z
  _atom_site_occupancy
  Li  Li1       1.0  0.5896033950354466  0.9136531460717523  0.9308986900707766  1.0000
  Li  Li2       1.0  0.08960171883600758  0.586346682889122  0.5690986366238348  1.0000
  Li  Li3       1.0  0.4103828636224449  0.5863470887678729  0.4308957595109674  1.0000
  Li  Li4       1.0  0.9103932961039688  0.913659327419886  0.0691010879903118  1.0000
  Li  Li5       1.0  0.4103961618567595  0.08634637655416097  0.0691013944295591  1.0000
  Li  Li6       1.0  0.9103978380617477  0.41365458356685986  0.4309014478769909  1.0000
  Li  Li7       1.0  0.5896166932669755  0.4136515619430055  0.5691043249891266  1.0000
  Li  Li8       1.0  0.08960626079100818  0.0863410671210545  0.9308989965102655  1.0000
  H   H1        1.0  0.3832010182241702  0.7619282098532096  0.745740911485143  1.0000
  H   H2        1.0  0.8832033775196634  0.7380707329095768  0.7542588152235936  1.0000
  H   H3        1.0  0.6167935091962988  0.738070985249813  0.2457408644864216  1.0000
  H   H4        1.0  0.116795195320833  0.7619267260879284  0.2542535830182898  1.0000
  H   H5        1.0  0.6167972245909608  0.2380713127707779  0.2542591730129402  1.0000
  H   H6        1.0  0.1167948653024666  0.2619296616297575  0.2457419664795566  1.0000
  H   H7        1.0  0.3832073617772024  0.26192853737833127  0.7542599172209918  1.0000
  H   H8        1.0  0.8832069897198378  0.23807366845622369  0.7457451070771413  1.0000
  H   H9        1.0  0.2600583175625245  0.8475021686700329  0.8287987353841118  1.0000
  H   H10       1.0  0.7600578111137606  0.6524964143778149  0.6712012667498115  1.0000
  H   H11       1.0  0.7399372164103253  0.6524979736365211  0.32879836502427645  1.0000
  H   H12       1.0  0.23994106927388967  0.847501841249411  0.17119859587729278  1.0000
  H   H13       1.0  0.7399399252553848  0.1524982258689889  0.17120134911421303  1.0000
  H   H14       1.0  0.239940431712597  0.3475039801618395  0.328800212158164  1.0000
  H   H15       1.0  0.2600623404791023  0.34750067707435756  0.6712017194758175  1.0000
  H   H16       1.0  0.7600571735383496  0.15249942520402018  0.8288000942116227  1.0000
  H   H17       1.0  0.16545040015908088  0.6205765356390246  0.7931790124974825  1.0000
  H   H18       1.0  0.6654530849879167  0.8794217710548081  0.7068199683965162  1.0000
  H   H19       1.0  0.8345447021509853  0.8794218305501074  0.2931797904905622  1.0000
  H   H20       1.0  0.3345396566323656  0.6205721572731091  0.2068140084090118  1.0000
  H   H21       1.0  0.8345478426448236  0.3794221150693033  0.2068196775907012  1.0000
  H   H22       1.0  0.33454384375014706  0.12057775156726078  0.2931801160993146  1.0000
  H   H23       1.0  0.1654548547384351  0.12057682016077109  0.7068202940095247  1.0000
  H   H24       1.0  0.6654625284138619  0.37942998110111137  0.7931846816869026  1.0000
  H   H25       1.0  0.16330670562262375  0.6746039285793087  0.909885534048712  1.0000
  H   H26       1.0  0.6633089460355419  0.8253934999369151  0.5901134395019412  1.0000
  H   H27       1.0  0.8366898110140323  0.8253936714846404  0.4098862891237403  1.0000
  H   H28       1.0  0.33667975313200327  0.6746046821737506  0.0901103059349637  1.0000
  H   H29       1.0  0.8366889090299094  0.32539559404021656  0.0901131560352226  1.0000
  H   H30       1.0  0.3366906108496578  0.17460515077364394  0.4098859477933274  1.0000
  H   H31       1.0  0.16331237402675916  0.17460410731504078  0.5901137953806028  1.0000
  H   H32       1.0  0.6633237459912988  0.3253974562023886  0.9098883841632031  1.0000
  H   H33       1.0  0.3707846469899678  0.5165713852119894  0.9313214074532894  1.0000
  H   H34       1.0  0.8707850061652777  0.9834275212782089  0.5686775795200205  1.0000
  H   H35       1.0  0.6292147575856575  0.9834279781169855  0.431322934832572  1.0000
  H   H36       1.0  0.12919817688213436  0.5165750009653535  0.0686659775476031  1.0000
  H   H37       1.0  0.6292135958349406  0.48342988124237973  0.0686793742501024  1.0000
  H   H38       1.0  0.12921192256855818  0.016572001343547492  0.4313218077709848  1.0000
  H   H39       1.0  0.3707861133907429  0.0165698006817223  0.5686792412839949  1.0000
  H   H40       1.0  0.8708040081655425  0.4834262654941525  0.9313334097528952  1.0000
  H   H41       1.0  0.4388163509504608  0.5237124150789043  0.8129988950847675  1.0000
  H   H42       1.0  0.9388207267083644  0.9762875620590138  0.6870003249103221  1.0000
  H   H43       1.0  0.5611803056334635  0.9762868409933532  0.3130001854447784  1.0000
  H   H44       1.0  0.0611691465647368  0.5237159393620558  0.1869884939206088  1.0000
  H   H45       1.0  0.5611805777890453  0.476286235628443  0.18700188661564  1.0000
  H   H46       1.0  0.06117883018794149  0.023714576311682806  0.31299906238592007  1.0000
  H   H47       1.0  0.4388218794227824  0.0237118097223075  0.6870019906742897  1.0000
  H   H48       1.0  0.9388369807141572  0.47628532710319854  0.8130108933866325  1.0000
  H   H49       1.0  0.5861389391605484  0.6587784455606355  0.9743156488321177  1.0000
  H   H50       1.0  0.08613704632418968  0.8412205013661591  0.5256844548151065  1.0000
  H   H51       1.0  0.4138623005138413  0.8412200848271284  0.4743156617469282  1.0000
  H   H52       1.0  0.9138482439230271  0.6587880853183706  0.0256805004254517  1.0000
  H   H53       1.0  0.4138619318045044  0.3412210770668763  0.025683738465637904  1.0000
  H   H54       1.0  0.9138611964881631  0.15877814934280107  0.4743156296827351  1.0000
  H   H55       1.0  0.5861372563742577  0.1587768220540013  0.5256851199574939  1.0000
  H   H56       1.0  0.0861499988935535  0.3412105653908953  0.9743202812772154  1.0000
  H   H57       1.0  0.6717489979923171  0.6434851285688268  0.85885379168176  1.0000
  H   H58       1.0  0.17174991590690067  0.8565158122669343  0.6411466051928514  1.0000
  H   H59       1.0  0.3282482142844997  0.856515912898132  0.358852822729844  1.0000
  H   H60       1.0  0.8282407158135143  0.643491135255033  0.1411423490128101  1.0000
  H   H61       1.0  0.32824793074006914  0.35651526596764427  0.14114489840466146  1.0000
  H   H62       1.0  0.8282470128339341  0.1434845822701689  0.358853479303221  1.0000
  H   H63       1.0  0.6717539707646267  0.14348448164665228  0.641147261775231  1.0000
  H   H64       1.0  0.17176278331557168  0.35650751546223336  0.8588591299036779  1.0000
  C   C1        1.0  0.33838488192373  0.7683166989049328  0.8186684612351698  1.0000
  C   C2        1.0  0.8383863167296821  0.7316812410291362  0.6813304147676505  1.0000
  C   C3        1.0  0.6616105292808284  0.7316816903890738  0.31866856415854977  1.0000
  C   C4        1.0  0.1616074301054056  0.7683161518575475  0.1813288256595555  1.0000
  C   C5        1.0  0.6616146749530214  0.23168195180499404  0.1813295316504409  1.0000
  C   C6        1.0  0.16161061201260196  0.2683182815932525  0.3186703669330058  1.0000
  C   C7        1.0  0.33838902761559797  0.26831783223715167  0.681332217546604  1.0000
  C   C8        1.0  0.8383934408637543  0.23168598651475492  0.8186698644341063  1.0000
  C   C9        1.0  0.24704452823846876  0.6568710153738307  0.8491131166982129  1.0000
  C   C10       1.0  0.7470463040191858  0.84312665774754  0.6508861436611539  1.0000
  C   C11       1.0  0.7529512519203222  0.8431282734322566  0.34911359489582583  1.0000
  C   C12       1.0  0.25294575973656913  0.6568733232808555  0.15087364969691214  1.0000
  C   C13       1.0  0.7529524004995947  0.34312850724823807  0.1508869677976179  1.0000
  C   C14       1.0  0.25295193880717187  0.15687373679212155  0.3491153352468217  1.0000
  C   C15       1.0  0.24705093313169604  0.15687037728308437  0.6508878840184168  1.0000
  C   C16       1.0  0.7470551112283628  0.34312881509113424  0.8491243431919315  1.0000
  C   C17       1.0  0.4020332419671248  0.5762749148757464  0.8738968994704379  1.0000
  C   C18       1.0  0.9020352308167858  0.9237232109824306  0.6261035889442965  1.0000
  C   C19       1.0  0.5979641526056338  0.9237235244822127  0.3738961947603414  1.0000
  C   C20       1.0  0.09794996227017798  0.5762784914052403  0.126098188226166  1.0000
  C   C21       1.0  0.5979636867751595  0.4237246077466423  0.1261038822302183  1.0000
  C   C22       1.0  0.0979630119968959  0.07627718355627879  0.3738957983492028  1.0000
  C   C23       1.0  0.40203671836653837  0.07627425431618208  0.6261052841514001  1.0000
  C   C24       1.0  0.9020535368503458  0.4237227750558643  0.8739005018717521  1.0000
  C   C25       1.0  0.552109152596735  0.660272824458758  0.899808100128908  1.0000
  C   C26       1.0  0.052108153164787986  0.8397260230645998  0.6001904925551358  1.0000
  C   C27       1.0  0.44788987007903797  0.8397265103046506  0.3998096231677764  1.0000
  C   C28       1.0  0.9478806681033161  0.6602791434976324  0.10018038071621758  1.0000
  C   C29       1.0  0.44789040427434657  0.3397266981655775  0.1001884983472934  1.0000
  C   C30       1.0  0.947890089654571  0.16027349955970746  0.3998102891477728  1.0000
  C   C31       1.0  0.5521110008916851  0.16027214040845914  0.6001911585393884  1.0000
  C   C32       1.0  0.0521188887874331  0.33972125104299516  0.8998190065795342  1.0000
  Br  Br1       1.0  0.9118030278230406  0.9110561645458188  0.8928904228768175  1.0000
  Br  Br2       1.0  0.4118070850864156  0.5889419898528702  0.6071080073893711  1.0000
  Br  Br3       1.0  0.08816700135045608  0.5889527549698315  0.3928912706178451  1.0000
  Br  Br4       1.0  0.5881923326794336  0.9110570795951175  0.1071093537258534  1.0000
  Br  Br5       1.0  0.08819784316579418  0.08894684574278242  0.1071110560363948  1.0000
  Br  Br6       1.0  0.5881924718085614  0.41105840468807037  0.3928920771112061  1.0000
  Br  Br7       1.0  0.911833869617368  0.4110476395727146  0.6071081166801521  1.0000
  Br  Br8       1.0  0.41180722421977106  0.0889433149461425  0.8928914279795491  1.0000
  O   O1        1.0  0.4897143945161205  0.7769820391666042  0.8796288267073039  1.0000
  O   O2        1.0  0.9897150353751056  0.7230172147289692  0.6203712648163133  1.0000
  O   O3        1.0  0.5102817554432592  0.7230172773000447  0.3796277092566669  1.0000
  O   O4        1.0  0.010280600878630296  0.776987970138606  0.12036707063793271  1.0000
  O   O5        1.0  0.5102838482947831  0.22301748345707034  0.120370560585954  1.0000
  O   O6        1.0  0.010283207447031397  0.27698317981036513  0.37962951688683694  1.0000
  O   O7        1.0  0.48971911552179387  0.27698224532746707  0.6203716780410886  1.0000
  O   O8        1.0  0.9897189560121261  0.2230124244020217  0.8796323166578118  1.0000
