data_image0
_chemical_formula_structural       Al2H8C20S2Br2O12
_chemical_formula_sum              "Al2 H8 C20 S2 Br2 O12"
_cell_length_a       6.702787609196802
_cell_length_b       11.171666968904493
_cell_length_c       12.554136743820514
_cell_angle_alpha    81.33246503468807
_cell_angle_beta     78.35404011816655
_cell_angle_gamma    71.78277821637887

_space_group_name_H-M_alt    "P 1"
_space_group_IT_number       1

loop_
  _space_group_symop_operation_xyz
  'x, y, z'

loop_
  _atom_site_type_symbol
  _atom_site_label
  _atom_site_symmetry_multiplicity
  _atom_site_fract_x
  _atom_site_fract_y
  _atom_site_fract_z
  _atom_site_occupancy
  Al  Al1       1.0  0.5021896870848723  0.49548349032676237  0.5018075947399013  1.0000
  Al  Al2       1.0  0.0013046418647561459  0.4964086199719802  0.5031124835519167  1.0000
  H   H1        1.0  0.24359509769341506  0.4221799514246243  0.6306320255802689  1.0000
  H   H2        1.0  0.7008071169369714  0.6500508921647496  0.44132946061025546  1.0000
  H   H3        1.0  0.26196386774024216  0.2362000068741565  0.35661617759917874  1.0000
  H   H4        1.0  0.45729692342880685  0.7702186719586592  0.351355294051274  1.0000
  H   H5        1.0  0.75771646765444  0.8814828134272261  0.5642171405191193  1.0000
  H   H6        1.0  0.6475801528719602  0.11808441487402628  0.554366292300017  1.0000
  H   H7        1.0  0.10537822551271593  0.5325308368469878  0.8767353641542641  1.0000
  H   H8        1.0  0.6977568822091483  0.48750184304599037  0.2560252790159581  1.0000
  C   C1        1.0  0.8755060353225732  0.2725233675189571  0.48157136479803603  1.0000
  C   C2        1.0  0.6797323524387978  0.48598142234988734  0.6999777781974432  1.0000
  C   C3        1.0  0.13458855448772755  0.7258902857940159  0.4960910035101876  1.0000
  C   C4        1.0  0.3205850583153449  0.5043138018000377  0.303113289722262  1.0000
  C   C5        1.0  0.40588673262787733  0.5049740771284875  0.8745929293521401  1.0000
  C   C6        1.0  0.5861514592686136  0.4907723105699162  0.1301090218323679  1.0000
  C   C7        1.0  0.6135344347874607  0.4886711716187194  0.8177838954498926  1.0000
  C   C8        1.0  0.3774122213352484  0.5058257955981206  0.18566672247982305  1.0000
  C   C9        1.0  0.5965989449866883  0.48836962124169503  0.01661832947510082  1.0000
  C   C10       1.0  0.39734839306095193  0.5041320633827908  0.9888072132485706  1.0000
  C   C11       1.0  0.9501662837498729  0.13354433933820792  0.47056195357855307  1.0000
  C   C12       1.0  0.1579930361821056  0.0692411419136079  0.41670222859296774  1.0000
  C   C13       1.0  0.8073177327779109  0.06617461006811001  0.517888865437506  1.0000
  C   C14       1.0  0.30394457399641084  0.13397413675998143  0.3575416773130513  1.0000
  C   C15       1.0  0.4980152625105633  0.0698729117256391  0.3010014814540725  1.0000
  C   C16       1.0  0.07187885219914136  0.8669357284070074  0.47723078694890136  1.0000
  C   C17       1.0  0.8683168155445883  0.9336916551112043  0.5223371621364379  1.0000
  C   C18       1.0  0.21748404445802555  0.9336664294589383  0.418079270639801  1.0000
  C   C19       1.0  0.41529653042871206  0.8714530462307694  0.3563972301021254  1.0000
  C   C20       1.0  0.5538935123779467  0.9367029111984524  0.29978071372251963  1.0000
  S   S1        1.0  0.7962088628672465  0.46926160158319863  0.9050133175601405  1.0000
  S   S2        1.0  0.19605895410145985  0.5175583458514482  0.10011633145298761  1.0000
  Br  Br1       1.0  0.6841163214419412  0.16294580153940794  0.22402001939509125  1.0000
  Br  Br2       1.0  0.8150706131260462  0.843487064450848  0.22071042981446007  1.0000
  O   O1        1.0  0.6772559836957583  0.32640163003345896  0.4841015445588044  1.0000
  O   O2        1.0  0.8694442715436422  0.48817023002086307  0.6573437436773092  1.0000
  O   O3        1.0  0.9891660373843222  0.6723964266955279  0.5028365093492512  1.0000
  O   O4        1.0  0.47213893441479365  0.5060975735452616  0.3522538643898586  1.0000
  O   O5        1.0  0.32829971886189907  0.6696717434313159  0.5057475031049066  1.0000
  O   O6        1.0  0.1358025698121138  0.5013755128941143  0.35069287162099283  1.0000
  O   O7        1.0  0.011672668081352798  0.3261844402781549  0.491830789445423  1.0000
  O   O8        1.0  0.5371315298402025  0.4812773248143002  0.6483647969513555  1.0000
  O   O9        1.0  0.2624592902388444  0.43872625895185274  0.5514709889348097  1.0000
  O   O10       1.0  0.7377250221953987  0.5585122280314038  0.4558771063320962  1.0000
  O   O11       1.0  0.2385253769763266  0.5207049846866596  0.8243830508536336  1.0000
  O   O12       1.0  0.755300082262863  0.47818850911879457  0.17653836848980833  1.0000
