data_image0
_chemical_formula_structural       Cd8H20C28N48O8
_chemical_formula_sum              "Cd8 H20 C28 N48 O8"
_cell_length_a       9.64591604342346
_cell_length_b       13.934346926609892
_cell_length_c       13.934353083221417
_cell_angle_alpha    83.11722088569174
_cell_angle_beta     69.74886847620418
_cell_angle_gamma    69.7489282336307

_space_group_name_H-M_alt    "P 1"
_space_group_IT_number       1

loop_
  _space_group_symop_operation_xyz
  'x, y, z'

loop_
  _atom_site_type_symbol
  _atom_site_label
  _atom_site_symmetry_multiplicity
  _atom_site_fract_x
  _atom_site_fract_y
  _atom_site_fract_z
  _atom_site_occupancy
  Cd  Cd1       1.0  0.05063041720661242  0.409271062708406  0.8452508054249961  1.0000
  Cd  Cd2       1.0  0.3052772529630091  0.5906598566831746  0.1547196732200007  1.0000
  Cd  Cd3       1.0  0.5399580531433158  0.1547534414915858  0.40935327490748813  1.0000
  Cd  Cd4       1.0  0.10394576887961197  0.8452560013319754  0.5906858757973481  1.0000
  Cd  Cd5       1.0  0.550630648337915  0.845250046313275  0.40927315137283676  1.0000
  Cd  Cd6       1.0  0.8052767985153866  0.15472015778600212  0.5906600604004097  1.0000
  Cd  Cd7       1.0  0.0399580727869662  0.4093537292110341  0.15475385480489484  1.0000
  Cd  Cd8       1.0  0.6039431607123904  0.5906864266656412  0.8452577577100087  1.0000
  H   H1        1.0  0.21225758305488543  0.5891698741179141  0.6794515951111962  1.0000
  H   H2        1.0  0.4810451219863693  0.41072192883253666  0.3204411639636646  1.0000
  H   H3        1.0  0.1987987622956594  0.3205005727443506  0.5890853990558611  1.0000
  H   H4        1.0  0.10798576093404255  0.6796164879613968  0.41074079353940357  1.0000
  H   H5        1.0  0.7122544543621884  0.6794531072362986  0.5891747852323023  1.0000
  H   H6        1.0  0.981043242507113  0.3204433370681911  0.4107220140832979  1.0000
  H   H7        1.0  0.6987986427670024  0.5890875575276836  0.32049911275090887  1.0000
  H   H8        1.0  0.6079832120660241  0.41074298864478453  0.6796172108791866  1.0000
  H   H9        1.0  0.3648201217353915  0.4999368774346494  0.7702202087141502  1.0000
  H   H10       1.0  0.6350217305499088  0.5001183844679103  0.2297847124905346  1.0000
  H   H11       1.0  0.1350216902342964  0.22978374628108617  0.5001173760624839  1.0000
  H   H12       1.0  0.8648195523971008  0.7702192305333849  0.49994032657701126  1.0000
  H   H13       1.0  0.1260944469669099  0.09622389573893025  0.1642783053136085  1.0000
  H   H14       1.0  0.3866561413712761  0.9037291406464332  0.8358266401450792  1.0000
  H   H15       1.0  0.7781569769682408  0.8357539255404871  0.09613730651537371  1.0000
  H   H16       1.0  0.7096958828125112  0.16436541300008395  0.9038234258937053  1.0000
  H   H17       1.0  0.6260897051412969  0.16427690170178255  0.09622630692224732  1.0000
  H   H18       1.0  0.886657945486519  0.8358259182028719  0.9037273944343198  1.0000
  H   H19       1.0  0.278154227298579  0.09613789913604617  0.8357581756775545  1.0000
  H   H20       1.0  0.20970142246495974  0.9038212672612927  0.164366039973018  1.0000
  C   C1        1.0  0.08660566221573174  0.6165622763626857  0.6971439467271239  1.0000
  C   C2        1.0  0.4004150522762729  0.38337315294839397  0.30278139161995915  1.0000
  C   C3        1.0  0.297031180384167  0.3027864356060305  0.6165118546180607  1.0000
  C   C4        1.0  0.21597055318593308  0.6972564615863632  0.3833972646360807  1.0000
  C   C5        1.0  0.5866016060826669  0.6971457530402174  0.6165659178800879  1.0000
  C   C6        1.0  0.9004125796698264  0.3027831342636346  0.3833734050704081  1.0000
  C   C7        1.0  0.7970315550119338  0.6165132721986879  0.30278519715372454  1.0000
  C   C8        1.0  0.7159689095681901  0.38339924809310577  0.6972580036477397  1.0000
  C   C9        1.0  0.3235615955759741  0.4999446088524948  0.8527583013833392  1.0000
  C   C10       1.0  0.6763141021305473  0.5000904164382617  0.14724814988440474  1.0000
  C   C11       1.0  0.17631405535205869  0.1472471449685386  0.5000896798458002  1.0000
  C   C12       1.0  0.823561710626315  0.852756372494454  0.49994430964230924  1.0000
  C   C13       1.0  0.13999899551084372  0.2201332611353735  4.076201151549999e-05  1.0000
  C   C14       1.0  0.3599585747171475  0.7798255221234169  6.59933491605e-05  1.0000
  C   C15       1.0  0.6400010830228028  3.6739466821544306e-05  0.22013412390390394  1.0000
  C   C16       1.0  0.85995239139303  7.051450940289748e-05  0.7798262165650415  1.0000
  C   C17       1.0  0.19710016382924778  0.10614762037229035  2.04722434773e-05  1.0000
  C   C18       1.0  0.3031237898347073  0.8938380474498974  8.32212846404e-05  1.0000
  C   C19       1.0  0.6971041455935351  2.1114977819391437e-05  0.10614722887194011  1.0000
  C   C20       1.0  0.8031167270521994  8.571072302020941e-05  0.893838352830592  1.0000
  C   C21       1.0  0.1795515991586002  0.05307121617286728  0.09303981687167348  1.0000
  C   C22       1.0  0.3257256115351555  0.946913064619217  0.9070636422303054  1.0000
  C   C23       1.0  0.7677898831903605  0.9070260161754573  0.0530365627350449  1.0000
  C   C24       1.0  0.7275772285174043  0.09309119855834057  0.9469447785558813  1.0000
  C   C25       1.0  0.6795556207804766  0.0930395657715407  0.053072134698496094  1.0000
  C   C26       1.0  0.8257242466497984  0.907064392454643  0.9469114431289257  1.0000
  C   C27       1.0  0.2677869611603826  0.05303680637936031  0.9070271649686817  1.0000
  C   C28       1.0  0.22758366554037926  0.9469417310906821  0.0930908864680617  1.0000
  N   N1        1.0  0.9893715341581598  0.568248458313377  0.7565213461368642  1.0000
  N   N2        1.0  0.3142409676202079  0.43167792365917984  0.2434052908334294  1.0000
  N   N3        1.0  0.44256487542728  0.24341083678321238  0.5682586252852317  1.0000
  N   N4        1.0  0.2538579152851454  0.7566172425308154  0.431712135914573  1.0000
  N   N5        1.0  0.4893714509011744  0.7565224034679261  0.5682513683532591  1.0000
  N   N6        1.0  0.8142401479198258  0.2434059435055642  0.43167756338426955  1.0000
  N   N7        1.0  0.9425654692260967  0.5682600016481556  0.2434096178045593  1.0000
  N   N8        1.0  0.7538547569508369  0.43171219826486845  0.7566194950808339  1.0000
  N   N9        1.0  0.845098434434526  0.6307595530790664  0.7589565228214142  1.0000
  N   N10       1.0  0.2348496076259038  0.369185438666605  0.24103568867221273  1.0000
  N   N11       1.0  0.5242381484752414  0.24100563563663963  0.6308152127254446  1.0000
  N   N12       1.0  0.39577751753436285  0.7589538437796222  0.369251376310011  1.0000
  N   N13       1.0  0.345097033125555  0.7589562950877989  0.6307617691877992  1.0000
  N   N14       1.0  0.7348508033260545  0.2410361462186755  0.36918454537150325  1.0000
  N   N15       1.0  0.024238052056439627  0.6308166033565925  0.24100580487381512  1.0000
  N   N16       1.0  0.8957756735324266  0.36925175183870335  0.7589529264260693  1.0000
  N   N17       1.0  0.8550207319334578  0.7128149661259469  0.7034390484751755  1.0000
  N   N18       1.0  0.2712761402069147  0.28715193428985225  0.29658501615895017  1.0000
  N   N19       1.0  0.43219213881462104  0.2965277897583931  0.7128491927443436  1.0000
  N   N20       1.0  0.44140253834216747  0.7033946024046144  0.28722761521343904  1.0000
  N   N21       1.0  0.3550195762774423  0.7034389144406319  0.7128172082409067  1.0000
  N   N22       1.0  0.7712764259560959  0.2965851065158771  0.28715178007216485  1.0000
  N   N23       1.0  0.9321927707795724  0.7128505599669807  0.29652841820549725  1.0000
  N   N24       1.0  0.9413986207288121  0.28722939875023445  0.7033933208326671  1.0000
  N   N25       1.0  0.007335984421324543  0.7054950832815406  0.6633134926529679  1.0000
  N   N26       1.0  0.37617257776353336  0.2944724354441135  0.3366813001952522  1.0000
  N   N27       1.0  0.2872356485284587  0.3366402970385352  0.7054676558376228  1.0000
  N   N28       1.0  0.32916211308872084  0.663332964102075  0.2945158178244541  1.0000
  N   N29       1.0  0.5073341761568528  0.6633148227196272  0.7054974459372046  1.0000
  N   N30       1.0  0.8761717391867524  0.33668276235341194  0.29447231916917355  1.0000
  N   N31       1.0  0.7872357721162616  0.7054688077107937  0.33663946889022606  1.0000
  N   N32       1.0  0.829156809459434  0.2945172534695358  0.6633342760518417  1.0000
  N   N33       1.0  0.20225542411425582  0.4708711169793531  0.9105426593448273  1.0000
  N   N34       1.0  0.5837153164392818  0.5291587033250947  0.08946581981734171  1.0000
  N   N35       1.0  0.32670284174665915  0.08947238372548576  0.47093524893112715  1.0000
  N   N36       1.0  0.8870561942528497  0.9105193943052398  0.5290745300520854  1.0000
  N   N37       1.0  0.7022532724031695  0.9105432871894691  0.4708718343384319  1.0000
  N   N38       1.0  0.08371572471246226  0.08946469622978269  0.5291572984644972  1.0000
  N   N39       1.0  0.8267029018653321  0.4709368406646845  0.0894731738519852  1.0000
  N   N40       1.0  0.3870573538481638  0.529074621381362  0.9105213060698389  1.0000
  N   N41       1.0  0.19094859069722503  0.48274189394619776  0.0072494099875087  1.0000
  N   N42       1.0  0.6809686563832573  0.5172564697716595  0.9927547377091203  1.0000
  N   N43       1.0  0.3261665214162903  0.9927569808887924  0.482740388465885  1.0000
  N   N44       1.0  0.8016475242418153  0.0072353767603273375  0.5172484797742173  1.0000
  N   N45       1.0  0.6909490878248548  0.007249914850987528  0.4827422201237255  1.0000
  N   N46       1.0  0.1809694321316828  0.9927535493065917  0.5172558079979764  1.0000
  N   N47       1.0  0.8261661177571397  0.48274091126372537  0.9927576156057115  1.0000
  N   N48       1.0  0.30164728194986173  0.5172483109963792  0.007236607233707601  1.0000
  O   O1        1.0  0.0859585373882014  0.2631173314130564  0.9285891315481579  1.0000
  O   O2        1.0  0.2774227260126452  0.7368573858938774  0.0715350537406394  1.0000
  O   O3        1.0  0.6509423123692812  0.07149312449398326  0.263164757306761  1.0000
  O   O4        1.0  0.9853787707668218  0.928586067894521  0.7368035136242669  1.0000
  O   O5        1.0  0.5859584484787279  0.9285877776746717  0.2631208321283652  1.0000
  O   O6        1.0  0.7774164662719444  0.07154038820365112  0.7368582284743397  1.0000
  O   O7        1.0  0.1509418754802284  0.2631652473707575  0.0714938189078396  1.0000
  O   O8        1.0  0.48538251988053827  0.7368032982368006  0.9285797993502244  1.0000
