data_image0
_chemical_formula_structural       Sr2H24C14O10
_chemical_formula_sum              "Sr2 H24 C14 O10"
_cell_length_a       4.801914097045981
_cell_length_b       7.615642644090167
_cell_length_c       13.091479912986147
_cell_angle_alpha    104.9899582405675
_cell_angle_beta     97.58589984302047
_cell_angle_gamma    100.18798152743406

_space_group_name_H-M_alt    "P 1"
_space_group_IT_number       1

loop_
  _space_group_symop_operation_xyz
  'x, y, z'

loop_
  _atom_site_type_symbol
  _atom_site_label
  _atom_site_symmetry_multiplicity
  _atom_site_fract_x
  _atom_site_fract_y
  _atom_site_fract_z
  _atom_site_occupancy
  Sr  Sr1       1.0  0.7680202361428955  0.26801742950534907  0.5359841931110482  1.0000
  Sr  Sr2       1.0  0.2319899044435872  0.7319863884491583  0.46401893014875384  1.0000
  H   H1        1.0  0.12289201182068152  0.5442632695007603  0.8021586329707874  1.0000
  H   H2        1.0  0.6793861460846032  0.257010078353261  0.8022878055943963  1.0000
  H   H3        1.0  0.877116506623594  0.4557294823279039  0.19783659294334657  1.0000
  H   H4        1.0  0.32060438540523956  0.7429978869158871  0.1977157642544469  1.0000
  H   H5        1.0  0.22442523347388035  0.7695799798256006  0.7940460229610977  1.0000
  H   H6        1.0  0.5681592078175157  0.023584955794298406  0.7939893605482737  1.0000
  H   H7        1.0  0.7755919201784992  0.2304072294379225  0.2059472416245498  1.0000
  H   H8        1.0  0.4318257408093658  0.9764188841619018  0.20600871714508173  1.0000
  H   H9        1.0  0.6384957541441878  0.5691598377809653  0.8956944296232622  1.0000
  H   H10       1.0  0.25698223902922734  0.32641319920247724  0.8956903488662891  1.0000
  H   H11       1.0  0.3615052207863485  0.4308355516572036  0.1043115292660701  1.0000
  H   H12       1.0  0.7429907539469696  0.6735863882726747  0.1043110725159195  1.0000
  H   H13       1.0  0.7255931234491584  0.801999440352816  0.8943282965035381  1.0000
  H   H14       1.0  0.16835217514582013  0.09223859828350099  0.8944474307227424  1.0000
  H   H15       1.0  0.2744118602365759  0.19800156575774966  0.10567566902538773  1.0000
  H   H16       1.0  0.8316327254466103  0.9077526841874147  0.1055502351408464  1.0000
  H   H17       1.0  0.24570414718611744  0.6401092728639526  5.00742995725984e-05  1.0000
  H   H18       1.0  0.7542789225932509  0.359889002821923  0.9999462894172169  1.0000
  H   H19       1.0  0.33438717062736606  0.8734732359981694  0.999996443653238  1.0000
  H   H20       1.0  0.6656038460474819  0.126523675496351  0.9999985697351194  1.0000
  H   H21       1.0  0.17326167638462664  0.0855349057276129  0.3826933499510616  1.0000
  H   H22       1.0  0.2098416689745903  0.29713579714211147  0.38269750096601035  1.0000
  H   H23       1.0  0.8267391378076141  0.9144661557822787  0.6173058373631407  1.0000
  H   H24       1.0  0.7901549305632187  0.702865239665364  0.6173030045778276  1.0000
  C   C1        1.0  0.39109466523572683  0.5686011384637483  0.6890799915169127  1.0000
  C   C2        1.0  0.297925342420271  0.12046467664892897  0.689076862047429  1.0000
  C   C3        1.0  0.6089559179496433  0.43140418758187593  0.31091999120816644  1.0000
  C   C4        1.0  0.7020569995306404  0.8795377073217027  0.3109254470582031  1.0000
  C   C5        1.0  0.3111652837556775  0.6463552840329143  0.7975891333268095  1.0000
  C   C6        1.0  0.4859637393964817  0.15071236930876353  0.7975507209339625  1.0000
  C   C7        1.0  0.6888532550405841  0.3536360558792993  0.20240865547733483  1.0000
  C   C8        1.0  0.514025878072637  0.8492928588824568  0.2024485626766506  1.0000
  C   C9        1.0  0.5458336394662311  0.6915834963553209  0.8966618756059292  1.0000
  C   C10       1.0  0.35052726725212585  0.20487622486146506  0.8966253246642069  1.0000
  C   C11       1.0  0.4541708392256326  0.30841605610817874  0.1033464242759905  1.0000
  C   C12       1.0  0.6494566939674941  0.7951247478514674  0.10337837351298161  1.0000
  C   C13       1.0  0.42810765309617677  0.7512115151119045  1.9996315778277895e-05  1.0000
  C   C14       1.0  0.5718793624349061  0.2487901908261634  0.9999850799217214  1.0000
  O   O1        1.0  0.6316052629757751  0.5221912040594816  0.684144482573288  1.0000
  O   O2        1.0  0.052522140231296505  0.1619562715884797  0.6840530305257319  1.0000
  O   O3        1.0  0.36842937561257116  0.4778167602543988  0.3158650593085426  1.0000
  O   O4        1.0  0.9474688849621773  0.8380531273022953  0.31594772908119506  1.0000
  O   O5        1.0  0.20610263020471117  0.5538049806407913  0.6054207763108295  1.0000
  O   O6        1.0  0.39952968458743504  0.05170690464477451  0.605479093839719  1.0000
  O   O7        1.0  0.7939255029813241  0.44618363388595134  0.39457324095871377  1.0000
  O   O8        1.0  0.6004641588263553  0.948298368274301  0.3945173474301741  1.0000
  O   O9        1.0  0.215085642270175  0.21489445458599482  0.4298423181326143  1.0000
  O   O10       1.0  0.784919375286272  0.785106611600881  0.5701570750630438  1.0000
