data_image0
_chemical_formula_structural       Co4H24C48N16
_chemical_formula_sum              "Co4 H24 C48 N16"
_cell_length_a       13.253147353398484
_cell_length_b       13.254746393202794
_cell_length_c       13.853275157710419
_cell_angle_alpha    89.9999453774757
_cell_angle_beta     89.99646470418301
_cell_angle_gamma    89.99936838997161

_space_group_name_H-M_alt    "P 1"
_space_group_IT_number       1

loop_
  _space_group_symop_operation_xyz
  'x, y, z'

loop_
  _atom_site_type_symbol
  _atom_site_label
  _atom_site_symmetry_multiplicity
  _atom_site_fract_x
  _atom_site_fract_y
  _atom_site_fract_z
  _atom_site_occupancy
  Co  Co1       1.0  0.9728884244558248  0.004440162206918798  0.8721898277505746  1.0000
  Co  Co2       1.0  0.027151802015012508  0.9955517213396375  0.37215478490255555  1.0000
  Co  Co3       1.0  0.027099147621513005  0.0044424782693397  0.6278247485698005  1.0000
  Co  Co4       1.0  0.9728490771928479  0.9955504008336789  0.12783975855391116  1.0000
  H   H1        1.0  0.7380045985707968  0.9949621201639612  0.8434384221401106  1.0000
  H   H2        1.0  0.9176108599120243  0.7708187598001432  0.8854803676690114  1.0000
  H   H3        1.0  0.9461027850440333  0.5969457871013687  0.897119461077715  1.0000
  H   H4        1.0  0.9454888879314753  0.4108705596413671  0.8963313036165632  1.0000
  H   H5        1.0  0.5635518289221936  0.007841969302006598  0.844279162822929  1.0000
  H   H6        1.0  0.3775001507153207  0.007598553778933599  0.8450288344131497  1.0000
  H   H7        1.0  0.26199373433933454  0.0050260196761585  0.3434345836678007  1.0000
  H   H8        1.0  0.08243152025720239  0.229179900672257  0.3854363006945151  1.0000
  H   H9        1.0  0.05392223734088472  0.4030543708887605  0.3970963913060005  1.0000
  H   H10       1.0  0.05453090374018641  0.5891295991502402  0.39631524492794784  1.0000
  H   H11       1.0  0.43637627897862075  0.9921288178469821  0.3442259500734581  1.0000
  H   H12       1.0  0.6224218749274615  0.9924107094942015  0.3448824443181665  1.0000
  H   H13       1.0  0.2619879006810208  0.9949701172712578  0.656575240251698  1.0000
  H   H14       1.0  0.08238411026618311  0.7708204794930608  0.6145255610707923  1.0000
  H   H15       1.0  0.05390164711111821  0.5969425511925338  0.6028851840878815  1.0000
  H   H16       1.0  0.054513067994790304  0.4108680706483128  0.6036742351312513  1.0000
  H   H17       1.0  0.43645607853014934  0.007844271628833598  0.6557245819998345  1.0000
  H   H18       1.0  0.6225062510187769  0.0076063501606569  0.6549532551468149  1.0000
  H   H19       1.0  0.7379848627993513  0.005032541200186798  0.15657603309239934  1.0000
  H   H20       1.0  0.9175717702422335  0.22918222046543948  0.11455173117767711  1.0000
  H   H21       1.0  0.9460836638242826  0.4030601600758458  0.10289148008457974  1.0000
  H   H22       1.0  0.9454752097505053  0.5891361487202431  0.10368039515750382  1.0000
  H   H23       1.0  0.5635982286701094  0.9921440527160286  0.15578014692001577  1.0000
  H   H24       1.0  0.3775503667495245  0.9924136616471982  0.15510271880930304  1.0000
  C   C1        1.0  0.7544932667803721  0.9972472106197898  0.9201743052497665  1.0000
  C   C2        1.0  0.957802628339259  0.7874050821931744  0.819050127501413  1.0000
  C   C3        1.0  0.9693592213216748  0.5568038440605959  0.8320713652795536  1.0000
  C   C4        1.0  0.9692443521619794  0.4522126319191598  0.8321118405380975  1.0000
  C   C5        1.0  0.523566657297323  0.0042019504241964  0.9130207577562504  1.0000
  C   C6        1.0  0.418997534726124  0.0041791390091319  0.9129999959636594  1.0000
  C   C7        1.0  0.1871806176676429  0.0047115431139773  0.9216292875092978  1.0000
  C   C8        1.0  0.9715238547495846  0.22035152947248085  0.8236503438166313  1.0000
  C   C9        1.0  0.245500073561395  0.0027400992392400993  0.4201699901163637  1.0000
  C   C10       1.0  0.042221437329921216  0.21259741602141694  0.3190192558308312  1.0000
  C   C11       1.0  0.030654942158726307  0.44320165916536075  0.33205683808326825  1.0000
  C   C12       1.0  0.030769054152095507  0.547788344590465  0.332097932007713  1.0000
  C   C13       1.0  0.47638640555534556  0.9957831033927889  0.4129514861280939  1.0000
  C   C14       1.0  0.5809623223101427  0.9958255304374787  0.4128661356213997  1.0000
  C   C15       1.0  0.8128692215944539  0.9953044340280356  0.4215201190305252  1.0000
  C   C16       1.0  0.028542165826493708  0.7796411561741435  0.32361830695739263  1.0000
  C   C17       1.0  0.24549769808271552  0.9972524472917569  0.5798436861859317  1.0000
  C   C18       1.0  0.04219819517010141  0.7874079339877085  0.6809601168710915  1.0000
  C   C19       1.0  0.030643389677791805  0.5568023093980514  0.6679333169705121  1.0000
  C   C20       1.0  0.030760166124828504  0.4522103415710033  0.6678965473993871  1.0000
  C   C21       1.0  0.4764299724645725  0.004200861894240398  0.5869757722463973  1.0000
  C   C22       1.0  0.5810036227258026  0.0041821787180537995  0.586989315416048  1.0000
  C   C23       1.0  0.8128092158273859  0.0047271245989008994  0.578358580002842  1.0000
  C   C24       1.0  0.02850208213258301  0.22034699245628525  0.676375581816153  1.0000
  C   C25       1.0  0.7544860940429956  0.0027450055498050995  0.07984423778672323  1.0000
  C   C26       1.0  0.9577820360601382  0.21259696376840506  0.18096590393120957  1.0000
  C   C27       1.0  0.9693429709805629  0.44320411004711957  0.16793532761142427  1.0000
  C   C28       1.0  0.9692307242036834  0.5477915512054563  0.16789774640297853  1.0000
  C   C29       1.0  0.5235963619708741  0.9957928114208485  0.08704811059644163  1.0000
  C   C30       1.0  0.4190234632758917  0.9958265834836695  0.08712335506622544  1.0000
  C   C31       1.0  0.18713316954349324  0.9953095611086907  0.0784693716501295  1.0000
  C   C32       1.0  0.9714950479798575  0.7796405574566734  0.17636055389757396  1.0000
  C   C33       1.0  1.0514941664000082e-06  0.7216309404796702  0.750003538881714  1.0000
  C   C34       1.0  9.021969234000063e-07  0.6118166930525387  0.7500028676883448  1.0000
  C   C35       1.0  6.6105704731999944e-06  0.39748516861560984  0.750005853788338  1.0000
  C   C36       1.0  1.2492536505699997e-05  0.2885468337991597  0.7500116786731541  1.0000
  C   C37       1.0  8.967173599000001e-07  0.27837487486080187  0.2499956279704066  1.0000
  C   C38       1.0  0.9999982280603205  0.3881881366190001  0.24999591724314746  1.0000
  C   C39       1.0  4.391989143900001e-06  0.6025183833329918  0.24999692205474847  1.0000
  C   C40       1.0  1.5109859283799999e-05  0.7114514369305169  0.24999181853768707  1.0000
  C   C41       1.0  0.6885977131254181  0.9999942129827631  8.267134767000001e-06  1.0000
  C   C42       1.0  0.5787324886228975  0.9999955730369479  2.8083927901400002e-05  1.0000
  C   C43       1.0  0.3641836799236701  7.0458152520999975e-06  6.513977475460002e-05  1.0000
  C   C44       1.0  0.2553053913798848  9.909331438999997e-06  6.688141929350002e-05  1.0000
  C   C45       1.0  0.31139255315184045  0.9999907649763173  0.49999998770314863  1.0000
  C   C46       1.0  0.4212570232105365  0.9999894049277174  0.4999772835282387  1.0000
  C   C47       1.0  0.6358108187730168  1.2846871733499996e-05  0.4999166071121906  1.0000
  C   C48       1.0  0.7446883527098366  1.8282273323699992e-05  0.4999155873368651  1.0000
  N   N1        1.0  0.973510171328023  0.8839228870181443  0.7925353157412618  1.0000
  N   N2        1.0  0.851068581176712  0.9980923981178476  0.950481279508239  1.0000
  N   N3        1.0  0.0918250619887075  0.0025022812841299998  0.9480503797760282  1.0000
  N   N4        1.0  0.9793859772958202  0.12497434367486447  0.798363718583474  1.0000
  N   N5        1.0  0.026513355660206607  0.11607963730602928  0.2925097833134204  1.0000
  N   N6        1.0  0.1489242961586044  0.0019069530451432002  0.4504826159854504  1.0000
  N   N7        1.0  0.9082026841391055  0.9974759475990354  0.44799698780244074  1.0000
  N   N8        1.0  0.020671125238493505  0.8750191213719205  0.298322669963561  1.0000
  N   N9        1.0  0.026491097297189  0.8839243769775749  0.7074777269825605  1.0000
  N   N10       1.0  0.1489223743752248  0.9981009926905527  0.5495359892955138  1.0000
  N   N11       1.0  0.9081678136404464  0.0025123108135928995  0.551949761154127  1.0000
  N   N12       1.0  0.0206334654428773  0.12496911402457299  0.7016644607803999  1.0000
  N   N13       1.0  0.973500236091411  0.11608124905674089  0.20747402148982996  1.0000
  N   N14       1.0  0.8510611260875934  0.0019040344656814996  0.04953305641357991  1.0000
  N   N15       1.0  0.0917981737192974  0.9974829062285122  0.052000441279531615  1.0000
  N   N16       1.0  0.9793703190082969  0.8750169020525573  0.20165682463074575  1.0000
