data_image0
_chemical_formula_structural       Sm2H30C48O18
_chemical_formula_sum              "Sm2 H30 C48 O18"
_cell_length_a       7.660611032848163
_cell_length_b       9.663216946396183
_cell_length_c       13.646873064075628
_cell_angle_alpha    81.67388038898866
_cell_angle_beta     88.30925918556288
_cell_angle_gamma    82.79425555252817

_space_group_name_H-M_alt    "P 1"
_space_group_IT_number       1

loop_
  _space_group_symop_operation_xyz
  'x, y, z'

loop_
  _atom_site_type_symbol
  _atom_site_label
  _atom_site_symmetry_multiplicity
  _atom_site_fract_x
  _atom_site_fract_y
  _atom_site_fract_z
  _atom_site_occupancy
  Sm  Sm1       1.0  0.7568600767209475  0.9823316411681587  0.04936902680551469  1.0000
  Sm  Sm2       1.0  0.2431371701866353  0.017671689381820996  0.9506297438758933  1.0000
  H   H1        1.0  0.5896890337103501  0.9821316875621166  0.24509584526744269  1.0000
  H   H2        1.0  0.41030871624521137  0.0178684485654159  0.7549061583485182  1.0000
  H   H3        1.0  0.44461426294690654  0.9346388476110971  0.1784289004718502  1.0000
  H   H4        1.0  0.5553833148618069  0.0653623505214682  0.8215722700935398  1.0000
  H   H5        1.0  0.8652502546958304  0.3925072177799506  0.08005655866179497  1.0000
  H   H6        1.0  0.1347632245938044  0.6075006068508342  0.919939415502142  1.0000
  H   H7        1.0  0.6667655213813077  0.6159972627388726  0.07880166718580738  1.0000
  H   H8        1.0  0.33325258121048046  0.38400638940984766  0.9211961258997261  1.0000
  H   H9        1.0  0.4736775462218717  0.7416520034527279  0.7399048855641863  1.0000
  H   H10       1.0  0.5263170379615686  0.25834385956066086  0.26009756083753627  1.0000
  H   H11       1.0  0.5296639917146637  0.6323184326260644  0.5889955587917368  1.0000
  H   H12       1.0  0.47033078187565286  0.36768377154791654  0.411006276765434  1.0000
  H   H13       1.0  0.7335286997570448  0.4092619127985414  0.5910162000959714  1.0000
  H   H14       1.0  0.26647282615900986  0.5907393692794471  0.4089827234059057  1.0000
  H   H15       1.0  0.3024855255172056  0.19557160236129079  0.6958536146443774  1.0000
  H   H16       1.0  0.6974900393258208  0.8044281757783478  0.30415084937148845  1.0000
  H   H17       1.0  0.8878822894593625  0.3001837511794036  0.7445887062398098  1.0000
  H   H18       1.0  0.11212426149021584  0.6998186627941222  0.2554100570411108  1.0000
  H   H19       1.0  0.3188513119577579  0.8336757154389499  0.3340530143612738  1.0000
  H   H20       1.0  0.681148148029976  0.16631496353141975  0.6659476813154581  1.0000
  H   H21       1.0  0.3757365119673894  0.8716927892964176  0.5059794917445684  1.0000
  H   H22       1.0  0.6242614369201148  0.12830630164076948  0.49402187735623204  1.0000
  H   H23       1.0  0.027628483459892515  0.31448933342424806  0.545921850952652  1.0000
  H   H24       1.0  0.9723745440313324  0.6855109230378602  0.45407642279575794  1.0000
  H   H25       1.0  0.8359602789528251  0.48890917850227544  0.4357185716437612  1.0000
  H   H26       1.0  0.1640352501876094  0.5110888196883038  0.5642829272013754  1.0000
  H   H27       1.0  0.793492000545527  0.4552381756202093  0.26096098581161437  1.0000
  H   H28       1.0  0.20650133456488365  0.5447577014480982  0.739038540696988  1.0000
  H   H29       1.0  0.9307815768468757  0.2378576657520241  0.20047265349836604  1.0000
  H   H30       1.0  0.06922169732269619  0.7621330130903132  0.7995331329434305  1.0000
  C   C1        1.0  0.8450507583423672  0.3890407369458443  0.9242868209722274  1.0000
  C   C2        1.0  0.15495579260720393  0.6109616770276814  0.07571194230869338  1.0000
  C   C3        1.0  0.8062353749818386  0.4454104446021957  0.011060518429964404  1.0000
  C   C4        1.0  0.19376471632179457  0.5545919051284045  0.9889353859110909  1.0000
  C   C5        1.0  0.6940908662615328  0.5718547226349028  0.010314722837748001  1.0000
  C   C6        1.0  0.30590970130497647  0.4281444158585613  0.9896858820035699  1.0000
  C   C7        1.0  0.616144312410249  0.6412845296194688  0.9236278057769662  1.0000
  C   C8        1.0  0.3838587016884247  0.35871571843529176  0.07637120175429858  1.0000
  C   C9        1.0  0.6451545129169746  0.582569630320691  0.8328917750612275  1.0000
  C   C10       1.0  0.3548532871056267  0.4174327695979158  0.16710990811280615  1.0000
  C   C11       1.0  0.5639203921498747  0.645158020552678  0.7422248890744637  1.0000
  C   C12       1.0  0.43608051971031614  0.3548389939307126  0.2577773818679815  1.0000
  C   C13       1.0  0.5948268471776714  0.5830101321330189  0.657527656997068  1.0000
  C   C14       1.0  0.4051649060022697  0.416986720107097  0.34247692196214524  1.0000
  C   C15       1.0  0.7098171609175664  0.4568716320628354  0.6585945168940056  1.0000
  C   C16       1.0  0.2901810270795266  0.5431264389060501  0.3414040163430697  1.0000
  C   C17       1.0  0.7945414829832841  0.39496054667154096  0.74449019532895  1.0000
  C   C18       1.0  0.2054604274041053  0.6050386366184171  0.2555081929254824  1.0000
  C   C19       1.0  0.7645692991881603  0.4547255879489852  0.8334585188303476  1.0000
  C   C20       1.0  0.2354389254834288  0.5452747384036198  0.16654042774766958  1.0000
  C   C21       1.0  0.9791301508744042  0.2622923878804144  0.9292573508917737  1.0000
  C   C22       1.0  0.020876002211281244  0.7377121164738013  0.07074268141945339  1.0000
  C   C23       1.0  0.49566004227112614  0.7720181520200596  0.9322701593373206  1.0000
  C   C24       1.0  0.5043446092393963  0.2279873779500362  0.06773052272736628  1.0000
  C   C25       1.0  0.1486610754816056  0.02835348828389779  0.30090009669130063  1.0000
  C   C26       1.0  0.8513493929227137  0.971641598062078  0.6990985972040703  1.0000
  C   C27       1.0  0.25796188288041577  0.9290404470149554  0.36140065017924866  1.0000
  C   C28       1.0  0.7420374183530284  0.07095130236779568  0.6385984786640576  1.0000
  C   C29       1.0  0.2899434311449909  0.9500181251964076  0.45829927186824176  1.0000
  C   C30       1.0  0.7100524422891327  0.049977748984098  0.541703893078022  1.0000
  C   C31       1.0  0.21661985525765456  0.07041618146791959  0.4962714923163245  1.0000
  C   C32       1.0  0.7833820512622439  0.9295756070637533  0.5037276060503543  1.0000
  C   C33       1.0  0.0999122194434037  0.17513616201824078  0.4365105205781246  1.0000
  C   C34       1.0  0.9000846123402579  0.8248618557467964  0.5634909630286982  1.0000
  C   C35       1.0  0.009958572246873095  0.29750561173685247  0.4701725004295197  1.0000
  C   C36       1.0  0.9900357212130826  0.7024924089159937  0.5298253447396417  1.0000
  C   C37       1.0  0.9018536297051799  0.39509759478464435  0.4082584217174696  1.0000
  C   C38       1.0  0.09814173115590563  0.6049088601692458  0.5917415339648571  1.0000
  C   C39       1.0  0.8769763795288129  0.3760871207304818  0.3093861365170482  1.0000
  C   C40       1.0  0.12302644903046198  0.6239141809219645  0.6906127717465151  1.0000
  C   C41       1.0  0.9563214476687208  0.25635084492763127  0.2751528564357385  1.0000
  C   C42       1.0  0.043688772100942706  0.7436526477375833  0.7248486969939661  1.0000
  C   C43       1.0  0.0674109259802407  0.15291426411285158  0.3367569834185885  1.0000
  C   C44       1.0  0.932595037698576  0.8470838990807649  0.6632436597371762  1.0000
  C   C45       1.0  0.10866661373714241  0.00023059217640050104  0.19881251696956062  1.0000
  C   C46       1.0  0.8913371425190988  0.9997654414876107  0.8011868876325321  1.0000
  C   C47       1.0  0.2744808087419486  0.07742785303633329  0.5980836612021034  1.0000
  C   C48       1.0  0.7255030980922542  0.9225848173520742  0.401911418083351  1.0000
  O   O1        1.0  0.9606162726868633  0.15489968098781048  0.9961887400359967  1.0000
  O   O2        1.0  0.03938822006936254  0.8451069193946663  0.0038103751952718195  1.0000
  O   O3        1.0  0.5730518440137898  0.9181029104150151  0.19485942231518288  1.0000
  O   O4        1.0  0.4269459193343152  0.0818972341198645  0.805141847517916  1.0000
  O   O5        1.0  0.11344076773774964  0.2609053115190321  0.8734479774466872  1.0000
  O   O6        1.0  0.886564838254827  0.7390949672773102  0.12655173339081927  1.0000
  O   O7        1.0  0.35813810380289374  0.8048833935456584  0.8808806861126112  1.0000
  O   O8        1.0  0.641865099702656  0.19512319566970146  0.11911771057411608  1.0000
  O   O9        1.0  0.5295079888059107  0.852019777988872  0.9966959693661078  1.0000
  O   O10       1.0  0.47048936328576474  0.14798244851934328  0.003307303280159605  1.0000
  O   O11       1.0  0.9498953018710453  0.9932263229135218  0.18121996251505823  1.0000
  O   O12       1.0  0.050105596596594595  0.006770683162521602  0.818783042210249  1.0000
  O   O13       1.0  0.23693663893271827  0.9833459642601454  0.13687556170442144  1.0000
  O   O14       1.0  0.7630597701582714  0.0166552983714183  0.8631182862707047  1.0000
  O   O15       1.0  0.34443229455284546  0.971656752182646  0.6516477834079593  1.0000
  O   O16       1.0  0.6555606809150236  0.0283400691878555  0.34836118301009106  1.0000
  O   O17       1.0  0.2552224595507084  0.20598150301587026  0.6276442387599342  1.0000
  O   O18       1.0  0.7447613190155735  0.7940163021898526  0.3723588647957427  1.0000
