data_image0
_chemical_formula_structural       Cs4H20C24N8O24
_chemical_formula_sum              "Cs4 H20 C24 N8 O24"
_cell_length_a       5.551354861684665
_cell_length_b       7.767332329525903
_cell_length_c       22.420496260394586
_cell_angle_alpha    90.00010267912947
_cell_angle_beta     90.00109488007973
_cell_angle_gamma    89.00751029607402

_space_group_name_H-M_alt    "P 1"
_space_group_IT_number       1

loop_
  _space_group_symop_operation_xyz
  'x, y, z'

loop_
  _atom_site_type_symbol
  _atom_site_label
  _atom_site_symmetry_multiplicity
  _atom_site_fract_x
  _atom_site_fract_y
  _atom_site_fract_z
  _atom_site_occupancy
  Cs  Cs1       1.0  0.3160264997042646  0.26297740544925563  0.5163398709801612  1.0000
  Cs  Cs2       1.0  0.6839756833061869  0.237028674194427  0.0163382739049069  1.0000
  Cs  Cs3       1.0  0.6839746342744277  0.7370316071483883  0.4836595140969848  1.0000
  Cs  Cs4       1.0  0.3160523691642751  0.7629733450222813  0.98366111122278  1.0000
  H   H1        1.0  0.9517884096525364  0.11184232911080023  0.7353148135009562  1.0000
  H   H2        1.0  0.0482133536699934  0.3881468217278653  0.23531527885273112  1.0000
  H   H3        1.0  0.048212536831663  0.8881550995951103  0.26468546361248  1.0000
  H   H4        1.0  0.9517874260165229  0.611840310180682  0.7646827681543016  1.0000
  H   H5        1.0  0.32532196715311557  0.8382745023523979  0.7939195943226807  1.0000
  H   H6        1.0  0.6746699408658685  0.6617289441758771  0.2939326239073168  1.0000
  H   H7        1.0  0.6746612141184228  0.16173874346265646  0.2060775606183114  1.0000
  H   H8        1.0  0.32532011349933043  0.33826355929739554  0.7060743434896821  1.0000
  H   H9        1.0  0.2036155340235837  0.7962267704765225  0.688230331122746  1.0000
  H   H10       1.0  0.7963953829113848  0.70375644557582  0.18824476393481862  1.0000
  H   H11       1.0  0.796385453954514  0.20377323242161793  0.3117659318075994  1.0000
  H   H12       1.0  0.2036055639136904  0.2962409831418853  0.8117630955263947  1.0000
  H   H13       1.0  0.0611649929245814  0.6064487309976557  0.5884217524652371  1.0000
  H   H14       1.0  0.938840677194193  0.8935418226253306  0.0884177079272348  1.0000
  H   H15       1.0  0.9388341520878709  0.3935487349019623  0.4115794166855693  1.0000
  H   H16       1.0  0.061178346759561505  0.10645909544956568  0.9115790010594865  1.0000
  H   H17       1.0  0.2444001895737458  0.7462974209965908  0.5720077204866669  1.0000
  H   H18       1.0  0.7555931752352764  0.7536920176140995  0.0720131085939286  1.0000
  H   H19       1.0  0.7555900311079  0.2537053792573829  0.4279907725257459  1.0000
  H   H20       1.0  0.24442048599766514  0.24631158624107743  0.9279867225264057  1.0000
  C   C1        1.0  0.5039766846027404  0.929642815003362  0.6490342489267533  1.0000
  C   C2        1.0  0.4960255117352048  0.5703532616297551  0.1490438302942678  1.0000
  C   C3        1.0  0.49602072120889323  0.07035854937933549  0.3509624600174774  1.0000
  C   C4        1.0  0.5039845676120009  0.42965170371970635  0.8509626911263553  1.0000
  C   C5        1.0  0.7214450189500425  0.021821280727223794  0.6657141716151855  1.0000
  C   C6        1.0  0.27855607870378657  0.47817912583322914  0.1657196262459593  1.0000
  C   C7        1.0  0.27856141537829876  0.9781811847972861  0.3342852134700109  1.0000
  C   C8        1.0  0.721443149677434  0.5218234884640223  0.8342819889273657  1.0000
  C   C9        1.0  0.7887074836031047  0.04282936455086171  0.7249083630889146  1.0000
  C   C10       1.0  0.21127534980008988  0.4571614129256787  0.22490952263769512  1.0000
  C   C11       1.0  0.21128085227813645  0.9571683245005715  0.27509146797928  1.0000
  C   C12       1.0  0.788721931269194  0.542832228871319  0.7750934305898625  1.0000
  C   C13       1.0  0.6479923386582983  0.9765977206678187  0.7703418563086544  1.0000
  C   C14       1.0  0.35200641525192117  0.5234028923226645  0.2703535109976656  1.0000
  C   C15       1.0  0.3520033697872833  0.0234101164019904  0.2296539605936943  1.0000
  C   C16       1.0  0.647981754072255  0.4765844999397402  0.7296494422096204  1.0000
  C   C17       1.0  0.4334502346385634  0.8876655893966827  0.757405469009079  1.0000
  C   C18       1.0  0.5665400248394618  0.6123274095010912  0.2574122373509269  1.0000
  C   C19       1.0  0.5665418500063026  0.11234103496060749  0.24259168594704758  1.0000
  C   C20       1.0  0.4334482277933206  0.3876651311568722  0.7425898238174966  1.0000
  C   C21       1.0  0.3668850096554409  0.865530687964167  0.6991630861535896  1.0000
  C   C22       1.0  0.633125171895294  0.6344577476936165  0.199172809590479  1.0000
  C   C23       1.0  0.6331214246528418  0.1344717775596536  0.30083585291114895  1.0000
  C   C24       1.0  0.3668721716855288  0.3655397554010874  0.8008301436386204  1.0000
  N   N1        1.0  0.8763034036716989  0.0988075816168745  0.6220437503971681  1.0000
  N   N2        1.0  0.12368463473563909  0.4011851523990941  0.1220458612328201  1.0000
  N   N3        1.0  0.1236938770767679  0.9011860601690173  0.3779520665030631  1.0000
  N   N4        1.0  0.8763164576088015  0.5988212860014671  0.8779544158842114  1.0000
  N   N5        1.0  0.7202502921106415  0.003891757757273197  0.8305990054205594  1.0000
  N   N6        1.0  0.27972945458350296  0.4961008960861406  0.3306031398304725  1.0000
  N   N7        1.0  0.27974179263448207  0.9961148666034846  0.1694003796378496  1.0000
  N   N8        1.0  0.7202676180939562  0.5038798747178035  0.66939936737149  1.0000
  O   O1        1.0  0.4334271349941261  0.9071691606232334  0.5958474999718888  1.0000
  O   O2        1.0  0.5665667595119787  0.5928319732702788  0.09585693021055872  1.0000
  O   O3        1.0  0.5665703959207845  0.0928399263576551  0.4041509930572573  1.0000
  O   O4        1.0  0.4334397166310707  0.4071730664575668  0.9041455770188662  1.0000
  O   O5        1.0  0.8432835247013559  0.07003175867171758  0.5678410385735404  1.0000
  O   O6        1.0  0.15671599974201908  0.4299694816276727  0.0678446389353979  1.0000
  O   O7        1.0  0.1567265752424092  0.9299744937686469  0.4321601306021066  1.0000
  O   O8        1.0  0.8433102928709104  0.5700351489791301  0.9321543001693158  1.0000
  O   O9        1.0  0.0411726272451958  0.19456764383530611  0.6399458449925532  1.0000
  O   O10       1.0  0.9588333176427282  0.3054299595560366  0.13994582880232537  1.0000
  O   O11       1.0  0.958844574560061  0.8054320243396091  0.36005532419469694  1.0000
  O   O12       1.0  0.04115721555647411  0.6945921471850982  0.860051772176881  1.0000
  O   O13       1.0  0.9057313441653534  0.09115393300047  0.8400050828460195  1.0000
  O   O14       1.0  0.09424744646385363  0.4088387872980732  0.3400030689754132  1.0000
  O   O15       1.0  0.0942607197225342  0.9088514042603606  0.15999385619142  1.0000
  O   O16       1.0  0.9057673704286772  0.5911248792919324  0.6599989922348186  1.0000
  O   O17       1.0  0.5977481824231035  0.9421779938026233  0.8719157674119203  1.0000
  O   O18       1.0  0.4022234656060135  0.5578108081460229  0.3719267535563162  1.0000
  O   O19       1.0  0.402245703753657  0.057828593363041074  0.1280818335681957  1.0000
  O   O20       1.0  0.5977611215517059  0.4421779456009389  0.6280766456648551  1.0000
  O   O21       1.0  0.15643209497719818  0.6477389776852506  0.5544481313265806  1.0000
  O   O22       1.0  0.8435560251491836  0.8522466193545313  0.0544463566076843  1.0000
  O   O23       1.0  0.8435599481336664  0.3522650724784242  0.4455521457717211  1.0000
  O   O24       1.0  0.15645573026571918  0.14775058619261464  0.945550798383792  1.0000
