data_image0
_chemical_formula_structural       Na4H24C24S4N4O12
_chemical_formula_sum              "Na4 H24 C24 S4 N4 O12"
_cell_length_a       4.893857469060249
_cell_length_b       11.336530176363423
_cell_length_c       14.060196099885381
_cell_angle_alpha    97.84265502032842
_cell_angle_beta     90.00031482812413
_cell_angle_gamma    89.99949060226824

_space_group_name_H-M_alt    "P 1"
_space_group_IT_number       1

loop_
  _space_group_symop_operation_xyz
  'x, y, z'

loop_
  _atom_site_type_symbol
  _atom_site_label
  _atom_site_symmetry_multiplicity
  _atom_site_fract_x
  _atom_site_fract_y
  _atom_site_fract_z
  _atom_site_occupancy
  Na  Na1       1.0  0.9850704832256981  0.13344208433357352  0.5534714612395533  1.0000
  Na  Na2       1.0  0.48506699275300497  0.36656148066749933  0.4465273478791118  1.0000
  Na  Na3       1.0  0.014956219650102298  0.8665631499444539  0.4465371655865268  1.0000
  Na  Na4       1.0  0.5149494931312474  0.6334409901827698  0.5534646264376518  1.0000
  H   H1        1.0  0.703184340430454  0.17824303396404412  0.8568461086110161  1.0000
  H   H2        1.0  0.20317701060099583  0.3217588760815033  0.14315269674026604  1.0000
  H   H3        1.0  0.29680149471301587  0.8217683491938673  0.14314823664005866  1.0000
  H   H4        1.0  0.7967986079489079  0.6782312050542528  0.8568514724217806  1.0000
  H   H5        1.0  0.9954364501167774  0.2755196181398674  0.9885791142855492  1.0000
  H   H6        1.0  0.49543518104253087  0.22448035194391028  0.011420043296531894  1.0000
  H   H7        1.0  0.004549385163564101  0.7244802095474443  0.01141755734668949  1.0000
  H   H8        1.0  0.5045424807903488  0.7755168325400846  0.9885813256683773  1.0000
  H   H9        1.0  0.28686662787605854  0.4502492143062327  0.9641173307865996  1.0000
  H   H10       1.0  0.786873933780754  0.04975240321088138  0.0358830258877845  1.0000
  H   H11       1.0  0.713143727980416  0.5497479540886374  0.035881191557919564  1.0000
  H   H12       1.0  0.21313233526944228  0.9502519006040584  0.964118389545696  1.0000
  H   H13       1.0  0.2919976052968494  0.520949053255073  0.8032233028705846  1.0000
  H   H14       1.0  0.7920067949474259  0.9790505262381543  0.19677782217578968  1.0000
  H   H15       1.0  0.708006620400674  0.4790525792923147  0.19677782827081094  1.0000
  H   H16       1.0  0.20801173435599196  0.020954663970904595  0.8032229763692199  1.0000
  H   H17       1.0  0.530934515211591  0.17734185213749495  0.6969192092032868  1.0000
  H   H18       1.0  0.030929675715249502  0.3226597820507209  0.30307852627478127  1.0000
  H   H19       1.0  0.4690635802687311  0.8226650989177243  0.3030782205463679  1.0000
  H   H20       1.0  0.9690663765435519  0.6773347311290292  0.6969225584136749  1.0000
  H   H21       1.0  0.5832310563309733  0.29502872396290764  0.6377985753605698  1.0000
  H   H22       1.0  0.0832316038514733  0.204972722409849  0.36219924010740806  1.0000
  H   H23       1.0  0.41675069214628735  0.7049737589725495  0.3621955339136703  1.0000
  H   H24       1.0  0.916752188089454  0.7950307190749369  0.6378070621748079  1.0000
  C   C1        1.0  0.9982327541800731  0.3915621640528783  0.7422172934985196  1.0000
  C   C2        1.0  0.4982316021781301  0.10843869042002298  0.2577826747853607  1.0000
  C   C3        1.0  0.0017510376523759003  0.608445681459365  0.25778094266505036  1.0000
  C   C4        1.0  0.5017521898133523  0.8915576156520328  0.7422207344047747  1.0000
  C   C5        1.0  0.8256971553161493  0.2949823033309825  0.7557365173832691  1.0000
  C   C6        1.0  0.32569380838657486  0.20501828032687539  0.24426309224809017  1.0000
  C   C7        1.0  0.17429685334681722  0.7050317751290931  0.2442623821326463  1.0000
  C   C8        1.0  0.6742940704445887  0.7949691215004434  0.7557393693101203  1.0000
  C   C9        1.0  0.8327193317077929  0.25362392650928467  0.8456823863511003  1.0000
  C   C10       1.0  0.33271576802403063  0.24637663193112755  0.15431723402026878  1.0000
  C   C11       1.0  0.1672542431770836  0.7463847733766115  0.15430953961603674  1.0000
  C   C12       1.0  0.6672516770281974  0.7536143556734628  0.8456898765444192  1.0000
  C   C13       1.0  0.9976342413237872  0.30865891782696037  0.919328156293666  1.0000
  C   C14       1.0  0.4976326956086865  0.1913419387960147  0.08067181107450949  1.0000
  C   C15       1.0  0.0023536372784888995  0.6913462483915183  0.08066837225982229  1.0000
  C   C16       1.0  0.5023470096383278  0.8086525824282942  0.9193306969241417  1.0000
  C   C17       1.0  0.16103949979081023  0.40637393563761753  0.9058996165201165  1.0000
  C   C18       1.0  0.6610427314488803  0.09362635290599995  0.0941003581758153  1.0000
  C   C19       1.0  0.8389545089925721  0.593626782458763  0.09409714988187548  1.0000
  C   C20       1.0  0.33894923400936966  0.9063735068311304  0.9059020067518873  1.0000
  C   C21       1.0  0.16181077979655362  0.44706770931747997  0.8167720680404782  1.0000
  C   C22       1.0  0.6618121583492781  0.05293257645966071  0.1832279078336896  1.0000
  C   C23       1.0  0.8381873157116434  0.552937468905462  0.18322659550486967  1.0000
  C   C24       1.0  0.338187980631659  0.9470654984077096  0.8167735559119079  1.0000
  S   S1        1.0  0.03268019942106551  0.4336965525715328  0.625895870812215  1.0000
  S   S2        1.0  0.5326761242928768  0.06630419694533168  0.3741039075569432  1.0000
  S   S3        1.0  0.9673505899506625  0.5663309062242232  0.37410872015248486  1.0000
  S   S4        1.0  0.4673587522519185  0.93367604934685  0.6258921026383886  1.0000
  N   N1        1.0  0.6680341895089726  0.23960806398422815  0.6811094187417907  1.0000
  N   N2        1.0  0.16803087639901554  0.26039307785294596  0.3188885264267469  1.0000
  N   N3        1.0  0.33195164568202534  0.760398871062584  0.31888516435310515  1.0000
  N   N4        1.0  0.8319529156064008  0.7396023418029714  0.6811154996612316  1.0000
  O   O1        1.0  0.19795984512647638  0.5424614816941329  0.6387295301451134  1.0000
  O   O2        1.0  0.6979516231656646  0.957537557135069  0.3612734912809258  1.0000
  O   O3        1.0  0.8020443805314059  0.45754908715148446  0.36127824192211466  1.0000
  O   O4        1.0  0.30204851580167263  0.04245781840786119  0.6387227065447334  1.0000
  O   O5        1.0  0.17246213259520002  0.33234917826112553  0.5677055789459046  1.0000
  O   O6        1.0  0.6724548462340323  0.16765017885701639  0.43229431844901706  1.0000
  O   O7        1.0  0.8275809171305112  0.6676684818438758  0.43229725796827256  1.0000
  O   O8        1.0  0.3275963772441202  0.8323389676356071  0.5677019277325213  1.0000
  O   O9        1.0  0.7568180945372022  0.45173996225153706  0.5882010556136947  1.0000
  O   O10       1.0  0.25681037718714345  0.0482644104275565  0.4117952694134245  1.0000
  O   O11       1.0  0.24321269487753477  0.5482722872037797  0.41178911446717587  1.0000
  O   O12       1.0  0.7432244992921185  0.9517346149152317  0.5882169640424593  1.0000
