data_image0
_chemical_formula_structural       Zn2H28C28N8O16
_chemical_formula_sum              "Zn2 H28 C28 N8 O16"
_cell_length_a       7.413302541997042
_cell_length_b       9.384486810421748
_cell_length_c       12.670366946447139
_cell_angle_alpha    105.52013656899194
_cell_angle_beta     90.00281239361505
_cell_angle_gamma    113.24876243756013

_space_group_name_H-M_alt    "P 1"
_space_group_IT_number       1

loop_
  _space_group_symop_operation_xyz
  'x, y, z'

loop_
  _atom_site_type_symbol
  _atom_site_label
  _atom_site_symmetry_multiplicity
  _atom_site_fract_x
  _atom_site_fract_y
  _atom_site_fract_z
  _atom_site_occupancy
  Zn  Zn1       1.0  0.8541870813870036  0.9999885546740191  0.7498753855383027  1.0000
  Zn  Zn2       1.0  0.14581351839552784  1.1412982026099909e-05  0.2501253211303691  1.0000
  H   H1        1.0  0.21298948445291896  0.8664882030554893  0.651289517972671  1.0000
  H   H2        1.0  0.3468478678413263  0.13364722179456123  0.848722570590631  1.0000
  H   H3        1.0  0.7870105093574864  0.13351055228902453  0.34871095084795906  1.0000
  H   H4        1.0  0.6531519890693573  0.8663539583381169  0.15127837393934834  1.0000
  H   H5        1.0  0.24440381535657713  0.8562324675313493  0.5098945593088259  1.0000
  H   H6        1.0  0.38858528416646737  0.1439072837822408  0.9901075766209642  1.0000
  H   H7        1.0  0.7555967825265101  0.14376749639059486  0.490105357380365  1.0000
  H   H8        1.0  0.6114145727442235  0.8560938963504371  0.00989336790901519  1.0000
  H   H9        1.0  0.3825143287455786  0.6757478647611707  0.7193548296443736  1.0000
  H   H10       1.0  0.7070154928750584  0.32423656799432626  0.7806185730035293  1.0000
  H   H11       1.0  0.6174882220541421  0.3242533075731091  0.2806445349001264  1.0000
  H   H12       1.0  0.29298375616406963  0.6757633960927196  0.21938134369892737  1.0000
  H   H13       1.0  0.1738870829394514  0.5876796442115337  0.38677703326784746  1.0000
  H   H14       1.0  0.5865129241328405  0.4126180230099268  0.11319765808334381  1.0000
  H   H15       1.0  0.8261109541554391  0.41231789525243573  0.6132224077385259  1.0000
  H   H16       1.0  0.4134869308784062  0.5873831533886502  0.8868024964671548  1.0000
  H   H17       1.0  0.20606361159649822  0.3082053107437873  0.4106701811810821  1.0000
  H   H18       1.0  0.8981502629741769  0.6919590983115712  0.08923115159196728  1.0000
  H   H19       1.0  0.7939330785538774  0.691792232619378  0.5893300498180309  1.0000
  H   H20       1.0  0.1018495920370697  0.3080420780870058  0.9107690029585385  1.0000
  H   H21       1.0  0.4406331308385276  0.40144244134173596  0.6937940260034878  1.0000
  H   H22       1.0  0.039296190652691965  0.5984548624690474  0.8060486692739983  1.0000
  H   H23       1.0  0.5593661201000374  0.598557526479411  0.306206680678443  1.0000
  H   H24       1.0  0.960704407230388  0.40154510145289635  0.19395124741519956  1.0000
  H   H25       1.0  0.3298358350637969  0.24327471128572853  0.5694675387471406  1.0000
  H   H26       1.0  0.08658343919151425  0.7567766428371459  0.9303152937052204  1.0000
  H   H27       1.0  0.6701641587466087  0.7567240440587856  0.4305329300734896  1.0000
  H   H28       1.0  0.9134171586915656  0.2432233210847984  0.0696846229839707  1.0000
  C   C1        1.0  0.5156590508934188  0.9644705635641347  0.6209014346141826  1.0000
  C   C2        1.0  0.5516972396445752  0.03574080363200242  0.8791011794561214  1.0000
  C   C3        1.0  0.48434154888910547  0.035529404091910514  0.3790992720544891  1.0000
  C   C4        1.0  0.44830336013794897  0.9642591640240429  0.12089952721255062  1.0000
  C   C5        1.0  0.30005413362928124  0.8409171527267177  0.5843355357182033  1.0000
  C   C6        1.0  0.4595181335068688  0.15923860444622315  0.9156667997875941  1.0000
  C   C7        1.0  0.6999451154098467  0.15908281136032804  0.41566438098425346  1.0000
  C   C8        1.0  0.5404811174317032  0.8407613633749167  0.0843339068943365  1.0000
  C   C9        1.0  0.32391031975075874  0.6101467885130347  0.6334572922394557  1.0000
  C   C10       1.0  0.7140312057052683  0.38992140195494335  0.8665002411763466  1.0000
  C   C11       1.0  0.6760916269762802  0.38985317524381463  0.36654262443647667  1.0000
  C   C12       1.0  0.28596864930597826  0.6100797744436335  0.13349991337415903  1.0000
  C   C13       1.0  0.22153645431465915  0.5602870092656289  0.45694640118865226  1.0000
  C   C14       1.0  0.6615406293139612  0.43991681855524706  0.04300767341435831  1.0000
  C   C15       1.0  0.7784621887523498  0.4397117425098785  0.5430532776657627  1.0000
  C   C16       1.0  0.33845861782572934  0.5600831417976907  0.9569914533086246  1.0000
  C   C17       1.0  0.23366159112981685  0.4239947322151069  0.46957231224133966  1.0000
  C   C18       1.0  0.8099412588250702  0.5761675533780706  0.030360892854865523  1.0000
  C   C19       1.0  0.7663376579093111  0.5760052318719319  0.5304276044611242  1.0000
  C   C20       1.0  0.1900566394706616  0.42383240713996895  0.9696382338813831  1.0000
  C   C21       1.0  0.3101440178857048  0.3409032430790547  0.6316630502791795  1.0000
  C   C22       1.0  0.9693318493093701  0.659042741902809  0.8681681738608019  1.0000
  C   C23       1.0  0.6898559759247009  0.6590955122654594  0.36833741854145063  1.0000
  C   C24       1.0  0.030667399729758012  0.3409572221842297  0.13183174284165486  1.0000
  C   C25       1.0  0.1245290310493203  0.27261292610032234  0.6882255522350462  1.0000
  C   C26       1.0  0.8517437085469625  0.7271289061487354  0.8115613204958123  1.0000
  C   C27       1.0  0.8754688672464114  0.7273870344177171  0.3117735745011956  1.0000
  C   C28       1.0  0.14825554049216544  0.2728710579383105  0.18843859620664458  1.0000
  N   N1        1.0  0.27683064800957885  0.6734820952339649  0.5599087214301406  1.0000
  N   N2        1.0  0.6035980707240824  0.3266805277572403  0.9400619479122836  1.0000
  N   N3        1.0  0.7231699517729455  0.32651787242208036  0.44009198523853127  1.0000
  N   N4        1.0  0.39640118021448956  0.6733194400638993  0.05993875876965397  1.0000
  N   N5        1.0  0.29874269912029666  0.45813398086064444  0.5796125202872416  1.0000
  N   N6        1.0  0.8408772584464544  0.5419107257419145  0.9203150132884659  1.0000
  N   N7        1.0  0.7012578987627904  0.5418659830612997  0.4203873964019492  1.0000
  N   N8        1.0  0.1591206398492773  0.4580892347761179  0.07968411344777589  1.0000
  O   O1        1.0  0.6457044650478068  0.9047466879830921  0.6237099669756744  1.0000
  O   O2        1.0  0.7413712465693649  0.09552049504662112  0.8761329181631722  1.0000
  O   O3        1.0  0.35429417991864653  0.09525206752651633  0.37629050185821455  1.0000
  O   O4        1.0  0.2586280024697629  0.9044794690404176  0.12386699853928462  1.0000
  O   O5        1.0  0.5455039998831879  0.10996078127276122  0.6462655329342653  1.0000
  O   O6        1.0  0.436243672531667  0.8902201980547135  0.8538048839813752  1.0000
  O   O7        1.0  0.45449660179877344  0.8900391901173921  0.3537359637138806  1.0000
  O   O8        1.0  0.5637555765074681  0.10977976603233232  0.1461950327210815  1.0000
  O   O9        1.0  0.10990464472713772  0.14631746944832005  0.7163613286013298  1.0000
  O   O10       1.0  0.9632656885394439  0.8534354743927894  0.7834156808651043  1.0000
  O   O11       1.0  0.8900932554680384  0.8536824948038204  0.2836385881143925  1.0000
  O   O12       1.0  0.036735515315761795  0.1465657018406858  0.21658447367212827  1.0000
  O   O13       1.0  0.00929537577235345  0.3411313543851406  0.7051863664532334  1.0000
  O   O14       1.0  0.6680587652245293  0.6584798645291344  0.7945935312361809  1.0000
  O   O15       1.0  0.990703867568456  0.658868598499595  0.2948111803107949  1.0000
  O   O16       1.0  0.3319410916861543  0.3415213156035436  0.2054074132937913  1.0000
