data_image0
_chemical_formula_structural       Ca2H20C8N4O20
_chemical_formula_sum              "Ca2 H20 C8 N4 O20"
_cell_length_a       7.386054028838587
_cell_length_b       7.38604622009594
_cell_length_c       10.459433444468713
_cell_angle_alpha    81.1998137931519
_cell_angle_beta     81.1998989214742
_cell_angle_gamma    65.91932235592255

_space_group_name_H-M_alt    "P 1"
_space_group_IT_number       1

loop_
  _space_group_symop_operation_xyz
  'x, y, z'

loop_
  _atom_site_type_symbol
  _atom_site_label
  _atom_site_symmetry_multiplicity
  _atom_site_fract_x
  _atom_site_fract_y
  _atom_site_fract_z
  _atom_site_occupancy
  Ca  Ca1       1.0  0.18638796809568692  0.8136148522040756  0.2499990317851938  1.0000
  Ca  Ca2       1.0  0.8136117404487492  0.18639000721206136  0.7499994495211337  1.0000
  H   H1        1.0  0.34213613210329186  0.28444389259804836  0.5158440020216304  1.0000
  H   H2        1.0  0.2844443166396076  0.3421347753726565  0.015844053898064172  1.0000
  H   H3        1.0  0.6578639960241902  0.7155564864336623  0.4841548990910595  1.0000
  H   H4        1.0  0.7155558114878672  0.6578656036590544  0.9841548472146258  1.0000
  H   H5        1.0  0.11809314021878947  0.5018464263439811  0.5433921670921862  1.0000
  H   H6        1.0  0.5018496254176057  0.11809080411472192  0.04339128053957347  1.0000
  H   H7        1.0  0.8819069813536728  0.49815394613119673  0.45660769148120994  1.0000
  H   H8        1.0  0.49815050926488175  0.8819095814735293  0.9566066631123958  1.0000
  H   H9        1.0  0.36608344414820937  0.5625204837105287  0.6261348362601636  1.0000
  H   H10       1.0  0.5625211065849102  0.36608225817381873  0.12613496696926058  1.0000
  H   H11       1.0  0.6339180503968294  0.43747990435370104  0.3738639226589483  1.0000
  H   H12       1.0  0.4374776551250007  0.6339181118253805  0.8738640763370069  1.0000
  H   H13       1.0  0.21944287982773855  0.3748166655070974  0.32360052767052844  1.0000
  H   H14       1.0  0.3748164580004172  0.21944389077049203  0.8235995780389587  1.0000
  H   H15       1.0  0.7805570659942305  0.6251807170342973  0.6763996581716397  1.0000
  H   H16       1.0  0.6251817149309673  0.7805579762358759  0.17639841526899858  1.0000
  H   H17       1.0  0.26043072382529414  0.8523587464388882  0.5161097313137191  1.0000
  H   H18       1.0  0.8523590918221088  0.26043192056891945  0.016109826529770985  1.0000
  H   H19       1.0  0.7395694043021804  0.1476416325928298  0.4838891697989636  1.0000
  H   H20       1.0  0.14764238305790656  0.7395684478257109  0.9838918047714812  1.0000
  C   C1        1.0  0.26655615237668673  0.4448962540000919  0.48877095117290265  1.0000
  C   C2        1.0  0.4448985941512689  0.2665556658996096  0.9887699035460286  1.0000
  C   C3        1.0  0.733443975750788  0.555104125031626  0.5112279499397872  1.0000
  C   C4        1.0  0.5551029069487826  0.7334447287211532  0.011227897912362972  1.0000
  C   C5        1.0  0.38787363320017926  0.5532671310253932  0.5203020635554977  1.0000
  C   C6        1.0  0.5532674705014954  0.3878742946811471  0.020302018274755102  1.0000
  C   C7        1.0  0.6121265014823081  0.44673325456285795  0.47969588009647157  1.0000
  C   C8        1.0  0.4467340240435433  0.6121260933830824  0.9796967406443498  1.0000
  N   N1        1.0  0.7450063996010171  0.959736629199554  0.30778824423200035  1.0000
  N   N2        1.0  0.9597454900753348  0.7449822841121829  0.8077966308667115  1.0000
  N   N3        1.0  0.2550017447263499  0.04026080753693861  0.6922110884487012  1.0000
  N   N4        1.0  0.04027022036946448  0.2549822610149377  0.19221488102254367  1.0000
  O   O1        1.0  0.24893219764986438  0.4816939755249052  0.35079521495221394  1.0000
  O   O2        1.0  0.4816917166811405  0.24893489715670822  0.8507933823594697  1.0000
  O   O3        1.0  0.751067328589066  0.5183078874009156  0.6492045510835922  1.0000
  O   O4        1.0  0.5183044944991406  0.751068451267777  0.14920466060446808  1.0000
  O   O5        1.0  0.31805963440686474  0.7501294494014631  0.4524565493384711  1.0000
  O   O6        1.0  0.7501270029219285  0.31806206388031183  0.9524548558520323  1.0000
  O   O7        1.0  0.6819379300809628  0.24987389494247486  0.5475432663533155  1.0000
  O   O8        1.0  0.24987372053908538  0.6819368247007628  0.04754413779825477  1.0000
  O   O9        1.0  0.8277490758400461  0.8417942391892196  0.2192166191217026  1.0000
  O   O10       1.0  0.8417940534546984  0.8277437929617972  0.7192191211213553  1.0000
  O   O11       1.0  0.1722492728418317  0.15821061775093165  0.7807810469174896  1.0000
  O   O12       1.0  0.15820844289689967  0.17225061115431123  0.2807820650631356  1.0000
  O   O13       1.0  0.8635623091293493  0.983383044649713  0.37708985477364376  1.0000
  O   O14       1.0  0.983383384664954  0.8635657867687244  0.877090489368342  1.0000
  O   O15       1.0  0.13643919197070184  0.016617349971056704  0.622907946684755  1.0000
  O   O16       1.0  0.0166157154359254  0.1364405499849752  0.12290981432181516  1.0000
  O   O17       1.0  0.562207533666914  0.046841766229874786  0.3278953558397575  1.0000
  O   O18       1.0  0.0468201813359029  0.5622179643686352  0.8279068067293734  1.0000
  O   O19       1.0  0.43778727832075487  0.9531615403794262  0.6721076166213251  1.0000
  O   O20       1.0  0.9531563205632314  0.4378001064455574  0.17210513724438656  1.0000
