data_image0
_chemical_formula_structural       Zn4H56C60N12O16
_chemical_formula_sum              "Zn4 H56 C60 N12 O16"
_cell_length_a       10.344794305501878
_cell_length_b       14.728076161027156
_cell_length_c       14.9753481803886
_cell_angle_alpha    115.38741236059086
_cell_angle_beta     90.000705235775
_cell_angle_gamma    110.55640953857034

_space_group_name_H-M_alt    "P 1"
_space_group_IT_number       1

loop_
  _space_group_symop_operation_xyz
  'x, y, z'

loop_
  _atom_site_type_symbol
  _atom_site_label
  _atom_site_symmetry_multiplicity
  _atom_site_fract_x
  _atom_site_fract_y
  _atom_site_fract_z
  _atom_site_occupancy
  Zn  Zn1       1.0  0.347092408376419  0.41925597208235404  0.9677349324384535  1.0000
  Zn  Zn2       1.0  0.9278046682784692  0.580749747527733  0.5322650704997542  1.0000
  Zn  Zn3       1.0  0.6528973159018463  0.5807364711271675  0.03226430139386591  1.0000
  Zn  Zn4       1.0  0.0722059843620002  0.4192516864592619  0.4677339761267163  1.0000
  H   H1        1.0  0.781620302781093  0.2649034036204797  0.7875683444497952  1.0000
  H   H2        1.0  0.7120940110728355  0.2995081856838127  0.8995282543168555  1.0000
  H   H3        1.0  0.5507608144318681  0.8478423046938772  0.010131293155744412  1.0000
  H   H4        1.0  0.13626024145763438  0.36043324998755816  0.10373687434730527  1.0000
  H   H5        1.0  0.8473239159537371  0.2850634865628265  0.046905194045017064  1.0000
  H   H6        1.0  0.12452339904236004  0.41283406552914675  0.8021578484880861  1.0000
  H   H7        1.0  0.9629598585800067  0.2997097278942534  0.7362084166687664  1.0000
  H   H8        1.0  0.12025057767224474  0.2787126287506397  0.748324890414217  1.0000
  H   H9        1.0  0.5848826286074599  0.10417783672914281  0.7847345905641916  1.0000
  H   H10       1.0  0.6779362095932555  0.1189342705457221  0.8917919409165691  1.0000
  H   H11       1.0  0.2671874217570221  0.545365665751021  0.7685968119699567  1.0000
  H   H12       1.0  0.25796693426128303  0.8490383538673639  0.8053261403144913  1.0000
  H   H13       1.0  0.7623174529151981  0.05833361234044081  0.6836683901685204  1.0000
  H   H14       1.0  0.8774885433505945  0.09646644404728019  0.7919264929666808  1.0000
  H   H15       1.0  0.5168339569262062  0.7351630667519516  0.712573748427765  1.0000
  H   H16       1.0  0.41266762527893525  0.7005168184365332  0.6006182574298151  1.0000
  H   H17       1.0  0.7032381186594563  0.15211424337891802  0.4899570981581363  1.0000
  H   H18       1.0  0.7756338658637744  0.6395379848902111  0.39625092845245996  1.0000
  H   H19       1.0  0.5621260350699445  0.7150011065835715  0.4532136687227251  1.0000
  H   H20       1.0  0.711928132217821  0.5873884030633505  0.6979612528065999  1.0000
  H   H21       1.0  0.6635278710986158  0.700544055954012  0.7639230293000948  1.0000
  H   H22       1.0  0.8417910222323999  0.7215047026485595  0.7517484404165699  1.0000
  H   H23       1.0  0.4806470312388385  0.8958698630827654  0.7154774264749475  1.0000
  H   H24       1.0  0.5588265451694596  0.8811291199877259  0.6083506088959963  1.0000
  H   H25       1.0  0.7217620670114826  0.45459191633065643  0.7312734599709926  1.0000
  H   H26       1.0  0.40899927775359407  0.1509538825472774  0.6945896634805919  1.0000
  H   H27       1.0  0.7040382017787152  0.9417339021412799  0.8164113560528392  1.0000
  H   H28       1.0  0.7809364152926861  0.903521302626622  0.708090726762947  1.0000
  H   H29       1.0  0.2183788479078219  0.7351020934879816  0.2124357670119538  1.0000
  H   H30       1.0  0.28790350839508266  0.7004940487119529  0.10047447112179951  1.0000
  H   H31       1.0  0.4492217636203791  0.15214357873176  0.9898724994791123  1.0000
  H   H32       1.0  0.8637416659536967  0.6395738940895583  0.8962645979204921  1.0000
  H   H33       1.0  0.15267615450075317  0.7149477172161057  0.9531020094117083  1.0000
  H   H34       1.0  0.87547284855971  0.5871714253972584  0.19784759587436435  1.0000
  H   H35       1.0  0.037037919208358944  0.7002949566984995  0.263794681857881  1.0000
  H   H36       1.0  0.8797489855024807  0.721293693437673  0.2516775682400977  1.0000
  H   H37       1.0  0.4151177955074915  0.8958244069825696  0.21526613553602653  1.0000
  H   H38       1.0  0.32206808426402506  0.8810679793194682  0.10820745227454152  1.0000
  H   H39       1.0  0.7328021701984895  0.45462844645012984  0.23139511762948925  1.0000
  H   H40       1.0  0.7420437152588094  0.15096307385184105  0.1946742391874494  1.0000
  H   H41       1.0  0.2376887320437221  0.941674353568331  0.316332095695948  1.0000
  H   H42       1.0  0.12251845565863582  0.903543150083941  0.20807535234707336  1.0000
  H   H43       1.0  0.48317389990287307  0.264842442634894  0.2874276972073559  1.0000
  H   H44       1.0  0.5873440997322915  0.2994886939698986  0.3993825217339335  1.0000
  H   H45       1.0  0.2967726772250715  0.8478855435536944  0.5100445876370543  1.0000
  H   H46       1.0  0.22437332483960404  0.3604642586214695  0.6037497975888897  1.0000
  H   H47       1.0  0.43788360090474754  0.2850060278632612  0.5467898027910109  1.0000
  H   H48       1.0  0.288082314686811  0.41262035333814856  0.30204491103189207  1.0000
  H   H49       1.0  0.3364824310017696  0.2994663443679784  0.23608116180741226  1.0000
  H   H50       1.0  0.15821831165231262  0.27850569456811775  0.24825641713708538  1.0000
  H   H51       1.0  0.5193633161912742  0.10413482740628412  0.28452433906690533  1.0000
  H   H52       1.0  0.4411817210250533  0.1188772082111882  0.391650516807168  1.0000
  H   H53       1.0  0.27824364507607413  0.5454054362173082  0.26872452058956486  1.0000
  H   H54       1.0  0.5909937245685412  0.8490451174265488  0.30540567802056257  1.0000
  H   H55       1.0  0.2959718466817876  0.058274057385396795  0.18359046265346277  1.0000
  H   H56       1.0  0.2190755664788  0.09648665684290592  0.2919110919265293  1.0000
  C   C1        1.0  0.4106181746913579  0.6898996020436884  0.8956271222380393  1.0000
  C   C2        1.0  0.7694709965059018  0.2510731762218867  0.8539410824656528  1.0000
  C   C3        1.0  0.4660444487987689  0.8034624129365469  0.9456122680076432  1.0000
  C   C4        1.0  0.4097517176026031  0.8606706372994353  0.9131319886097343  1.0000
  C   C5        1.0  0.4564716907463905  0.6255562741136346  0.9347569810850586  1.0000
  C   C6        1.0  0.07490940845878673  0.3414432830041321  0.03485187122971209  1.0000
  C   C7        1.0  0.9327648916075475  0.30452110448640474  0.007849097481972867  1.0000
  C   C8        1.0  0.060673408903063795  0.3286539025228167  0.7868118115624086  1.0000
  C   C9        1.0  0.03619384133800451  0.3251878797303576  0.8833785118302302  1.0000
  C   C10       1.0  0.6911890012886345  0.12967580736603423  0.8235087947702268  1.0000
  C   C11       1.0  0.3063293652986801  0.6338687235150575  0.809802132093985  1.0000
  C   C12       1.0  0.25256431874662877  0.6903612623136652  0.7758545819532187  1.0000
  C   C13       1.0  0.30164176059139447  0.8039921873435746  0.8292969646814399  1.0000
  C   C14       1.0  0.1470667835202236  0.6276243689865454  0.6801104996973564  1.0000
  C   C15       1.0  0.7657513997101689  0.058849065300492505  0.7575723446335374  1.0000
  C   C16       1.0  0.720818977461761  0.3100532538981612  0.6043512059352594  1.0000
  C   C17       1.0  0.5184638733297647  0.7490066498970975  0.6462079789486664  1.0000
  C   C18       1.0  0.6628338784389669  0.19650000920707103  0.5544335521213526  1.0000
  C   C19       1.0  0.5492719706369372  0.1393263369787263  0.5868924622854053  1.0000
  C   C20       1.0  0.8310117666424264  0.3743959877444071  0.5652343844456809  1.0000
  C   C21       1.0  0.7333738955137861  0.658612552465975  0.46517814822912124  1.0000
  C   C22       1.0  0.6282097848112329  0.6955922360401131  0.4922469853310572  1.0000
  C   C23       1.0  0.7322638482442869  0.6715789660442297  0.7132814901844569  1.0000
  C   C24       1.0  0.711145634863769  0.6750005829161555  0.6167117765722951  1.0000
  C   C25       1.0  0.5614383627132257  0.8704042342759808  0.6766428930390304  1.0000
  C   C26       1.0  0.6724395657876556  0.36609547506893153  0.6901156518134854  1.0000
  C   C27       1.0  0.5621893367123222  0.30963304302819955  0.724081368513737  1.0000
  C   C28       1.0  0.49773926685121245  0.19602209572745016  0.6706587651828428  1.0000
  C   C29       1.0  0.5193740980757795  0.37228193462568987  0.8198329032103047  1.0000
  C   C30       1.0  0.7068823095432819  0.9411962493570627  0.7424959919077806  1.0000
  C   C31       1.0  0.5893577580895978  0.3100903913689166  0.10437173862401039  1.0000
  C   C32       1.0  0.23052596567195857  0.7489298770145184  0.1460613230494445  1.0000
  C   C33       1.0  0.5339409901309723  0.19652919277186243  0.05439128441668829  1.0000
  C   C34       1.0  0.5902411571616427  0.13932424035188973  0.08687095047403659  1.0000
  C   C35       1.0  0.5434725159213444  0.37441086524075484  0.06523550998058177  1.0000
  C   C36       1.0  0.92508684226366  0.6585622141900558  0.965152240257261  1.0000
  C   C37       1.0  0.06723273981638302  0.6954852208929481  0.9921526947514251  1.0000
  C   C38       1.0  0.9393229944245576  0.6713499664203371  0.2131909404668734  1.0000
  C   C39       1.0  0.9638024578345324  0.6748119138986723  0.11662184121562548  1.0000
  C   C40       1.0  0.3088132082126833  0.8703280739412378  0.17649129145765832  1.0000
  C   C41       1.0  0.6936591011554186  0.36612700443013324  0.1901938227225131  1.0000
  C   C42       1.0  0.7474406990475728  0.30963856866488737  0.22413777376412014  1.0000
  C   C43       1.0  0.6983625301455163  0.19601005625383286  0.17070376138513407  1.0000
  C   C44       1.0  0.8529503976706678  0.37237465534402503  0.3198795100916811  1.0000
  C   C45       1.0  0.2342545253681152  0.9411564472773932  0.24242843458066687  1.0000
  C   C46       1.0  0.27919537359362334  0.6899497768866355  0.3956558644926247  1.0000
  C   C47       1.0  0.48154673086060745  0.2510004876550483  0.35379482611892143  1.0000
  C   C48       1.0  0.33717743408644923  0.8035046781195164  0.44556887984983007  1.0000
  C   C49       1.0  0.4507295774192386  0.860674287855062  0.4131049050354959  1.0000
  C   C50       1.0  0.16900127244399246  0.6256005520306687  0.4347625831040958  1.0000
  C   C51       1.0  0.2666392008378012  0.34139376932226645  0.5348243103074708  1.0000
  C   C52       1.0  0.37180015325344584  0.30441163563687473  0.5077551001427594  1.0000
  C   C53       1.0  0.2677461955356506  0.328428984080773  0.2867223278350508  1.0000
  C   C54       1.0  0.2888645537204155  0.3250057232883634  0.38329401417819736  1.0000
  C   C55       1.0  0.4385700545262807  0.12960046253800783  0.3233575396441708  1.0000
  C   C56       1.0  0.32756609316924573  0.6339075716425101  0.3098880865014024  1.0000
  C   C57       1.0  0.4378013213732004  0.6903651350568295  0.27591495937393506  1.0000
  C   C58       1.0  0.5022602030897404  0.8039801730839784  0.32933662942389214  1.0000
  C   C59       1.0  0.48060270656670684  0.6277040022475618  0.1801595600334949  1.0000
  C   C60       1.0  0.29312555040616667  0.05880926629756542  0.2575041208518698  1.0000
  N   N1        1.0  0.909504904500622  0.2948742732472382  0.9124757958425178  1.0000
  N   N2        1.0  0.4564370827770647  0.9755419517711277  0.9593538294502935  1.0000
  N   N3        1.0  0.13795659990699968  0.35402186822641113  0.9573496201320495  1.0000
  N   N4        1.0  0.614736178487064  0.7053098019934653  0.5876543571010373  1.0000
  N   N5        1.0  0.4810048924708782  0.024472736716468494  0.5406894153293891  1.0000
  N   N6        1.0  0.7839439843091468  0.6460677456808313  0.5426746429294907  1.0000
  N   N7        1.0  0.09049190663225204  0.7051304113740926  0.08752730269254266  1.0000
  N   N8        1.0  0.5435598002930107  0.024451275577625605  0.0406524152062957  1.0000
  N   N9        1.0  0.8620373534687502  0.6459771003799304  0.04265238573805864  1.0000
  N   N10       1.0  0.3852753876782343  0.2946973261284285  0.4123504472713507  1.0000
  N   N11       1.0  0.5189988909862678  0.9755246252903191  0.4593065659347815  1.0000
  N   N12       1.0  0.2160681407063906  0.3539385667343141  0.45732981492871255  1.0000
  O   O1        1.0  0.5830773469656806  0.665782123380538  0.9777957856941767  1.0000
  O   O2        1.0  0.3602220728345316  0.536405476011737  0.9219836680720447  1.0000
  O   O3        1.0  0.06294196910326388  0.6690300879118639  0.6689307077106292  1.0000
  O   O4        1.0  0.1539900021799384  0.5384787608586096  0.6179616081970849  1.0000
  O   O5        1.0  0.9173222742145767  0.3341322267043623  0.5221388945958552  1.0000
  O   O6        1.0  0.8239854374692255  0.4635896259090444  0.5780642282399667  1.0000
  O   O7        1.0  0.393827881768523  0.33091030722580683  0.8309923121978358  1.0000
  O   O8        1.0  0.6154276018060827  0.46137591844473047  0.8820570882968184  1.0000
  O   O9        1.0  0.41687171646660914  0.3341792621235413  0.022203609892073886  1.0000
  O   O10       1.0  0.6397103641157785  0.4635690581795942  0.07800061223860405  1.0000
  O   O11       1.0  0.9370684877085438  0.3309632205180081  0.331058209447093  1.0000
  O   O12       1.0  0.8460344513189568  0.4615251417286572  0.38203381277322984  1.0000
  O   O13       1.0  0.08269176593574913  0.6658585812719481  0.4778603124440081  1.0000
  O   O14       1.0  0.17603090938892066  0.5364077294584676  0.42193308579035  1.0000
  O   O15       1.0  0.6061411761344146  0.66906013489605  0.16899290099851075  1.0000
  O   O16       1.0  0.38453336139153305  0.5386034683034924  0.11793793451199262  1.0000
