data_image0
_chemical_formula_structural       Zn4H38C49Br2N16O5
_chemical_formula_sum              "Zn4 H38 C49 Br2 N16 O5"
_cell_length_a       14.575783083612711
_cell_length_b       15.204297035628533
_cell_length_c       15.330545683365072
_cell_angle_alpha    69.21788936129151
_cell_angle_beta     65.99837788195589
_cell_angle_gamma    105.34392616095919

_space_group_name_H-M_alt    "P 1"
_space_group_IT_number       1

loop_
  _space_group_symop_operation_xyz
  'x, y, z'

loop_
  _atom_site_type_symbol
  _atom_site_label
  _atom_site_symmetry_multiplicity
  _atom_site_fract_x
  _atom_site_fract_y
  _atom_site_fract_z
  _atom_site_occupancy
  Zn  Zn1       1.0  0.08724322445672096  0.5083460769916429  0.8561557869556393  1.0000
  Zn  Zn2       1.0  0.8630503777822724  0.4921001931041075  0.1502052371030728  1.0000
  Zn  Zn3       1.0  0.03557446660661872  0.3795961043972653  0.13887004025545474  1.0000
  Zn  Zn4       1.0  0.9785763864159379  0.6433418962939826  0.8570671530781339  1.0000
  H   H1        1.0  0.08852638259679695  0.3129860181796432  0.8189450453873447  1.0000
  H   H2        1.0  0.6758236028884498  0.30490244009862266  0.19212265045710805  1.0000
  H   H3        1.0  0.9397585558848152  0.5454717949556456  0.3904806731241948  1.0000
  H   H4        1.0  0.08140607940272569  0.7881423244624416  0.4011078542459358  1.0000
  H   H5        1.0  0.04282913867535865  0.7435586702133747  0.28462213508078793  1.0000
  H   H6        1.0  0.20172737095011692  0.5556668736912443  0.43927371106028795  1.0000
  H   H7        1.0  0.24328375603507624  0.5793973654321718  0.2678055598532437  1.0000
  H   H8        1.0  0.3069871684469447  0.7204394869364421  0.20046297211540326  1.0000
  H   H9        1.0  0.2285381385743364  0.8311047383067348  0.31530481909577895  1.0000
  H   H10       1.0  0.8591306579215472  0.15772099101921108  0.385461429098875  1.0000
  H   H11       1.0  0.3767730122250229  0.22438137093662658  0.12321482242390396  1.0000
  H   H12       1.0  0.9806648362513927  0.673360246803995  0.1839502434180389  1.0000
  H   H13       1.0  0.6732384741468139  0.3562761889488472  0.8608397100794322  1.0000
  H   H14       1.0  0.5425016180694868  0.2831548426681749  0.11102250004486786  1.0000
  H   H15       1.0  0.5126650601925249  0.1616056463610107  0.6093338583811486  1.0000
  H   H16       1.0  0.6329347178419128  0.027010882260981424  0.57386881680452  1.0000
  H   H17       1.0  0.34022953466875816  0.99853106624807  0.7498794307449399  1.0000
  H   H18       1.0  0.4780798882714808  0.8759143515777837  0.7213551088638822  1.0000
  H   H19       1.0  0.7743734336273891  0.8226865800974467  0.20091924764805197  1.0000
  H   H20       1.0  0.868621583617305  0.9335235910818727  0.9495285054777294  1.0000
  H   H21       1.0  0.8057922059268776  0.0007838592140956267  0.16680254863954502  1.0000
  H   H22       1.0  0.025449744601360264  0.748569350229566  0.5907694356315004  1.0000
  H   H23       1.0  0.1460348552898837  0.20610670992617497  0.2172458850073865  1.0000
  H   H24       1.0  0.6471308209030867  0.3126637717467204  0.4142548109045733  1.0000
  H   H25       1.0  0.1823984094348108  0.5430613563524747  0.6008389810174389  1.0000
  H   H26       1.0  0.865393283181888  0.46186004976068784  0.8304618867850518  1.0000
  H   H27       1.0  0.9141323937138424  0.15366203062678357  0.1800966680760894  1.0000
  H   H28       1.0  0.71279454545477  0.6511488526544014  0.28215150114977644  1.0000
  H   H29       1.0  0.21273498026529564  0.8357858023898926  0.08366674499523438  1.0000
  H   H30       1.0  0.5939056101028586  0.37136063570478955  0.7723892419080371  1.0000
  H   H31       1.0  0.13841424740941494  0.1503460968909921  0.8910581013653737  1.0000
  H   H32       1.0  0.32186555942231376  0.5692508737144522  0.8130019919702176  1.0000
  H   H33       1.0  0.9021958741857222  0.8271205390518195  0.8516840778576547  1.0000
  H   H34       1.0  0.4281485318771134  0.4958847516122945  0.9001986175888985  1.0000
  H   H35       1.0  0.16088289153802293  0.84911696416016  0.8359239578051284  1.0000
  H   H36       1.0  0.20783924708782567  0.5346158473115352  0.15088259833331102  1.0000
  H   H37       1.0  0.9437000180431954  0.5904702096426107  0.520185861840666  1.0000
  H   H38       1.0  0.9888952907607307  0.49470234313008643  0.5577260071023815  1.0000
  C   C1        1.0  0.052206823248120426  0.29039503966281904  0.9059137275378359  1.0000
  C   C2        1.0  0.34677874450956386  0.4335991222451768  0.9779791563112067  1.0000
  C   C3        1.0  0.1882186930843236  0.7890680042969865  0.8368202651082581  1.0000
  C   C4        1.0  0.7392497524695119  0.3532192240170532  0.10203038697475353  1.0000
  C   C5        1.0  0.14582273995871745  0.5614842950400815  0.15141855309713032  1.0000
  C   C6        1.0  0.2957628323873964  0.7953584468693223  0.8071905268452466  1.0000
  C   C7        1.0  0.11280319830551386  0.6254579801238194  0.1908730743353216  1.0000
  C   C8        1.0  0.31779090586849895  0.32690894069469323  0.05242208191560139  1.0000
  C   C9        1.0  0.8246369805606053  0.769014981715202  0.03456784055061485  1.0000
  C   C10       1.0  0.010732659577222166  0.5685410264060451  0.48714511078851047  1.0000
  C   C11       1.0  0.014946812955443513  0.551923177753487  0.3934090709646296  1.0000
  C   C12       1.0  0.7251405339630708  0.35705304432966756  0.014831168012825916  1.0000
  C   C13       1.0  0.14252794110748823  0.7649403517432489  0.35808579886902686  1.0000
  C   C14       1.0  0.22018675495258583  0.6359653252690336  0.3825249667167725  1.0000
  C   C15       1.0  0.12626079853342287  0.6608422534250877  0.4437008561064245  1.0000
  C   C16       1.0  0.82099470953208  0.2098541470866451  0.3741668614687086  1.0000
  C   C17       1.0  0.12455441593312604  0.6438378164654921  0.2770069663911768  1.0000
  C   C18       1.0  0.12581881850181992  0.7497325828711325  0.26995546027962536  1.0000
  C   C19       1.0  0.23144806650724103  0.6453571665672869  0.27494737094473715  1.0000
  C   C20       1.0  0.4981510548007296  0.32265297586510416  0.9465007197227066  1.0000
  C   C21       1.0  0.3951685080494798  0.2853945547056753  0.04436873250401155  1.0000
  C   C22       1.0  0.5993897247398153  0.3259920332617129  0.9441428795290461  1.0000
  C   C23       1.0  0.7138266602384037  0.19441640621920434  0.45008008691794293  1.0000
  C   C24       1.0  0.6160080057860214  0.3135163297835248  0.027869409617593852  1.0000
  C   C25       1.0  0.5210352393772482  0.08885815060392588  0.627416863505907  1.0000
  C   C26       1.0  0.622233315220477  0.09859187084736486  0.5561476905280072  1.0000
  C   C27       1.0  0.4170289267789471  0.9896605190885522  0.7160510713458164  1.0000
  C   C28       1.0  0.05972306470451384  0.6945475146168718  0.6104173724565027  1.0000
  C   C29       1.0  0.4037681012631042  0.8888279616082572  0.7497421070286945  1.0000
  C   C30       1.0  0.8187685371120565  0.8883749092256893  0.11421761956697894  1.0000
  C   C31       1.0  0.8345712201503873  0.8667763004321644  0.03183905061377583  1.0000
  C   C32       1.0  0.8576397904556006  0.9943206048211978  0.09619208536435062  1.0000
  C   C33       1.0  0.957192818413624  0.08669003765171353  0.006353518885767119  1.0000
  C   C34       1.0  0.11591486771487097  0.656009005725281  0.5471590621715379  1.0000
  C   C35       1.0  0.712886180326315  0.2888721914217813  0.38989945208177784  1.0000
  C   C36       1.0  0.13892202358118777  0.5891438525044208  0.6160835078165474  1.0000
  C   C37       1.0  0.8346883052482141  0.4319897083669277  0.9179913944274317  1.0000
  C   C38       1.0  0.9610746152234101  0.2092822854274772  0.09025810800461195  1.0000
  C   C39       1.0  0.9862650883178222  0.18801185606799464  0.0033045579344772686  1.0000
  C   C40       1.0  0.7494528554115265  0.614187943323593  0.23641526912258118  1.0000
  C   C41       1.0  0.21426157621539949  0.8466476233359188  0.15139116165912017  1.0000
  C   C42       1.0  0.5132406659229433  0.36336799921773644  0.8363371447736796  1.0000
  C   C43       1.0  0.05429023377280383  0.0902021148260418  0.9172093569306623  1.0000
  C   C44       1.0  0.35889545804195694  0.6503743847570008  0.8004265451597445  1.0000
  C   C45       1.0  0.27904235895088214  0.6927472682068442  0.8234891448263325  1.0000
  C   C46       1.0  0.030248248315530312  0.6321890676955136  0.16778035444715303  1.0000
  C   C47       1.0  0.20368989282533784  0.2854346899314492  0.1415989021980123  1.0000
  C   C48       1.0  0.8693117033196957  0.7656936474391928  0.9362302019558868  1.0000
  C   C49       1.0  0.7990253816496918  0.66772772694884  0.11696626199802997  1.0000
  Br  Br1       1.0  0.0022988028370534335  0.40845166106034725  0.42663134817147597  1.0000
  Br  Br2       1.0  0.3712232802699092  0.7300788578250492  0.345513809125336  1.0000
  N   N1        1.0  0.06471194354666214  0.3655476775382311  0.9336734056665675  1.0000
  N   N2        1.0  0.8777769490956686  0.30463422779560295  0.2775982521199792  1.0000
  N   N3        1.0  0.050361165587197936  0.65333532258952  0.7096439251904767  1.0000
  N   N4        1.0  0.8103144969967461  0.3531526438794401  0.287535025559201  1.0000
  N   N5        1.0  0.09953598219328812  0.5879152621142937  0.7124939645831814  1.0000
  N   N6        1.0  0.9068915734430407  0.4738892466313304  0.945665192535408  1.0000
  N   N7        1.0  0.008361187788828823  0.3154393111056422  0.04777318421659515  1.0000
  N   N8        1.0  0.16959596099892613  0.6332092210246004  0.8580470514463909  1.0000
  N   N9        1.0  0.01369730198985763  0.574347633643093  0.12115834935550386  1.0000
  N   N10       1.0  0.1709959583240419  0.36072340291869404  0.11921370273707049  1.0000
  N   N11       1.0  0.87319206140333  0.6728357104134021  0.95792326211464  1.0000
  N   N12       1.0  0.8309150704394527  0.6129971579426794  0.06777155422759044  1.0000
  N   N13       1.0  0.26126611474236233  0.4540041467581375  0.017877828498960552  1.0000
  N   N14       1.0  0.11543608342461914  0.6924345157532628  0.8654355714446705  1.0000
  N   N15       1.0  0.0846959473375719  0.5299593740549824  0.1114301392561146  1.0000
  N   N16       1.0  0.845849653233266  0.4230831310884611  0.06089339531927592  1.0000
  O   O1        1.0  0.7466421689784755  0.5282881139773964  0.28801231230240626  1.0000
  O   O2        1.0  0.2817940392759439  0.9311191241546696  0.12939836120483508  1.0000
  O   O3        1.0  0.44832130501811934  0.38222031295630654  0.8098580865754668  1.0000
  O   O4        1.0  0.05198826358511624  0.03517654072246058  0.8747404548597614  1.0000
  O   O5        1.0  0.4598906295192293  0.6983849042079984  0.7672785362252552  1.0000
