data_image0
_chemical_formula_structural       Zn8H28C46O26
_chemical_formula_sum              "Zn8 H28 C46 O26"
_cell_length_a       18.62256842198926
_cell_length_b       18.618744014753034
_cell_length_c       18.615038944519483
_cell_angle_alpha    119.96646003613124
_cell_angle_beta     119.58629679057277
_cell_angle_gamma    90.38939352556827

_space_group_name_H-M_alt    "P 1"
_space_group_IT_number       1

loop_
  _space_group_symop_operation_xyz
  'x, y, z'

loop_
  _atom_site_type_symbol
  _atom_site_label
  _atom_site_symmetry_multiplicity
  _atom_site_fract_x
  _atom_site_fract_y
  _atom_site_fract_z
  _atom_site_occupancy
  Zn  Zn1       1.0  0.8700501960571004  0.9556400031914195  0.41378773991658585  1.0000
  Zn  Zn2       1.0  0.042310017868253134  0.1282391621988452  0.5856555822418059  1.0000
  Zn  Zn3       1.0  0.04208014371297261  0.9556370307048069  0.41346620390563527  1.0000
  Zn  Zn4       1.0  0.04163149701818729  0.9560356279804979  0.5857220844299462  1.0000
  Zn  Zn5       1.0  0.6300382828084564  0.5439764414448972  0.5856584648948837  1.0000
  Zn  Zn6       1.0  0.45789674627355476  0.5435718922000204  0.5857620002285129  1.0000
  Zn  Zn7       1.0  0.45781820049996474  0.37185296719786004  0.41346944310753025  1.0000
  Zn  Zn8       1.0  0.4583462562138719  0.5443433244651528  0.4139310424651937  1.0000
  H   H1        1.0  0.7077928636397672  0.028390409660488627  0.6408250879356314  1.0000
  H   H2        1.0  0.2087220823618025  0.3128790224163963  0.9071578795065135  1.0000
  H   H3        1.0  0.8946728499925671  0.720586733419495  0.42514796579930453  1.0000
  H   H4        1.0  0.19883229160117094  0.15295022219244445  0.917032608903902  1.0000
  H   H5        1.0  0.2888213228773182  0.1874587470858273  0.3822624502713055  1.0000
  H   H6        1.0  0.3078970853709608  0.3446446482735581  0.5707905713080876  1.0000
  H   H7        1.0  0.21166224547352638  0.09365042052628775  0.3988853118125347  1.0000
  H   H8        1.0  0.19237357912677308  0.2630791080281582  0.5367681774191411  1.0000
  H   H9        1.0  0.5946299385819245  0.1871953020045963  0.3963970286382049  1.0000
  H   H10       1.0  0.7644569941044492  0.3469246565194693  0.5455533582545441  1.0000
  H   H11       1.0  0.687103904711961  0.09394612925121486  0.38744142831127704  1.0000
  H   H12       1.0  0.6531675720160377  0.7179002707366133  0.9173190259740801  1.0000
  H   H13       1.0  0.8467143843971601  0.2642214040662125  0.5646120646411816  1.0000
  H   H14       1.0  0.8870569165298434  0.5667719582035744  0.35851773313559215  1.0000
  H   H15       1.0  0.791791045717936  0.471513000257623  0.3586251673175339  1.0000
  H   H16       1.0  0.7046964014915033  0.5306683243655569  0.425363607008215  1.0000
  H   H17       1.0  0.6052890973094308  0.7793341529945934  0.5745952569488394  1.0000
  H   H18       1.0  0.6125270695358083  0.9330416037181734  0.6408623997020868  1.0000
  H   H19       1.0  0.795210065043463  0.9694808795884953  0.5745363403550029  1.0000
  H   H20       1.0  0.8126759537249199  0.6996007459232484  0.9066315863779689  1.0000
  H   H21       1.0  0.3000492371239574  0.23576476949601505  0.08222874031211094  1.0000
  H   H22       1.0  0.9051987057170978  0.8015613151136163  0.0923981551940044  1.0000
  H   H23       1.0  0.7354176945034966  0.7812710103695436  0.08242361902139797  1.0000
  H   H24       1.0  0.30293073584906693  0.7099035893733543  0.39732309357901124  1.0000
  H   H25       1.0  0.28154741203561434  0.6987945842857785  0.545910698207372  1.0000
  H   H26       1.0  0.19981609793163788  0.7922612260269019  0.38728273595048507  1.0000
  H   H27       1.0  0.21741363682852463  0.8001766828468035  0.5649277812427868  1.0000
  H   H28       1.0  0.2928195443520138  0.4060471351952303  0.0929435570403642  1.0000
  C   C1        1.0  0.13506472142159953  0.13766414407989905  0.7737998024709184  1.0000
  C   C2        1.0  0.6511641222223188  0.906193237293152  0.6114337570214727  1.0000
  C   C3        1.0  0.7052672472038921  0.9603309021772403  0.6114214361453205  1.0000
  C   C4        1.0  0.8633487995613008  0.8606611100712485  0.2255924416761416  1.0000
  C   C5        1.0  0.7543795676282983  0.9275066192548068  0.5747488028836898  1.0000
  C   C6        1.0  0.7795570159770263  0.722302768044372  0.9446247117612713  1.0000
  C   C7        1.0  0.6911918860138186  0.6969383395672748  0.8855666400148007  1.0000
  C   C8        1.0  0.8343483214932873  0.7781501521739924  0.054599611447080885  1.0000
  C   C9        1.0  0.8049252144016564  0.8028190032053286  0.11388297469034102  1.0000
  C   C10       1.0  0.27908324778251636  0.7238936121997596  0.4445274567199605  1.0000
  C   C11       1.0  0.30375933695390234  0.689386306786865  0.4984418599987632  1.0000
  C   C12       1.0  0.7455484401052175  0.5725888849489491  0.425113388791331  1.0000
  C   C13       1.0  0.22252904119256559  0.7772841435276802  0.4431510792167613  1.0000
  C   C14       1.0  0.19639870425376665  0.8105628728116655  0.5058277050139991  1.0000
  C   C15       1.0  0.2773539458299298  0.3349040910653186  0.054894274929367264  1.0000
  C   C16       1.0  0.8615941072515129  0.13555300480901164  0.5013205538000207  1.0000
  C   C17       1.0  0.31098143038912707  0.30554005824951946  0.11391953457303565  1.0000
  C   C18       1.0  0.22319360668326027  0.27973996903921977  0.9448840686223788  1.0000
  C   C19       1.0  0.18879053011818303  0.19100995686044075  0.8855441307431773  1.0000
  C   C20       1.0  0.27704344183255347  0.2197236858317594  0.44124765578579417  1.0000
  C   C21       1.0  0.3144156915219298  0.3080534780010069  0.5080577322586279  1.0000
  C   C22       1.0  0.2234365559900837  0.16441653528747216  0.44292243539653947  1.0000
  C   C23       1.0  0.747517586831755  0.6614925448694887  0.46401882477451983  1.0000
  C   C24       1.0  0.1858945057075516  0.19383464038907747  0.4936901464947851  1.0000
  C   C25       1.0  0.6654816380162317  0.22028234617462775  0.4438554440062248  1.0000
  C   C26       1.0  0.6949227552275302  0.30897346628366745  0.4976617420130366  1.0000
  C   C27       1.0  0.7202635518702891  0.16508472807215208  0.44305839862357727  1.0000
  C   C28       1.0  0.13750914468023018  0.8633371567847519  0.5001458369471266  1.0000
  C   C29       1.0  0.8086466021486914  0.19440156990516028  0.5059298721603226  1.0000
  C   C30       1.0  0.36229808965811133  0.636207685642681  0.49814304559986766  1.0000
  C   C31       1.0  0.6365884822459692  0.362380085824185  0.4968951546888006  1.0000
  C   C32       1.0  0.6382385241697223  0.6393007670395576  0.7737759532642983  1.0000
  C   C33       1.0  0.3652570131040918  0.3643184856425137  0.2256555263801232  1.0000
  C   C34       1.0  0.8026482054986915  0.7166167003256946  0.4640141624289457  1.0000
  C   C35       1.0  0.3664578467122368  0.36223124931192524  0.501943365546893  1.0000
  C   C36       1.0  0.6389845802190521  0.639012758189324  0.4999992432378591  1.0000
  C   C37       1.0  0.13366652754828584  0.13566347001636805  0.4956249933534167  1.0000
  C   C38       1.0  0.8611993509466629  0.8611268007656959  0.49994262843814846  1.0000
  C   C39       1.0  0.8525546032284196  0.679559779843295  0.4250251763330154  1.0000
  C   C40       1.0  0.8485524690171573  0.593712329417194  0.3881225835766031  1.0000
  C   C41       1.0  0.7944478044129041  0.5396136032086146  0.3881775115813466  1.0000
  C   C42       1.0  0.6962814954638645  0.6962684910530541  0.500049711396535  1.0000
  C   C43       1.0  0.6975054972668386  0.7835294257747945  0.5360087080826401  1.0000
  C   C44       1.0  0.7526059441692254  0.8386529687518304  0.5359672814674282  1.0000
  C   C45       1.0  0.8039522420784736  0.8039285890187884  0.5000361748604191  1.0000
  C   C46       1.0  0.6473931836480061  0.8204257704546336  0.5747592506549208  1.0000
  O   O1        1.0  0.9988985402894245  0.998787108779801  0.49956479482928257  1.0000
  O   O2        1.0  0.38872774087931833  0.3249155767047327  0.26936734946948354  1.0000
  O   O3        1.0  0.39048480187591383  0.4455476111281411  0.5653853704083927  1.0000
  O   O4        1.0  0.11154352111487484  0.0542391853909477  0.7297751158267471  1.0000
  O   O5        1.0  0.5564331143338777  0.6165255892838815  0.4383545225495879  1.0000
  O   O6        1.0  0.3829938630415342  0.32305401361011116  0.43554612938842036  1.0000
  O   O7        1.0  0.6778975765829004  0.6179649069333237  0.561539246826939  1.0000
  O   O8        1.0  0.6779920784905185  0.6146803733891131  0.730409068410111  1.0000
  O   O9        1.0  0.3842700654622674  0.4474525904517391  0.2691158366958603  1.0000
  O   O10       1.0  0.3820930950092104  0.6119741191465309  0.5570861358817182  1.0000
  O   O11       1.0  0.5538088173218226  0.3227783920497273  0.43921541313898144  1.0000
  O   O12       1.0  0.8217935405582325  0.05237831187853449  0.4379996307805313  1.0000
  O   O13       1.0  0.8240461982499667  0.8814203482703459  0.26974502045576526  1.0000
  O   O14       1.0  0.9446863570945964  0.17488314398363497  0.5632352584828694  1.0000
  O   O15       1.0  0.11343403584919558  0.8820667093529906  0.4361282095266575  1.0000
  O   O16       1.0  0.10972111762269782  0.17512632396049801  0.5550115405906908  1.0000
  O   O17       1.0  0.9437996962611593  0.8825755877284324  0.5603764952208721  1.0000
  O   O18       1.0  0.11693164095547093  0.052733508917412915  0.43969388158828326  1.0000
  O   O19       1.0  0.8221614340956122  0.8831751075175162  0.43940902191186365  1.0000
  O   O20       1.0  0.1155769873571374  0.8856716707189634  0.5617280709954287  1.0000
  O   O21       1.0  0.11657824783402047  0.17734153706297923  0.7306066804422642  1.0000
  O   O22       1.0  0.9461694341521822  0.8849178387525357  0.2685906056519798  1.0000
  O   O23       1.0  0.501199842376927  0.5011799458640738  0.499590994398936  1.0000
  O   O24       1.0  0.388092092275201  0.6189388668191425  0.44091296909439115  1.0000
  O   O25       1.0  0.6760217363451915  0.44581502253814154  0.5559974349862101  1.0000
  O   O26       1.0  0.555144103519673  0.6190940936463675  0.7299464515176907  1.0000
