data_image0
_chemical_formula_structural       Ag8H12C28N4O20
_chemical_formula_sum              "Ag8 H12 C28 N4 O20"
_cell_length_a       5.357367841009921
_cell_length_b       8.489499882124958
_cell_length_c       17.963282492718378
_cell_angle_alpha    92.55480360503842
_cell_angle_beta     89.99985541107847
_cell_angle_gamma    89.99985180455363

_space_group_name_H-M_alt    "P 1"
_space_group_IT_number       1

loop_
  _space_group_symop_operation_xyz
  'x, y, z'

loop_
  _atom_site_type_symbol
  _atom_site_label
  _atom_site_symmetry_multiplicity
  _atom_site_fract_x
  _atom_site_fract_y
  _atom_site_fract_z
  _atom_site_occupancy
  Ag  Ag1       1.0  0.20856957088920328  0.6248810000620679  0.4350914509140652  1.0000
  Ag  Ag2       1.0  0.7085465830710262  0.3751330654599839  0.0649160672599365  1.0000
  Ag  Ag3       1.0  0.7914546392510432  0.3751339666597461  0.5649184218472953  1.0000
  Ag  Ag4       1.0  0.29144589513168745  0.6248674828439462  0.9350852547183026  1.0000
  Ag  Ag5       1.0  0.6374811805056453  0.8026957379449443  0.4755195416709981  1.0000
  Ag  Ag6       1.0  0.13745507797300152  0.19731103860104332  0.0244773530862972  1.0000
  Ag  Ag7       1.0  0.36255422925763986  0.1973103799951943  0.524471835718444  1.0000
  Ag  Ag8       1.0  0.862535533650828  0.8026847938673426  0.9755239036589316  1.0000
  H   H1        1.0  0.7896937359435372  0.45338597946523856  0.2478691223292699  1.0000
  H   H2        1.0  0.28970733591511794  0.5466206494945851  0.2521315482260463  1.0000
  H   H3        1.0  0.21029127587796387  0.5466240727691414  0.7521345581447607  1.0000
  H   H4        1.0  0.7103243406672137  0.4533669302216836  0.7478695943434772  1.0000
  H   H5        1.0  0.08947924926085452  0.2760822260974792  0.1759124071452547  1.0000
  H   H6        1.0  0.5895031723228286  0.7239234759112491  0.3240850671516498  1.0000
  H   H7        1.0  0.9104702974488817  0.7239145505570618  0.8240816248429823  1.0000
  H   H8        1.0  0.4105154381134143  0.2760770904314853  0.6759168118223187  1.0000
  H   H9        1.0  0.2845248227100967  0.0532341271484498  0.2405000993322659  1.0000
  H   H10       1.0  0.7845372167227396  0.946769936450231  0.2594938587156292  1.0000
  H   H11       1.0  0.7154228574324437  0.9467555215649667  0.7594921637871509  1.0000
  H   H12       1.0  0.21544592852912103  0.0532411321842972  0.7405048250107953  1.0000
  C   C1        1.0  0.6721596840663651  0.4445866049911871  0.3945713631921848  1.0000
  C   C2        1.0  0.17213339492401056  0.5554250959047166  0.10543392381818252  1.0000
  C   C3        1.0  0.3278570597535193  0.5554211434829668  0.6054339556710602  1.0000
  C   C4        1.0  0.8278721494037031  0.44456959371554916  0.8945684306251851  1.0000
  C   C5        1.0  0.8426281203523872  0.33608011946498806  0.3495820887166303  1.0000
  C   C6        1.0  0.3426197062571887  0.6639287721499656  0.1504185716092152  1.0000
  C   C7        1.0  0.157373690773035  0.663921734226065  0.6504231486104572  1.0000
  C   C8        1.0  0.6573839714892671  0.33606470238804315  0.8495826525138385  1.0000
  C   C9        1.0  0.884960744551002  0.3575067358687178  0.2743705970638644  1.0000
  C   C10       1.0  0.3849704589572625  0.642497345630524  0.2256294067424065  1.0000
  C   C11       1.0  0.11502053412202431  0.6424961342392805  0.7256296435231633  1.0000
  C   C12       1.0  0.6150500180860519  0.3574926281390701  0.774372882461151  1.0000
  C   C13       1.0  0.049991365234902205  0.25930335395674586  0.23448048498166682  1.0000
  C   C14       1.0  0.5500026403070281  0.7406964882214311  0.2655158257346174  1.0000
  C   C15       1.0  0.9499880468967137  0.7406829023487232  0.7655161852500783  1.0000
  C   C16       1.0  0.45001597014323386  0.2593016479534215  0.7344837925972243  1.0000
  C   C17       1.0  0.15983644488770213  0.13504918837301014  0.2702647599144967  1.0000
  C   C18       1.0  0.6598419345662166  0.8649539929642386  0.22973151079972354  1.0000
  C   C19       1.0  0.840133634295377  0.8649487310977263  0.7297281743612417  1.0000
  C   C20       1.0  0.3401542768083843  0.13504659146097  0.7702709251896209  1.0000
  C   C21       1.0  0.10913404260602991  0.11327668266810781  0.3447304273496243  1.0000
  C   C22       1.0  0.6091269960679071  0.886727768905402  0.1552659007263841  1.0000
  C   C23       1.0  0.8908659019824654  0.886721290962697  0.6552641779329634  1.0000
  C   C24       1.0  0.39086174896529974  0.11326924252396961  0.844735372328046  1.0000
  C   C25       1.0  0.20711875928567747  0.9747157662350647  0.38555951968947266  1.0000
  C   C26       1.0  0.7071153824377348  0.025293188672648598  0.11443568027853249  1.0000
  C   C27       1.0  0.7928811853027541  0.025286850983704305  0.6144329228016332  1.0000
  C   C28       1.0  0.29287522918366454  0.9747096272400028  0.8855628892857794  1.0000
  N   N1        1.0  0.9601560701683596  0.2170377053435431  0.3846623358333332  1.0000
  N   N2        1.0  0.46014001846599945  0.7829674197846117  0.11533762341426271  1.0000
  N   N3        1.0  0.03984947415222001  0.7829674865365988  0.6153368233481302  1.0000
  N   N4        1.0  0.5398468599789795  0.21702610895545862  0.8846652717345337  1.0000
  O   O1        1.0  0.4415521149529127  0.4275689615133587  0.3833016938680061  1.0000
  O   O2        1.0  0.9415298031747953  0.5724540440585101  0.11670353812715459  1.0000
  O   O3        1.0  0.5584720951895861  0.5724517916310958  0.61670491839768  1.0000
  O   O4        1.0  0.058468274783400914  0.4275477373866394  0.883299471176187  1.0000
  O   O5        1.0  0.7759024143066355  0.5499621178051086  0.4371732749246676  1.0000
  O   O6        1.0  0.27586755129215135  0.45004350156230544  0.0628318465576641  1.0000
  O   O7        1.0  0.2241404617609462  0.45003277046703977  0.5628352065730199  1.0000
  O   O8        1.0  0.7241286600824779  0.5499547610689177  0.937171670827425  1.0000
  O   O9        1.0  0.9328737554247443  0.198102503883284  0.456719184115684  1.0000
  O   O10       1.0  0.43285635815629325  0.8019014552710358  0.0432796668989468  1.0000
  O   O11       1.0  0.0671485881903138  0.8019026879817372  0.5432799750589794  1.0000
  O   O12       1.0  0.5671305202863053  0.1980955742223358  0.9567221631625458  1.0000
  O   O13       1.0  0.4126224786007244  0.9960753386609792  0.42003195606103827  1.0000
  O   O14       1.0  0.9126250684803878  0.003922689882379901  0.07996460177331952  1.0000
  O   O15       1.0  0.5873849323641808  0.0039236152369284015  0.5799565384575374  1.0000
  O   O16       1.0  0.08736927632703842  0.9960696057047187  0.9200366060450734  1.0000
  O   O17       1.0  0.07843083427443531  0.8507246714454907  0.37813710180834903  1.0000
  O   O18       1.0  0.578430649659893  0.1492810143477357  0.121859267430402  1.0000
  O   O19       1.0  0.9215691102976535  0.14927923310648342  0.6218586990290689  1.0000
  O   O20       1.0  0.4215562287990196  0.8507170496064093  0.8781381228890339  1.0000
