data_image0
_chemical_formula_structural       Cd2H52C60N8O12
_chemical_formula_sum              "Cd2 H52 C60 N8 O12"
_cell_length_a       11.669945880520586
_cell_length_b       11.669462412226164
_cell_length_c       12.636
_cell_angle_alpha    69.06697839938269
_cell_angle_beta     69.06788638395167
_cell_angle_gamma    83.16109314145613

_space_group_name_H-M_alt    "P 1"
_space_group_IT_number       1

loop_
  _space_group_symop_operation_xyz
  'x, y, z'

loop_
  _atom_site_type_symbol
  _atom_site_label
  _atom_site_symmetry_multiplicity
  _atom_site_fract_x
  _atom_site_fract_y
  _atom_site_fract_z
  _atom_site_occupancy
  Cd  Cd1       1.0  0.4976707491508422  0.5023324786172978  0.7499971148080745  1.0000
  Cd  Cd2       1.0  0.5023296448998167  0.4976677182862375  0.2500022153739607  1.0000
  H   H1        1.0  0.508706422543284  0.808884489020393  0.6543336235294175  1.0000
  H   H2        1.0  0.19111676215145934  0.49129175063467306  0.8456684657404449  1.0000
  H   H3        1.0  0.49129397150737475  0.1911157078831422  0.34566570665261753  1.0000
  H   H4        1.0  0.8088836318991997  0.5087084462688622  0.15433165583127104  1.0000
  H   H5        1.0  0.3602217524121301  0.9464710628134014  0.7916093906953917  1.0000
  H   H6        1.0  0.053537446912045504  0.6397768341075292  0.7083885844685582  1.0000
  H   H7        1.0  0.6397786416385217  0.05352913409013381  0.2083907308763243  1.0000
  H   H8        1.0  0.9464629471386132  0.3602233627960061  0.2916115371031581  1.0000
  H   H9        1.0  0.36067626477174747  0.5780458328656692  0.017126324780143403  1.0000
  H   H10       1.0  0.42194867158072213  0.6393235706135201  0.4828774421163472  1.0000
  H   H11       1.0  0.6393232118292503  0.421954364037866  0.9828740995022612  1.0000
  H   H12       1.0  0.5780517224699367  0.3606766262900152  0.5171226794553617  1.0000
  H   H13       1.0  0.2606866414430584  0.8926235432325313  0.02539353054101675  1.0000
  H   H14       1.0  0.10737970301121891  0.7393122128396499  0.4746060929503387  1.0000
  H   H15       1.0  0.7393137526076003  0.1073766536710039  0.9746065910306996  1.0000
  H   H16       1.0  0.8926197645838485  0.2606870665264438  0.525394637043199  1.0000
  H   H17       1.0  0.256155003094122  0.7363036075828546  0.11652332493016355  1.0000
  H   H18       1.0  0.2636943016805163  0.7438439302423134  0.38347724201393163  1.0000
  H   H19       1.0  0.7438453819506138  0.2636956717832462  0.8834771023526854  1.0000
  H   H20       1.0  0.7363060923701426  0.2561562666612218  0.6165228795577847  1.0000
  H   H21       1.0  0.8228652176844875  0.8720890553865034  0.16649949831941768  1.0000
  H   H22       1.0  0.127910939514976  0.1771388601012589  0.33349947446142636  1.0000
  H   H23       1.0  0.17713335047277212  0.1279120590544665  0.8335017143522164  1.0000
  H   H24       1.0  0.8720894455297525  0.8228604192648349  0.6665009528214226  1.0000
  H   H25       1.0  0.7776027741709155  0.7509438349318813  0.059460930734139994  1.0000
  H   H26       1.0  0.2490558327868939  0.2224046520313721  0.44053704519662057  1.0000
  H   H27       1.0  0.2223967024300748  0.24905636197165393  0.9405387021585765  1.0000
  H   H28       1.0  0.7509436438141037  0.7775955448721633  0.5594625876960961  1.0000
  H   H29       1.0  0.947716523068671  0.6545987338691361  0.9341112992659075  1.0000
  H   H30       1.0  0.3453999531443089  0.0522849533251986  0.5658881719843691  1.0000
  H   H31       1.0  0.052283870981987904  0.3454014630343991  0.06588882230580849  1.0000
  H   H32       1.0  0.6545995234566818  0.9477152435783296  0.43411225229803546  1.0000
  H   H33       1.0  0.1625313983163039  0.6781014553247218  0.9176744359009347  1.0000
  H   H34       1.0  0.32189785160902323  0.8374639451163759  0.5823276457558677  1.0000
  H   H35       1.0  0.837468995734355  0.3218987415788135  0.08232489428110049  1.0000
  H   H36       1.0  0.6781016159860515  0.1625353342497249  0.4176730842376698  1.0000
  H   H37       1.0  0.9012721323732222  0.8992720195029663  0.30622822962031654  1.0000
  H   H38       1.0  0.1007261275875635  0.0987306983996419  0.19377176429148338  1.0000
  H   H39       1.0  0.0987282616774365  0.1007281774005691  0.6937718919513997  1.0000
  H   H40       1.0  0.8992742574571653  0.901268580966459  0.8062286629913655  1.0000
  H   H41       1.0  0.9133064565091473  0.0340232057112857  0.17627028994051122  1.0000
  H   H42       1.0  0.965978637996436  0.0866962773724467  0.32372851624889165  1.0000
  H   H43       1.0  0.0866939375415114  0.9659769911922496  0.823729040241524  1.0000
  H   H44       1.0  0.0340208386045546  0.9133039195310816  0.6762711166438321  1.0000
  H   H45       1.0  0.3839433440224482  0.1506587296617425  0.09640350890694549  1.0000
  H   H46       1.0  0.8493435778928884  0.6160557387418777  0.4035955575262803  1.0000
  H   H47       1.0  0.6160561235726263  0.8493405497043512  0.9035972210865918  1.0000
  H   H48       1.0  0.15065588970218613  0.3839435406242231  0.596405172467257  1.0000
  H   H49       1.0  0.5972087251475955  0.068084947994933  0.776992902515012  1.0000
  H   H50       1.0  0.9319171549904796  0.40279067712311445  0.7230077087742827  1.0000
  H   H51       1.0  0.4027916689030634  0.9319152489086022  0.22300721905670415  1.0000
  H   H52       1.0  0.06808323906017931  0.5972095197804208  0.27699241279743336  1.0000
  C   C1        1.0  0.454222306838858  0.7804233952538198  0.7492360511225087  1.0000
  C   C2        1.0  0.21957871065417583  0.5457760411970014  0.7507649070451732  1.0000
  C   C3        1.0  0.5457780872118008  0.21957680164971552  0.25076407044920046  1.0000
  C   C4        1.0  0.7804216833964831  0.45422415570653385  0.24923521452654257  1.0000
  C   C5        1.0  0.3818929417225974  0.8497396784895628  0.8155008667506464  1.0000
  C   C6        1.0  0.15026430219378284  0.6181055173767263  0.6844978534141148  1.0000
  C   C7        1.0  0.6181074523280614  0.1502605184139725  0.18449925482106977  1.0000
  C   C8        1.0  0.8497351744072148  0.38189467952680894  0.3155017794786019  1.0000
  C   C9        1.0  0.38177753126161923  0.6572082103407197  0.934888156809073  1.0000
  C   C10       1.0  0.3427876703073239  0.6182220446312598  0.5651136588520557  1.0000
  C   C11       1.0  0.6182219453393785  0.3427919865628155  0.06511147608364357  1.0000
  C   C12       1.0  0.6572127237433278  0.3817781522722754  0.4348864627196605  1.0000
  C   C13       1.0  0.24409630729308426  0.7991429940489353  0.0323126551393572  1.0000
  C   C14       1.0  0.2008572437055847  0.755900372167993  0.467686304406044  1.0000
  C   C15       1.0  0.7559031693079065  0.20085720285459982  0.9676877691430404  1.0000
  C   C16       1.0  0.7991431503450743  0.24409982473554243  0.5323138171656722  1.0000
  C   C17       1.0  0.11580508547407223  0.7860928590786928  0.03402551012329269  1.0000
  C   C18       1.0  0.21390663366175033  0.8841941267963662  0.4659744423219792  1.0000
  C   C19       1.0  0.8841952995706636  0.2139064202874081  0.9659749171595562  1.0000
  C   C20       1.0  0.7860937603889084  0.115806070107169  0.5340248878600561  1.0000
  C   C21       1.0  0.0190626746528082  0.8424461734007309  0.10275779487113816  1.0000
  C   C22       1.0  0.15755137694939952  0.9809374391068815  0.3972440837967212  1.0000
  C   C23       1.0  0.9809358844985213  0.1575540235028043  0.8972429321219548  1.0000
  C   C24       1.0  0.8424490171012523  0.0190627577966538  0.6027560377749949  1.0000
  C   C25       1.0  0.897570146318941  0.8296281754021139  0.11236190499518271  1.0000
  C   C26       1.0  0.170371225272909  0.1024347970338866  0.3876377696470428  1.0000
  C   C27       1.0  0.10242842183831163  0.170372939038856  0.8876369335074086  1.0000
  C   C28       1.0  0.82962916877775  0.8975653998696488  0.6123615605349924  1.0000
  C   C29       1.0  0.8722204958116182  0.7615285468081865  0.051813541886794226  1.0000
  C   C30       1.0  0.23847276505112802  0.1277826862758147  0.448184500510628  1.0000
  C   C31       1.0  0.1277790078071561  0.2384744027076593  0.9481843824828429  1.0000
  C   C32       1.0  0.7615276289995238  0.8722175106277206  0.5518148296714074  1.0000
  C   C33       1.0  0.9673519421537834  0.7070525140827897  0.9820136459129428  1.0000
  C   C34       1.0  0.2929465412590773  0.0326496521676987  0.5179856648981198  1.0000
  C   C35       1.0  0.032648451896875506  0.2929476828207385  0.017985684269092413  1.0000
  C   C36       1.0  0.7070529353419135  0.9673505447358367  0.48201475938428445  1.0000
  C   C37       1.0  0.08838936811636701  0.7196787467570189  0.9734942885330183  1.0000
  C   C38       1.0  0.2803201545043947  0.9116073928095787  0.5265058764961238  1.0000
  C   C39       1.0  0.911611025934292  0.2803214501465163  0.026505833038697756  1.0000
  C   C40       1.0  0.7196793220966029  0.0883928040939566  0.47349454778628086  1.0000
  C   C41       1.0  0.9651425100018899  0.9675349697607275  0.2287532921645832  1.0000
  C   C42       1.0  0.032465735544512604  0.0348590823166361  0.2712470576845902  1.0000
  C   C43       1.0  0.034857884048769  0.0324652271428079  0.7712468294071325  1.0000
  C   C44       1.0  0.9675346495002233  0.9651401970494646  0.7287533695982584  1.0000
  C   C45       1.0  0.4827366393258998  0.2530586602730125  0.85429291814026  1.0000
  C   C46       1.0  0.7469434097186536  0.5172626477964997  0.645705367859172  1.0000
  C   C47       1.0  0.5172637457188358  0.7469406190930883  0.14570671775290828  1.0000
  C   C48       1.0  0.2530560578764209  0.482736631569594  0.3542945707446846  1.0000
  C   C49       1.0  0.48856198191190003  0.1214975548305333  0.9294037470753479  1.0000
  C   C50       1.0  0.8785026421931761  0.5114372026072971  0.5705959821495271  1.0000
  C   C51       1.0  0.5114384031328286  0.8785017245355604  0.07059668020750108  1.0000
  C   C52       1.0  0.12149682540189131  0.4885620767588037  0.4294039564543296  1.0000
  C   C53       1.0  0.4335027776770276  0.0835179276897549  0.055203021819295366  1.0000
  C   C54       1.0  0.9164841904072318  0.5664967891427892  0.44479594741196127  1.0000
  C   C55       1.0  0.5664966899180471  0.9164813516763388  0.944797708174242  1.0000
  C   C56       1.0  0.0835152861937658  0.4335034077607389  0.5552044768704433  1.0000
  C   C57       1.0  0.5550337043454051  0.0371602662092982  0.8747428994540981  1.0000
  C   C58       1.0  0.9628409098189011  0.4449662029645154  0.6252562682668383  1.0000
  C   C59       1.0  0.44496576324966963  0.9628390131567955  0.12525703914975841  1.0000
  C   C60       1.0  0.0371594842317577  0.5550339939390199  0.37474306191519696  1.0000
  N   N1        1.0  0.45315254598205723  0.6604049107721579  0.8246684583316577  1.0000
  N   N2        1.0  0.3395916363815062  0.546846807386288  0.6753347936181625  1.0000
  N   N3        1.0  0.5468478390626713  0.3395943685939429  0.17533117756151034  1.0000
  N   N4        1.0  0.6604087576691527  0.4531533895172473  0.32466453656387273  1.0000
  N   N5        1.0  0.3373882806874917  0.7705598678032005  0.9327886274537178  1.0000
  N   N6        1.0  0.22944030733740567  0.6626079181590327  0.5672113027185047  1.0000
  N   N7        1.0  0.6626111959134988  0.2294403291003348  0.0672117968286869  1.0000
  N   N8        1.0  0.7705600867132533  0.3373922787445025  0.43278881885321124  1.0000
  O   O1        1.0  0.0556586598133038  0.9078592523783443  0.15551906929238868  1.0000
  O   O2        1.0  0.0921394628974426  0.9443387058091944  0.34448333175296136  1.0000
  O   O3        1.0  0.9443408077817709  0.0921400269877495  0.8444816607011488  1.0000
  O   O4        1.0  0.9078609311532163  0.0556614910943409  0.6555167898187547  1.0000
  O   O5        1.0  0.42647862765882394  0.3275553598795611  0.9103817787569851  1.0000
  O   O6        1.0  0.6724482165892525  0.5735205382250683  0.589616841575399  1.0000
  O   O7        1.0  0.5735217663918349  0.6724448370239671  0.08961834281473091  1.0000
  O   O8        1.0  0.3275521774614063  0.42647965867846693  0.41038327999630997  1.0000
  O   O9        1.0  0.5358573195323971  0.2868368834885473  0.7410030394743926  1.0000
  O   O10       1.0  0.7131672228369368  0.4641427354033851  0.7589966954713034  1.0000
  O   O11       1.0  0.46414307451826187  0.713163313414988  0.2589970820973234  1.0000
  O   O12       1.0  0.286833171213722  0.5358574615001501  0.24100342610041278  1.0000
