data_image0
_chemical_formula_structural       Cu4H18C28S4N14
_chemical_formula_sum              "Cu4 H18 C28 S4 N14"
_cell_length_a       6.094179643156982
_cell_length_b       11.293025268238063
_cell_length_c       11.829493330578483
_cell_angle_alpha    112.98616933267351
_cell_angle_beta     104.71558705893277
_cell_angle_gamma    90.10708320938542

_space_group_name_H-M_alt    "P 1"
_space_group_IT_number       1

loop_
  _space_group_symop_operation_xyz
  'x, y, z'

loop_
  _atom_site_type_symbol
  _atom_site_label
  _atom_site_symmetry_multiplicity
  _atom_site_fract_x
  _atom_site_fract_y
  _atom_site_fract_z
  _atom_site_occupancy
  Cu  Cu1       1.0  0.2443451980123329  0.44113911866082134  0.4349890372777311  1.0000
  Cu  Cu2       1.0  0.8082255224841007  0.0584516555792476  0.5659406703036752  1.0000
  Cu  Cu3       1.0  0.7556771533556557  0.5588647478644972  0.5650091030418025  1.0000
  Cu  Cu4       1.0  0.19172391560329774  0.9415484718680602  0.43406337309402704  1.0000
  H   H1        1.0  0.1131544225877832  0.7499660724595145  0.00030924401918491724  1.0000
  H   H2        1.0  0.8868400762574141  0.250041467820182  0.9996810997750033  1.0000
  H   H3        1.0  0.4439158427705153  0.5716652786351516  0.3083221896346942  1.0000
  H   H4        1.0  0.13386314252749545  0.9274781679317387  0.6912016921844997  1.0000
  H   H5        1.0  0.5561250335803296  0.42833766331060735  0.6916774534449176  1.0000
  H   H6        1.0  0.8660793294521554  0.0725070588077728  0.3087783022702126  1.0000
  H   H7        1.0  0.30418592054685695  0.6863179619385065  0.16937231643531447  1.0000
  H   H8        1.0  0.1335490653805635  0.8134105305742165  0.8308738355761421  1.0000
  H   H9        1.0  0.6958485376496811  0.31368689383926096  0.830627077708293  1.0000
  H   H10       1.0  0.8664074946986419  0.18657766159830658  0.16911009088619275  1.0000
  H   H11       1.0  0.6193563910103634  0.5221425580947352  0.10978446787532893  1.0000
  H   H12       1.0  0.5075952309814157  0.9757599204055224  0.8911801005562481  1.0000
  H   H13       1.0  0.3806820057433882  0.47785652385056204  0.8902142947842082  1.0000
  H   H14       1.0  0.4923880753768019  0.0242413896621585  0.10883432955498054  1.0000
  H   H15       1.0  0.790671553631853  0.410442923465652  0.249269976964257  1.0000
  H   H16       1.0  0.5393031618508105  0.08725516175240951  0.7512561770587639  1.0000
  H   H17       1.0  0.20937173551821792  0.589554169654569  0.7507254044501579  1.0000
  H   H18       1.0  0.4606708443497426  0.9127509723535779  0.2487594649485558  1.0000
  C   C1        1.0  0.35231927153117953  0.7483120250552275  0.5488538537028448  1.0000
  C   C2        1.0  0.8030172897695779  0.7520257531661015  0.44996976808356237  1.0000
  C   C3        1.0  0.6476782959185883  0.2516890513122405  0.4511490210944872  1.0000
  C   C4        1.0  0.1969781080682935  0.24798003038956307  0.5500285409529156  1.0000
  C   C5        1.0  0.2620194586282878  0.5616630630137678  0.2613112616455737  1.0000
  C   C6        1.0  0.9990134352708682  0.9372919509359932  0.7385983965095733  1.0000
  C   C7        1.0  0.7380179808888985  0.43833988525424417  0.7386887329648247  1.0000
  C   C8        1.0  0.0009364069625021975  0.0626982766417328  0.2613912013780181  1.0000
  C   C9        1.0  0.1810543022683149  0.6272481459442857  0.18380092210269788  1.0000
  C   C10       1.0  0.9958220268916879  0.8720190848168913  0.8165337288180938  1.0000
  C   C11       1.0  0.8189784726090537  0.37275774174254644  0.8162019777540409  1.0000
  C   C12       1.0  0.004138182346871103  0.1279721438582087  0.1834577215419202  1.0000
  C   C13       1.0  0.9448307953294662  0.6183929723244859  0.13072743609210144  1.0000
  C   C14       1.0  0.8132732974642138  0.8808125237786866  0.8705905716546952  1.0000
  C   C15       1.0  0.05520275184104411  0.3816080810782907  0.8692738620466758  1.0000
  C   C16       1.0  0.18669734897485316  0.1191817634896779  0.1294093910732101  1.0000
  C   C17       1.0  0.802836953767866  0.5367101220071077  0.15308366214346597  1.0000
  C   C18       1.0  0.6479704396634888  0.9614413425287295  0.8476876075802197  1.0000
  C   C19       1.0  0.19720094465979804  0.46328707611829156  0.8469168982795595  1.0000
  C   C20       1.0  0.35200565226249847  0.0385569894614335  0.15232218746180592  1.0000
  C   C21       1.0  0.8977633775171585  0.4738386643366894  0.23026474166743333  1.0000
  C   C22       1.0  0.6654822227988291  0.024183762273068496  0.7701241384566941  1.0000
  C   C23       1.0  0.10227684468610936  0.5261603710284817  0.7697317308119764  1.0000
  C   C24       1.0  0.33448052080132845  0.9758154761294688  0.22988320364611783  1.0000
  C   C25       1.0  0.840268757119752  0.6911328194989536  0.05746427178182502  1.0000
  C   C26       1.0  0.7833853639777291  0.8088380554751069  0.9449152122937932  1.0000
  C   C27       1.0  0.15974957346233512  0.3088692042639209  0.9425377093637695  1.0000
  C   C28       1.0  0.2166067425542978  0.191161068401648  0.05508618161668011  1.0000
  S   S1        1.0  0.39351921461504  0.6409113491830851  0.6106251366412678  1.0000
  S   S2        1.0  0.7825537168129629  0.859807776284043  0.38859318719133273  1.0000
  S   S3        1.0  0.6064973196394734  0.3590896663605747  0.38937453608787126  1.0000
  S   S4        1.0  0.2174240807592014  0.14020377165791592  0.6114054679205836  1.0000
  N   N1        1.0  0.32496219432015755  0.8257200459243421  0.5036322275550376  1.0000
  N   N2        1.0  0.8209990849016081  0.6744484883813016  0.49501947802852453  1.0000
  N   N3        1.0  0.6750161477886395  0.17428571713980287  0.49636530183770594  1.0000
  N   N4        1.0  0.17900585454157186  0.32555445916155173  0.5049808959437527  1.0000
  N   N5        1.0  0.12475852150306109  0.4876638025549767  0.2876317034482554  1.0000
  N   N6        1.0  0.8354610538892047  0.011041970685390404  0.7125800478940365  1.0000
  N   N7        1.0  0.8752804300809773  0.5123381832743591  0.7123681685125975  1.0000
  N   N8        1.0  0.16449446158759432  0.9889532522078781  0.2874189063088934  1.0000
  N   N9        1.0  0.620837638926851  0.7132399111291576  0.036787419523548706  1.0000
  N   N10       1.0  0.5854735709521464  0.7865156384158355  0.9667935936708149  1.0000
  N   N11       1.0  0.379179982661235  0.2867526643217104  0.9632221060251993  1.0000
  N   N12       1.0  0.4145286491040849  0.2134769394337894  0.033216245117635865  1.0000
  N   N13       1.0  0.9463537988967449  0.7499650369053866  0.0007981505602357954  1.0000
  N   N14       1.0  0.053647960591227714  0.25003781275412956  0.9991975003474565  1.0000
