data_image0
_chemical_formula_structural       Zn2H40C40N2O10
_chemical_formula_sum              "Zn2 H40 C40 N2 O10"
_cell_length_a       10.837955934546123
_cell_length_b       13.940897133739417
_cell_length_c       15.343192786719728
_cell_angle_alpha    89.83555376449561
_cell_angle_beta     90.10743553032874
_cell_angle_gamma    89.60860860857923

_space_group_name_H-M_alt    "P 1"
_space_group_IT_number       1

loop_
  _space_group_symop_operation_xyz
  'x, y, z'

loop_
  _atom_site_type_symbol
  _atom_site_label
  _atom_site_symmetry_multiplicity
  _atom_site_fract_x
  _atom_site_fract_y
  _atom_site_fract_z
  _atom_site_occupancy
  Zn  Zn1       1.0  0.501364315742869  0.40144600046268397  0.5007573903878324  1.0000
  Zn  Zn2       1.0  0.4995404520359302  0.5998751194056595  0.5008585020390227  1.0000
  H   H1        1.0  0.09298438333974698  0.35879124809392243  0.4476596734993379  1.0000
  H   H2        1.0  0.10590648071559632  0.6398211937004561  0.5486352789144959  1.0000
  H   H3        1.0  0.5841373618406961  0.6412221852245779  0.7819413281810199  1.0000
  H   H4        1.0  0.4106278564625754  0.36598837108896737  0.7760592316192287  1.0000
  H   H5        1.0  0.46336293362207925  0.9330002523198005  0.3611713296439872  1.0000
  H   H6        1.0  0.34513927510332826  0.07053815155397561  0.4094005034051093  1.0000
  H   H7        1.0  0.4671342409723068  0.7524987957207113  0.3681105396604352  1.0000
  H   H8        1.0  0.35227873441933605  0.2508109569605779  0.41392084819619857  1.0000
  H   H9        1.0  0.5354518931103841  0.7526863543568679  0.6327144072208879  1.0000
  H   H10       1.0  0.645402779614642  0.24761405514150434  0.5866167187393428  1.0000
  H   H11       1.0  0.5352134972554339  0.93312811802447  0.6384975251833112  1.0000
  H   H12       1.0  0.6515170803136601  0.0674911853602467  0.5906179959103566  1.0000
  H   H13       1.0  0.9003884674400736  0.48038220921817043  0.3592826342692702  1.0000
  H   H14       1.0  0.8920467203640855  0.6341431529309388  0.43170626896841907  1.0000
  H   H15       1.0  0.8841929017976183  0.3708618062343021  0.4164339936034977  1.0000
  H   H16       1.0  0.8905465695001596  0.644292035607748  0.5462578076872191  1.0000
  H   H17       1.0  0.11905258300665619  0.3878624285723832  0.5904718778900602  1.0000
  H   H18       1.0  0.10900809963501253  0.5047923727736574  0.6339513212207633  1.0000
  H   H19       1.0  0.9029797782203133  0.37655271789082423  0.5854059502347511  1.0000
  H   H20       1.0  0.8948304923411142  0.487902396713217  0.6395701032439118  1.0000
  H   H21       1.0  0.5373435048356329  0.3520693149328693  0.061332326324127  1.0000
  H   H22       1.0  0.43335723949157057  0.650880739255342  0.059848933238591  1.0000
  H   H23       1.0  0.539722656951625  0.3538916077863233  0.2242326787638973  1.0000
  H   H24       1.0  0.4369288574838849  0.6510577451124321  0.22252116436488478  1.0000
  H   H25       1.0  0.5789583322626157  0.6395430226045775  0.9445079862732937  1.0000
  H   H26       1.0  0.4000785503417887  0.36465965998282  0.9387652684031379  1.0000
  H   H27       1.0  0.19247695240765242  0.5609447656192329  0.30041528263761547  1.0000
  H   H28       1.0  0.0307960624104879  0.5482982842274353  0.2908247617325443  1.0000
  H   H29       1.0  0.2241130061542691  0.4432990716692655  0.17989660971012705  1.0000
  H   H30       1.0  0.06294774784593932  0.4241859909848529  0.17359691976419359  1.0000
  H   H31       1.0  0.028758424197803802  0.597034689375711  0.1308237308412785  1.0000
  H   H32       1.0  0.13485931018404781  0.5418756510904856  0.0579784709318929  1.0000
  H   H33       1.0  0.1894327710099333  0.6191282102246447  0.14083593737984754  1.0000
  H   H34       1.0  0.20858909373328066  0.7713476688292572  0.3753649226215856  1.0000
  H   H35       1.0  0.21542463821288746  0.7508722601016871  0.4899409774526333  1.0000
  H   H36       1.0  0.9856113127394152  0.8188029966489198  0.38858106814790716  1.0000
  H   H37       1.0  0.9937911025768572  0.8035544011044562  0.5027345492091229  1.0000
  H   H38       1.0  0.15896282361796923  0.9313246021993749  0.5113836660572346  1.0000
  H   H39       1.0  0.021731448127098905  0.9775898259408037  0.46323236847603505  1.0000
  H   H40       1.0  0.1495930514221513  0.947073020701083  0.3965687128677331  1.0000
  C   C1        1.0  0.4944144919088204  0.5041703602200088  0.3304200529581252  1.0000
  C   C2        1.0  0.9332191618827964  0.4514753107305153  0.5820737542524055  1.0000
  C   C3        1.0  0.5138791613777444  0.4176171466949441  0.0965201482509954  1.0000
  C   C4        1.0  0.45860435911235703  0.5858811965071098  0.0956533128106187  1.0000
  C   C5        1.0  0.5161661031858173  0.41828636561908883  0.1871850868155676  1.0000
  C   C6        1.0  0.4599332347539685  0.5863028897211678  0.1862489334919388  1.0000
  C   C7        1.0  0.48979900191256587  0.5028180877947079  0.2329248960853789  1.0000
  C   C8        1.0  0.486284040421367  0.5016546005614302  0.0491741181705478  1.0000
  C   C9        1.0  0.5395834270049917  0.5802816217668294  0.9076652131586656  1.0000
  C   C10       1.0  0.44228091358847627  0.4248279162601349  0.9045892689149965  1.0000
  C   C11       1.0  0.5435863027287128  0.5811863798943618  0.8170755048807407  1.0000
  C   C12       1.0  0.44701062107962036  0.4254807195329775  0.8139598480196852  1.0000
  C   C13       1.0  0.49752068376132297  0.5037334664956319  0.7692821954850684  1.0000
  C   C14       1.0  0.48875251931860936  0.5021543520312761  0.9530334028656853  1.0000
  C   C15       1.0  0.4786655609846521  0.8962154762371882  0.4230546893530515  1.0000
  C   C16       1.0  0.4142123069118854  0.10672883296702908  0.4489388413687506  1.0000
  C   C17       1.0  0.2623083034452094  0.4983207040833904  0.4970848803531779  1.0000
  C   C18       1.0  0.48116209670826754  0.7965810090334532  0.42588854114146096  1.0000
  C   C19       1.0  0.41692826066404365  0.20640859617027013  0.45118171137616503  1.0000
  C   C20       1.0  0.5206596459571884  0.7966292880343103  0.5745952190297032  1.0000
  C   C21       1.0  0.5805604706035369  0.2046161005274314  0.5491600350923207  1.0000
  C   C22       1.0  0.5208377231792056  0.8962378474622029  0.5768120166755892  1.0000
  C   C23       1.0  0.5828357433860277  0.10500867987165212  0.5510421698854059  1.0000
  C   C24       1.0  0.49906506844757803  0.9481964972617761  0.4997955394246745  1.0000
  C   C25       1.0  0.4985081552176567  0.054004066896673884  0.4998022579317762  1.0000
  C   C26       1.0  0.5020871292887962  0.5044135738029851  0.6717081923384427  1.0000
  C   C27       1.0  0.7393970289060408  0.4953452252610475  0.4997246853605545  1.0000
  C   C28       1.0  0.06977005512364799  0.43061514559378367  0.4224719536927495  1.0000
  C   C29       1.0  0.0698406578920512  0.6038752793301683  0.4900352220427777  1.0000
  C   C30       1.0  0.9278213864149479  0.4416973646651172  0.41888266013350517  1.0000
  C   C31       1.0  0.9272879839152851  0.6014020241473473  0.4919950497521697  1.0000
  C   C32       1.0  0.07561544049352162  0.4585745905714516  0.581060581402447  1.0000
  C   C33       1.0  0.121827993855895  0.5005905536304169  0.4926906329322094  1.0000
  C   C34       1.0  0.8801536733977996  0.4981644095413528  0.4987419396207216  1.0000
  C   C35       1.0  0.11941418037512358  0.5099189953087445  0.28262772936739816  1.0000
  C   C36       1.0  0.133533024486411  0.47828751723043433  0.1883781394125563  1.0000
  C   C37       1.0  0.12085872624929549  0.5636554255787161  0.1260242025828546  1.0000
  C   C38       1.0  0.15321743511415062  0.750705085366711  0.4326131891220157  1.0000
  C   C39       1.0  0.0482864348400227  0.8232978825249545  0.44495810354582227  1.0000
  C   C40       1.0  0.0970856156063178  0.9253484305886486  0.4546944851861667  1.0000
  N   N1        1.0  0.5013512536694336  0.7478230783111215  0.5003735048745668  1.0000
  N   N2        1.0  0.49899815895698646  0.254090820637181  0.5002676583185419  1.0000
  O   O1        1.0  0.523027280553471  0.4259647502086282  0.36870423988911943  1.0000
  O   O2        1.0  0.46997333253311524  0.58373585753057  0.36775783835929576  1.0000
  O   O3        1.0  0.31498536786710923  0.41825189694534265  0.4823862580665903  1.0000
  O   O4        1.0  0.31652091645165104  0.5752439040586877  0.5193807167146431  1.0000
  O   O5        1.0  0.478803667690194  0.42577398015205137  0.633177182488559  1.0000
  O   O6        1.0  0.5287077703740551  0.5836310328991556  0.6345375792646522  1.0000
  O   O7        1.0  0.6891634859405115  0.4153325724221445  0.5178565937806852  1.0000
  O   O8        1.0  0.6822049784602058  0.5728586768454349  0.4815544990803247  1.0000
  O   O9        1.0  0.12609414577612202  0.42739251378986143  0.3383082079399458  1.0000
  O   O10       1.0  0.11378054940392703  0.6557257349867383  0.4154246461901323  1.0000
