data_image0
_chemical_formula_structural       Cu4H72C104N16O20
_chemical_formula_sum              "Cu4 H72 C104 N16 O20"
_cell_length_a       12.623156296144366
_cell_length_b       14.958809118784133
_cell_length_c       16.56867500430022
_cell_angle_alpha    110.1942792857229
_cell_angle_beta     89.9998054311765
_cell_angle_gamma    90.00053207985425

_space_group_name_H-M_alt    "P 1"
_space_group_IT_number       1

loop_
  _space_group_symop_operation_xyz
  'x, y, z'

loop_
  _atom_site_type_symbol
  _atom_site_label
  _atom_site_symmetry_multiplicity
  _atom_site_fract_x
  _atom_site_fract_y
  _atom_site_fract_z
  _atom_site_occupancy
  Cu  Cu1       1.0  0.04252408950371491  0.10093008463610428  0.6228592687303163  1.0000
  Cu  Cu2       1.0  0.5425088831220535  0.8990534231656682  0.8771112251779698  1.0000
  Cu  Cu3       1.0  0.9574704651845282  0.8990338267188421  0.3771269730133681  1.0000
  Cu  Cu4       1.0  0.4575078532691352  0.10096931213866607  0.1229038701265566  1.0000
  H   H1        1.0  0.2792754100708806  0.0816399488895243  0.6153955285851964  1.0000
  H   H2        1.0  0.7792706731262059  0.9184000750307533  0.8846038433466319  1.0000
  H   H3        1.0  0.7207151838488033  0.9183711729169914  0.38461021612337015  1.0000
  H   H4        1.0  0.22072863487490224  0.0815967412824889  0.1153960098633462  1.0000
  H   H5        1.0  0.39001446007933555  0.26404184652515283  0.47969662945850894  1.0000
  H   H6        1.0  0.8900166264855404  0.7359236373903572  0.020243916789517927  1.0000
  H   H7        1.0  0.6099800948334676  0.7359751042260997  0.5203144007312231  1.0000
  H   H8        1.0  0.11000723953066682  0.2640598082561567  0.9797370269777657  1.0000
  H   H9        1.0  0.18667954399925438  0.5082910761672749  0.9788374756557585  1.0000
  H   H10       1.0  0.6866775145277941  0.49171335590499154  0.5211724813957446  1.0000
  H   H11       1.0  0.8133356079317625  0.49171748699860984  0.021175389251418226  1.0000
  H   H12       1.0  0.3133202091644521  0.5082959196249491  0.47882126372955003  1.0000
  H   H13       1.0  0.22096816729975197  0.6245270029522773  0.8842893386576094  1.0000
  H   H14       1.0  0.7209731644994124  0.3754741484134315  0.6156809607416063  1.0000
  H   H15       1.0  0.7790390626196884  0.37545804437191777  0.11569689267267338  1.0000
  H   H16       1.0  0.27903010457912103  0.6245447381028556  0.3843251869381702  1.0000
  H   H17       1.0  0.06495043106954061  0.7873380721743715  0.12097285475420698  1.0000
  H   H18       1.0  0.5649397709035711  0.2126514723971766  0.37904290494181225  1.0000
  H   H19       1.0  0.9350599677516417  0.21267102554487138  0.8790160089027097  1.0000
  H   H20       1.0  0.4350753810220383  0.7873510395124228  0.6209585726481633  1.0000
  H   H21       1.0  0.17446164588920252  0.3385286148910255  0.8781944705510298  1.0000
  H   H22       1.0  0.6744680829724744  0.6614637712788609  0.6217969819968586  1.0000
  H   H23       1.0  0.8255376621755631  0.6614763445307263  0.12179683592265181  1.0000
  H   H24       1.0  0.32553043289480155  0.33854430269886376  0.3782024588698647  1.0000
  H   H25       1.0  0.5631924337208858  0.971811082761036  0.6494089336408563  1.0000
  H   H26       1.0  0.063178853081773  0.028194484442295192  0.8505822980504262  1.0000
  H   H27       1.0  0.4368037055756561  0.0282005953801487  0.3505927428300311  1.0000
  H   H28       1.0  0.9368069875688648  0.9717922090058266  0.14941044120986652  1.0000
  H   H29       1.0  0.8050941401377616  0.11054034231098339  0.6131915298722532  1.0000
  H   H30       1.0  0.30508799856324503  0.8894895452909566  0.8868139515434024  1.0000
  H   H31       1.0  0.19488377868417225  0.8894758075002754  0.3868168565348069  1.0000
  H   H32       1.0  0.6948915045184736  0.1105072926815822  0.11320583467772137  1.0000
  H   H33       1.0  0.9001635184595788  0.4068431297400251  0.7588440095518435  1.0000
  H   H34       1.0  0.4001461875355262  0.5931540006174814  0.7411501070713483  1.0000
  H   H35       1.0  0.09984608813085322  0.5931588930263699  0.2411440439982115  1.0000
  H   H36       1.0  0.5998689643780963  0.40684410624646017  0.2588464911324663  1.0000
  H   H37       1.0  0.5215538643237423  0.17292924472197768  0.5267173579614948  1.0000
  H   H38       1.0  0.021550608921025102  0.8270330688566858  0.9732368724686465  1.0000
  H   H39       1.0  0.47843831402231995  0.8270927785412925  0.47329753429445987  1.0000
  H   H40       1.0  0.9784566209186638  0.1729318217774676  0.0267375716980354  1.0000
  H   H41       1.0  0.8794065447942998  0.8673100432333387  0.7437058043228788  1.0000
  H   H42       1.0  0.379401654993444  0.132693749282069  0.7562824084257044  1.0000
  H   H43       1.0  0.12058088019649203  0.13267518137946152  0.2563046313038981  1.0000
  H   H44       1.0  0.6205952764700841  0.8673107205161372  0.24371479683666306  1.0000
  H   H45       1.0  0.05969744739044812  0.24190831498310678  0.5396290328411837  1.0000
  H   H46       1.0  0.559689849184622  0.7580890590617031  0.9603508122442008  1.0000
  H   H47       1.0  0.9402883932302474  0.7580689008977115  0.4603549649666121  1.0000
  H   H48       1.0  0.4403110432083608  0.24191309657273763  0.03966022523563591  1.0000
  H   H49       1.0  0.6902821135921544  0.891626452264866  0.7065762880906589  1.0000
  H   H50       1.0  0.1902783731480753  0.10837620716741718  0.7934228900849476  1.0000
  H   H51       1.0  0.30971164912170224  0.10838596004096247  0.2934262016111475  1.0000
  H   H52       1.0  0.8097272723259082  0.8916036337389528  0.2065751409056702  1.0000
  H   H53       1.0  0.20903224991088362  0.90953055330116  0.1516442918784975  1.0000
  H   H54       1.0  0.709028352069325  0.09043372913000519  0.3483422051211136  1.0000
  H   H55       1.0  0.7909726035142414  0.09047754293501241  0.8483557591721507  1.0000
  H   H56       1.0  0.29097174813189514  0.9095583931149207  0.6516448363156613  1.0000
  H   H57       1.0  0.2002555364429313  0.3116366116538173  0.47159785440099  1.0000
  H   H58       1.0  0.700252403268536  0.688322728185078  0.02835162569829923  1.0000
  H   H59       1.0  0.799727927640909  0.6883520842126528  0.528391832899686  1.0000
  H   H60       1.0  0.2997595798137241  0.31166550041584873  0.9716445705761528  1.0000
  H   H61       1.0  0.0217325802445458  0.9619456859265583  0.7062108822922466  1.0000
  H   H62       1.0  0.52173709508822  0.038075541923007  0.793774642449435  1.0000
  H   H63       1.0  0.9782588057896433  0.038046057832929095  0.29378510885102566  1.0000
  H   H64       1.0  0.4782598363368892  0.9619265025315754  0.20623334411211394  1.0000
  H   H65       1.0  0.3653945801210413  0.7454399853636887  0.9166416786910075  1.0000
  H   H66       1.0  0.8654166599057832  0.2545875212240674  0.5833623860530253  1.0000
  H   H67       1.0  0.6346015591079068  0.2545651514141126  0.08337383207995688  1.0000
  H   H68       1.0  0.13456680419336922  0.7454062916295713  0.4166323836812253  1.0000
  H   H69       1.0  0.9093877079055944  0.5763375015828914  0.8606375667740664  1.0000
  H   H70       1.0  0.4093928142395527  0.42365236141235135  0.639367741240349  1.0000
  H   H71       1.0  0.09062031427061615  0.4236672350533937  0.13936696069228557  1.0000
  H   H72       1.0  0.5905985718065169  0.576337647205463  0.3606193012374064  1.0000
  C   C1        1.0  0.35069558270858897  0.17225661288597394  0.5518019663677479  1.0000
  C   C2        1.0  0.8506887856047955  0.827743609968209  0.9481720074373711  1.0000
  C   C3        1.0  0.6492894658534072  0.8277528626874329  0.4481972704095369  1.0000
  C   C4        1.0  0.14931369117987003  0.17225313965960248  0.051826015221891474  1.0000
  C   C5        1.0  0.036961451982485016  0.36259547434858774  0.8131336265227773  1.0000
  C   C6        1.0  0.5369641559956976  0.6374017816168732  0.6868673697931555  1.0000
  C   C7        1.0  0.9630315184608025  0.6374028547530413  0.18686907351619905  1.0000
  C   C8        1.0  0.46304703495667365  0.36259610290341016  0.3131231265742613  1.0000
  C   C9        1.0  0.7330377934818985  0.003550465342790702  0.6573623267358784  1.0000
  C   C10       1.0  0.2330456777978611  0.9964592599927043  0.8426279026509176  1.0000
  C   C11       1.0  0.2669520082442177  0.9964606342277448  0.3426428077890262  1.0000
  C   C12       1.0  0.7669663053196559  0.0035398922913074987  0.15737805135447044  1.0000
  C   C13       1.0  0.26608968124361354  0.13487127187745068  0.5852974875480612  1.0000
  C   C14       1.0  0.7660747274344504  0.8651535831658991  0.9146945682231689  1.0000
  C   C15       1.0  0.7339040814563661  0.8651421413957721  0.4147131375882225  1.0000
  C   C16       1.0  0.23392616495116414  0.13484332208481217  0.08530772572137117  1.0000
  C   C17       1.0  0.3267345039889022  0.2355715756623198  0.5084656666709434  1.0000
  C   C18       1.0  0.8267252417397303  0.7643987075024727  0.9914847253347644  1.0000
  C   C19       1.0  0.6732592587022737  0.764430469272611  0.49152299706198477  1.0000
  C   C20       1.0  0.1732819881412128  0.23557930933760218  0.00850191625593057  1.0000
  C   C21       1.0  0.1247227670787012  0.4856077977702428  0.9302187855228111  1.0000
  C   C22       1.0  0.624709659399855  0.514402028078706  0.5697789588746787  1.0000
  C   C23       1.0  0.8753034756450904  0.5144035247688095  0.06977312801156191  1.0000
  C   C24       1.0  0.3752944018236876  0.4856015741775579  0.430213772055282  1.0000
  C   C25       1.0  0.21981016538894957  0.6858470979591473  0.9436762118121392  1.0000
  C   C26       1.0  0.7198179571256491  0.31412952577313996  0.5563172869521509  1.0000
  C   C27       1.0  0.7802041942328659  0.3141326762842668  0.05631998862802588  1.0000
  C   C28       1.0  0.28018610408143024  0.6858781920097102  0.4436917138053714  1.0000
  C   C29       1.0  0.13179985427643004  0.7786225625545172  0.07721806532503452  1.0000
  C   C30       1.0  0.6318128462859676  0.22135838049462817  0.4227787891648376  1.0000
  C   C31       1.0  0.8682121288794779  0.221377480026284  0.9227736503682635  1.0000
  C   C32       1.0  0.3682038900500119  0.7786476244306898  0.5772218731113908  1.0000
  C   C33       1.0  0.048516356758177906  0.5509240947095009  0.9244900262325045  1.0000
  C   C34       1.0  0.5485064856751835  0.4490763921685144  0.5755003929233737  1.0000
  C   C35       1.0  0.9515043405780618  0.4490807091696282  0.0754970089568374  1.0000
  C   C36       1.0  0.4515047052765625  0.5509238060383977  0.4244955940552302  1.0000
  C   C37       1.0  0.11776138156286461  0.39194062745339414  0.8747557393460709  1.0000
  C   C38       1.0  0.6177545571390085  0.6080672284864477  0.6252474970876278  1.0000
  C   C39       1.0  0.8822434718748725  0.6080695601418071  0.12524370047955097  1.0000
  C   C40       1.0  0.3822653479586365  0.39193523897689175  0.3747527601353369  1.0000
  C   C41       1.0  0.6230788986604382  0.021017465655909003  0.6403382359138305  1.0000
  C   C42       1.0  0.12308017854663693  0.9789977756631245  0.8596538105047387  1.0000
  C   C43       1.0  0.3769085265440709  0.9790071607937919  0.35967075651169716  1.0000
  C   C44       1.0  0.8769270514206369  0.0209987516563572  0.1403381103185382  1.0000
  C   C45       1.0  0.2964603392420244  0.8352322269270759  0.036196088983054195  1.0000
  C   C46       1.0  0.7964772863540973  0.1647636002019937  0.4638052491569624  1.0000
  C   C47       1.0  0.7035524360704744  0.16477153050065144  0.9638202360611314  1.0000
  C   C48       1.0  0.20352202166150593  0.8352299014572254  0.5361809780073442  1.0000
  C   C49       1.0  0.8183630441537916  0.0552717779355021  0.6409193585742159  1.0000
  C   C50       1.0  0.31836475326241503  0.9447389059205166  0.8590782010816723  1.0000
  C   C51       1.0  0.18162279658989897  0.9447394550155436  0.35908943705223334  1.0000
  C   C52       1.0  0.6816361390808156  0.0552556406848552  0.1409367047128995  1.0000
  C   C53       1.0  0.9624965878168583  0.42939592920212283  0.807226822089838  1.0000
  C   C54       1.0  0.46250142612264267  0.5706009274615198  0.6927845896570375  1.0000
  C   C55       1.0  0.0374947982233778  0.5706010871738556  0.1927785227723504  1.0000
  C   C56       1.0  0.5375145179705996  0.42939359746529965  0.3072103831261543  1.0000
  C   C57       1.0  0.4607305107026748  0.14828285057647153  0.5615472011143083  1.0000
  C   C58       1.0  0.9607303530564836  0.8517042034161476  0.938427603613718  1.0000
  C   C59       1.0  0.5392497847417985  0.851741108368337  0.43846280863071735  1.0000
  C   C60       1.0  0.03927133150666861  0.1482837805826662  0.061561880640411494  1.0000
  C   C61       1.0  0.8589294458163226  0.9187617941349159  0.7131086869944524  1.0000
  C   C62       1.0  0.3589397061083518  0.0812453699039324  0.786879928872537  1.0000
  C   C63       1.0  0.14105401823174904  0.081224431922422  0.28689056123815954  1.0000
  C   C64       1.0  0.641072277017017  0.9187490438430288  0.2131119929923669  1.0000
  C   C65       1.0  0.14303942073445342  0.2241615375716961  0.5412623224242948  1.0000
  C   C66       1.0  0.6430280587422317  0.7758393598974395  0.9587183427289857  1.0000
  C   C67       1.0  0.8569559263147684  0.7758410409559033  0.4587409857156146  1.0000
  C   C68       1.0  0.35697362583231046  0.2241568778804819  0.041284968535421684  1.0000
  C   C69       1.0  0.7547139544953015  0.9332752855349824  0.6934331290799348  1.0000
  C   C70       1.0  0.25471921371217127  0.0667342593064006  0.8065666622463539  1.0000
  C   C71       1.0  0.24527822378429684  0.0667294288043152  0.3065707882020448  1.0000
  C   C72       1.0  0.7452975225760811  0.9332664058109543  0.19344213858855847  1.0000
  C   C73       1.0  0.21200753329793542  0.8463710213273999  0.09386557764523218  1.0000
  C   C74       1.0  0.7120135431182818  0.15360042691317233  0.4061235602937927  1.0000
  C   C75       1.0  0.787995735728764  0.15363491684504282  0.9061332540794992  1.0000
  C   C76       1.0  0.28798180389497935  0.8463889364774602  0.5938651096876129  1.0000
  C   C77       1.0  0.3793979707106843  0.9104884918099572  0.0491360211489749  1.0000
  C   C78       1.0  0.8793975394682718  0.08951419229693873  0.45088037324936175  1.0000
  C   C79       1.0  0.6205997529453173  0.08952830283163139  0.9508900605840365  1.0000
  C   C80       1.0  0.12057800265253603  0.9104647591769962  0.5490932503949891  1.0000
  C   C81       1.0  0.2218631034169434  0.26211830883127624  0.5040754524190446  1.0000
  C   C82       1.0  0.7218551213963735  0.7378483430531376  0.9958759480343103  1.0000
  C   C83       1.0  0.7781290748606297  0.7378841362869152  0.4959241946189933  1.0000
  C   C84       1.0  0.27814893973351223  0.262134568433666  0.004109674153603709  1.0000
  C   C85       1.0  0.9387552944821921  0.9721785159551646  0.694160237872488  1.0000
  C   C86       1.0  0.4387672716128463  0.0278382165131958  0.805841195231082  1.0000
  C   C87       1.0  0.06122579300716071  0.027817254358119197  0.30584958236337195  1.0000
  C   C88       1.0  0.5612328285200193  0.972142002820803  0.19414788605236308  1.0000
  C   C89       1.0  0.034276287171010715  0.2598216912744605  0.7571372827102749  1.0000
  C   C90       1.0  0.5342814081765114  0.7401680233266745  0.7428506995726991  1.0000
  C   C91       1.0  0.9657174754771064  0.7401772386080978  0.24286256945804036  1.0000
  C   C92       1.0  0.4657250296079099  0.2598359791289084  0.2571530146625491  1.0000
  C   C93       1.0  0.1350072093414028  0.6995566542139217  0.0010337535184916902  1.0000
  C   C94       1.0  0.6350230620779487  0.3004228242683098  0.49896086462903366  1.0000
  C   C95       1.0  0.865003189349736  0.30043159661334323  0.9989630529395086  1.0000
  C   C96       1.0  0.3649841678734874  0.6995755048911222  0.5010418354106179  1.0000
  C   C97       1.0  0.3002737194641726  0.7535858381860835  0.9619519314591044  1.0000
  C   C98       1.0  0.8002911730101305  0.24640939209005103  0.538050922382503  1.0000
  C   C99       1.0  0.6997335104190158  0.24640672824975243  0.0380666364788951  1.0000
  C   C100      1.0  0.19970338187059875  0.753589671685461  0.4619332680591057  1.0000
  C   C101      1.0  0.9675947322656173  0.5235789264696108  0.8632922828610744  1.0000
  C   C102      1.0  0.4675917002804014  0.47641964043059193  0.6367069246535448  1.0000
  C   C103      1.0  0.03241962749357441  0.47642541000267596  0.1367012613003951  1.0000
  C   C104      1.0  0.5324250359308281  0.5235654286717021  0.36329923968927597  1.0000
  N   N1        1.0  0.48741047446224434  0.1011124958383078  0.6108194516002924  1.0000
  N   N2        1.0  0.9874070923161613  0.8989117504422451  0.8891840165760667  1.0000
  N   N3        1.0  0.5125642756253228  0.8989167134677488  0.38919930167977407  1.0000
  N   N4        1.0  0.012593800109272002  0.10109216305981757  0.11081725692443457  1.0000
  N   N5        1.0  0.9187403456902672  0.03848772190052329  0.657796462330438  1.0000
  N   N6        1.0  0.4187502357179441  0.9615389711038915  0.8422120828300308  1.0000
  N   N7        1.0  0.08123757304941392  0.9615159909203896  0.3422186423448537  1.0000
  N   N8        1.0  0.5812466956872485  0.0384588017016014  0.1577946854470724  1.0000
  N   N9        1.0  0.16534165094910955  0.16011060659395335  0.5797143770855654  1.0000
  N   N10       1.0  0.6653374920024504  0.8399095602451184  0.9202874341830523  1.0000
  N   N11       1.0  0.8346465663493635  0.8398926838462586  0.42028913410141655  1.0000
  N   N12       1.0  0.334666569169393  0.16008876890147408  0.07971526585644989  1.0000
  N   N13       1.0  0.595713751347688  0.09192314280031871  0.6171691946685272  1.0000
  N   N14       1.0  0.09570861950597732  0.9081049139117425  0.8828326058524069  1.0000
  N   N15       1.0  0.4042697129049346  0.908107245863725  0.382843252686932  1.0000
  N   N16       1.0  0.9042978182597853  0.0918917245683275  0.11716236588893737  1.0000
  O   O1        1.0  0.0454810176408529  0.6428501176018813  0.9833126441496275  1.0000
  O   O2        1.0  0.5455052996211762  0.3571390204403855  0.5166763565132797  1.0000
  O   O3        1.0  0.9545222513407056  0.3571473662034136  0.01668619174070327  1.0000
  O   O4        1.0  0.45449559279423835  0.6428596871434705  0.4833173938191563  1.0000
  O   O5        1.0  0.4586634355478766  0.8942142169228121  0.000572758834451291  1.0000
  O   O6        1.0  0.9586787925622178  0.1057959624943905  0.4994383513283295  1.0000
  O   O7        1.0  0.541326366151104  0.10579657089589739  0.999443155948228  1.0000
  O   O8        1.0  0.041287243227309  0.8941943795120648  0.5005578439025554  1.0000
  O   O9        1.0  0.3626464970658746  0.9903562012175584  0.11122647651557566  1.0000
  O   O10       1.0  0.8626241172402304  0.009645345531538398  0.38880110369215964  1.0000
  O   O11       1.0  0.6373646939232955  0.009664865127717791  0.8888008235025067  1.0000
  O   O12       1.0  0.13737598291042025  0.9903307360431199  0.6111710975800975  1.0000
  O   O13       1.0  0.9864153860836427  0.23723421377543727  0.6839255165585882  1.0000
  O   O14       1.0  0.4863995119388635  0.7627702461471344  0.8160572146526021  1.0000
  O   O15       1.0  0.013578376551187403  0.762761868341059  0.31607352342010125  1.0000
  O   O16       1.0  0.5136156399635611  0.23723035226551303  0.18394975563136737  1.0000
  O   O17       1.0  0.08103441911834611  0.2001217992106987  0.7829539296569408  1.0000
  O   O18       1.0  0.5810553510939728  0.7998656468627843  0.7170387365098562  1.0000
  O   O19       1.0  0.9189640966898979  0.7998772863204451  0.21705019379695048  1.0000
  O   O20       1.0  0.41894633352841043  0.2001420709104309  0.2829702642475453  1.0000
