data_image0
_chemical_formula_structural       Ag4H24C32N12O12
_chemical_formula_sum              "Ag4 H24 C32 N12 O12"
_cell_length_a       7.195678676383293
_cell_length_b       9.437286897080286
_cell_length_c       12.875659056629273
_cell_angle_alpha    89.99988484730642
_cell_angle_beta     89.99889246812694
_cell_angle_gamma    89.99953884147914

_space_group_name_H-M_alt    "P 1"
_space_group_IT_number       1

loop_
  _space_group_symop_operation_xyz
  'x, y, z'

loop_
  _atom_site_type_symbol
  _atom_site_label
  _atom_site_symmetry_multiplicity
  _atom_site_fract_x
  _atom_site_fract_y
  _atom_site_fract_z
  _atom_site_occupancy
  Ag  Ag1       1.0  0.998814824428571  0.9440554698944579  0.661875466134795  1.0000
  Ag  Ag2       1.0  0.5011837730457885  0.05594333496880207  0.16187639172948562  1.0000
  Ag  Ag3       1.0  0.49881690789023025  0.5559448535506277  0.3381264328595748  1.0000
  Ag  Ag4       1.0  0.0011850301838692001  0.4440565520224169  0.8381245322742646  1.0000
  H   H1        1.0  0.15176413905624742  0.6841126726053162  0.6174218448648503  1.0000
  H   H2        1.0  0.34823861847267784  0.31588616156597726  0.11742414244898212  1.0000
  H   H3        1.0  0.6517635032341005  0.8158866138618844  0.38257674736936315  1.0000
  H   H4        1.0  0.848238443976129  0.18411582201897395  0.8825785349734901  1.0000
  H   H5        1.0  0.32485217334232164  0.15439629135138933  0.6500107148024484  1.0000
  H   H6        1.0  0.175145268008869  0.8456003338834319  0.15001251871944993  1.0000
  H   H7        1.0  0.8248523727079801  0.345598419189521  0.34998522088414324  1.0000
  H   H8        1.0  0.6751521113792907  0.6544019871397068  0.8499858253350399  1.0000
  H   H9        1.0  0.32399704540485175  0.4611911269786332  0.5839936793894298  1.0000
  H   H10       1.0  0.17600549900417664  0.5388067395795061  0.08399437108153761  1.0000
  H   H11       1.0  0.8239925824405461  0.03880782735839719  0.4160038187125821  1.0000
  H   H12       1.0  0.676002629293926  0.9611945165315489  0.9160086238515106  1.0000
  H   H13       1.0  0.6739631368149475  0.154352832396313  0.6475328725608167  1.0000
  H   H14       1.0  0.8260373552161299  0.8456449523133072  0.14753307505115032  1.0000
  H   H15       1.0  0.17396028501643462  0.3456512864067561  0.352463111162372  1.0000
  H   H16       1.0  0.3260439278475574  0.6543511393209511  0.8524636676311135  1.0000
  H   H17       1.0  0.6711790780771096  0.46099296879941676  0.5812952762634326  1.0000
  H   H18       1.0  0.8288223555764133  0.5390039385971335  0.0812966758320783  1.0000
  H   H19       1.0  0.1711771134537585  0.039010107552371685  0.4187038436393992  1.0000
  H   H20       1.0  0.32882059871516833  0.9609963743724631  0.9187062506089916  1.0000
  H   H21       1.0  0.84543750273361  0.683570129119836  0.6125997702471723  1.0000
  H   H22       1.0  0.6545628290864512  0.31642669211407787  0.11260179247641841  1.0000
  H   H23       1.0  0.3454323383301343  0.8164300813234104  0.38739831992420903  1.0000
  H   H24       1.0  0.15456508600696853  0.18357330789183374  0.8873998337279833  1.0000
  C   C1        1.0  0.5985884222754266  0.8118121774040785  0.626983939101095  1.0000
  C   C2        1.0  0.9014114032403099  0.18818460423717195  0.1269874130696849  1.0000
  C   C3        1.0  0.09858511026551751  0.6881831987514956  0.37301288751233147  1.0000
  C   C4        1.0  0.4014114306969532  0.31181705118310515  0.8730139233838304  1.0000
  C   C5        1.0  0.3994119147296473  0.8119229916315545  0.6281204717807826  1.0000
  C   C6        1.0  0.100590466218101  0.18807581309133775  0.12812403182085322  1.0000
  C   C7        1.0  0.8994060483392375  0.6880864223394737  0.37187782223053034  1.0000
  C   C8        1.0  0.6005907165218075  0.311918162257946  0.8718804971710059  1.0000
  C   C9        1.0  0.30306193860137404  0.6828788036859805  0.6150266023899534  1.0000
  C   C10       1.0  0.19694090323188357  0.3171200370778564  0.1150289505284405  1.0000
  C   C11       1.0  0.8030500878278559  0.8171089527893114  0.384970384228275  1.0000
  C   C12       1.0  0.6969434367649684  0.18289135727264486  0.8849745558965412  1.0000
  C   C13       1.0  0.4011624906493837  0.055308263996920466  0.64384293128785  1.0000
  C   C14       1.0  0.09883794722320259  0.9446883782044749  0.143845399646608  1.0000
  C   C15       1.0  0.9011600430233031  0.4446997507298604  0.35615607783796593  1.0000
  C   C16       1.0  0.598844223862976  0.5552985193603701  0.8561576375481934  1.0000
  C   C17       1.0  0.3998209685719232  0.5591321587729323  0.5975311529645781  1.0000
  C   C18       1.0  0.1001824890712584  0.4408646108928024  0.09753279307272322  1.0000
  C   C19       1.0  0.8998197105031808  0.9408740737785303  0.4024679133427115  1.0000
  C   C20       1.0  0.6001718084884047  0.05912830738047598  0.9024725169669313  1.0000
  C   C21       1.0  0.597530368304888  0.05519427957486298  0.6426932103064759  1.0000
  C   C22       1.0  0.9024702940514403  0.9448045780810901  0.14269400944544944  1.0000
  C   C23       1.0  0.09752908483570621  0.44479759542048897  0.3573051378968942  1.0000
  C   C24       1.0  0.4024749575851132  0.5552079958597104  0.8573058053684408  1.0000
  C   C25       1.0  0.5962333230912478  0.5590308901857384  0.5960521282061678  1.0000
  C   C26       1.0  0.9037717603273665  0.4409670362079222  0.0960536528970977  1.0000
  C   C27       1.0  0.0962318280515291  0.9409570831141704  0.403943946737826  1.0000
  C   C28       1.0  0.4037650139055345  0.05904096242428379  0.90394843519713  1.0000
  C   C29       1.0  0.6940730529048694  0.6826688542303356  0.6124258257677013  1.0000
  C   C30       1.0  0.8059314541992892  0.3173269078419023  0.11242857023954402  1.0000
  C   C31       1.0  0.19406509342019973  0.8173386481541628  0.3875730941451892  1.0000
  C   C32       1.0  0.3059309350544411  0.18266262133123928  0.8875745561887601  1.0000
  N   N1        1.0  0.9960840429141341  0.2934013769450984  0.6176343391976787  1.0000
  N   N2        1.0  0.503916111699624  0.7066007285664567  0.11763505767703461  1.0000
  N   N3        1.0  0.4960843776451682  0.20659969418445454  0.3823667691779704  1.0000
  N   N4        1.0  0.003914613588314401  0.7933994703732947  0.8823651036335038  1.0000
  N   N5        1.0  0.30333673647931664  0.936696421454776  0.6391719748371261  1.0000
  N   N6        1.0  0.1966638657729334  0.06330129322800808  0.13917547502101263  1.0000
  N   N7        1.0  0.8033381277095941  0.5632923929070583  0.36082733877151446  1.0000
  N   N8        1.0  0.696667364464851  0.436710102828236  0.8608288109982497  1.0000
  N   N9        1.0  0.6951705576320608  0.9365691196513666  0.6370667024047308  1.0000
  N   N10       1.0  0.8048303027439445  0.06342763423556617  0.13706905446179724  1.0000
  N   N11       1.0  0.1951716893448321  0.5634394355592816  0.36293142915234  1.0000
  N   N12       1.0  0.30482937565484763  0.43655978248590066  0.8629309770193675  1.0000
  O   O1        1.0  0.005175759611148601  0.21733266936666232  0.700367068902203  1.0000
  O   O2        1.0  0.4948240785003861  0.7826680557621656  0.20036867915255396  1.0000
  O   O3        1.0  0.5051756124033205  0.28267037187244154  0.29963303608150943  1.0000
  O   O4        1.0  0.9948236953541639  0.7173312326967362  0.799630932230592  1.0000
  O   O5        1.0  0.9857227270545509  0.23443966808130054  0.5301864866119957  1.0000
  O   O6        1.0  0.5142749465623241  0.7655637377637418  0.030187008620039504  1.0000
  O   O7        1.0  0.4857249238915031  0.2655625266157529  0.46981473171487675  1.0000
  O   O8        1.0  0.0142737688873495  0.7344363972436623  0.9698130427532377  1.0000
  O   O9        1.0  0.997307530273524  0.42728623846045366  0.6264951401167738  1.0000
  O   O10       1.0  0.5026937022000907  0.5727158426593276  0.1264952913810404  1.0000
  O   O11       1.0  0.4973068027332986  0.07271376549483217  0.3735059552807415  1.0000
  O   O12       1.0  0.0026938900862916  0.9272854234461148  0.8735048828928812  1.0000
