data_image0
_chemical_formula_structural       Y2H12C10O16
_chemical_formula_sum              "Y2 H12 C10 O16"
_cell_length_a       7.948636957454605
_cell_length_b       7.977882142820399
_cell_length_c       7.8707296182079824
_cell_angle_alpha    107.90604957504125
_cell_angle_beta     96.44346050116637
_cell_angle_gamma    113.99274555189781

_space_group_name_H-M_alt    "P 1"
_space_group_IT_number       1

loop_
  _space_group_symop_operation_xyz
  'x, y, z'

loop_
  _atom_site_type_symbol
  _atom_site_label
  _atom_site_symmetry_multiplicity
  _atom_site_fract_x
  _atom_site_fract_y
  _atom_site_fract_z
  _atom_site_occupancy
  Y   Y1        1.0  0.5750587025386122  0.7910335339788973  0.2665555522074711  1.0000
  Y   Y2        1.0  0.42503863737395153  0.2089280202246044  0.7334462963016221  1.0000
  H   H1        1.0  0.09120084740294489  0.40922544734473115  0.35974707557654984  1.0000
  H   H2        1.0  0.9087828258918191  0.5907554789848817  0.640182689071274  1.0000
  H   H3        1.0  0.14191015198701248  0.7140209506853664  0.13648552072213238  1.0000
  H   H4        1.0  0.8581903640216308  0.285980035620284  0.8635030100876404  1.0000
  H   H5        1.0  0.5983333530411129  0.49722931544314963  0.4214422114164406  1.0000
  H   H6        1.0  0.4004859494368345  0.5025248717435955  0.5792205545088647  1.0000
  H   H7        1.0  0.45856761948312635  0.3642116919194007  0.2140918085639426  1.0000
  H   H8        1.0  0.5414896599591683  0.635687399459506  0.7858961388533529  1.0000
  H   H9        1.0  0.8980270723409374  0.982001368247644  0.6252423935492358  1.0000
  H   H10       1.0  0.10200363377570199  0.018053770027194098  0.37476014874589925  1.0000
  H   H11       1.0  0.7000048769558657  0.932156043691158  0.6694080720547219  1.0000
  H   H12       1.0  0.3000386840543498  0.0678935549641153  0.3306043159882606  1.0000
  C   C1        1.0  0.5591669796515929  0.9648353020218962  0.9412629398570899  1.0000
  C   C2        1.0  0.4408386909413976  0.03514850213762339  0.058718256410557494  1.0000
  C   C3        1.0  0.2178991441771103  0.7355701405104113  0.5125104433620677  1.0000
  C   C4        1.0  0.7821671510008271  0.2644627217574183  0.4874700757290497  1.0000
  C   C5        1.0  0.0734164908549033  0.5248039226869707  0.4618668285557631  1.0000
  C   C6        1.0  0.926718409236677  0.47526318148034336  0.5381678773892132  1.0000
  C   C7        1.0  0.8313009912646474  0.6063504988675772  0.08116781671293433  1.0000
  C   C8        1.0  0.168783346471848  0.3936609180436577  0.9187700455410733  1.0000
  C   C9        1.0  0.0046008309680872425  0.5849788039028849  0.05660339460404629  1.0000
  C   C10       1.0  0.9954530162161103  0.41500605618792713  0.9433424430528131  1.0000
  O   O1        1.0  0.6134911808770198  0.849003508566831  0.9797719832897512  1.0000
  O   O2        1.0  0.38648181660624187  0.15092054633077365  0.020182908161871165  1.0000
  O   O3        1.0  0.5906183435931637  0.027270833689087202  0.8124350406236542  1.0000
  O   O4        1.0  0.4093995398478113  0.9727227528079466  0.18758211290202095  1.0000
  O   O5        1.0  0.3537768949443957  0.7680082312385748  0.4342412226432088  1.0000
  O   O6        1.0  0.646261219404799  0.2320671572092152  0.5657439858011839  1.0000
  O   O7        1.0  0.20110588549338346  0.8726775367929488  0.6322511987245888  1.0000
  O   O8        1.0  0.798913772819496  0.12733560160367569  0.36772114062760847  1.0000
  O   O9        1.0  0.8524122112457276  0.7615865979874314  0.21328609326621967  1.0000
  O   O10       1.0  0.14769740578632445  0.23845189163523628  0.7866052817269774  1.0000
  O   O11       1.0  0.6690528765461675  0.47076554129466053  0.9730945730300815  1.0000
  O   O12       1.0  0.331035792277433  0.52928810234841  0.026823300282018226  1.0000
  O   O13       1.0  0.5157043538859581  0.4957822849564549  0.3192588024885125  1.0000
  O   O14       1.0  0.48451999092510784  0.5042985545589502  0.680514769526404  1.0000
  O   O15       1.0  0.761881430820324  0.8830338199928887  0.5757549622947734  1.0000
  O   O16       1.0  0.23817547277163695  0.1170086118390188  0.4242604820547695  1.0000
