data_image0
_chemical_formula_structural       La2H12C22N4O16
_chemical_formula_sum              "La2 H12 C22 N4 O16"
_cell_length_a       7.842407692266469
_cell_length_b       8.917303472564257
_cell_length_c       10.624670735325418
_cell_angle_alpha    67.41248798534077
_cell_angle_beta     85.44288364766716
_cell_angle_gamma    80.10577780062887

_space_group_name_H-M_alt    "P 1"
_space_group_IT_number       1

loop_
  _space_group_symop_operation_xyz
  'x, y, z'

loop_
  _atom_site_type_symbol
  _atom_site_label
  _atom_site_symmetry_multiplicity
  _atom_site_fract_x
  _atom_site_fract_y
  _atom_site_fract_z
  _atom_site_occupancy
  La  La1       1.0  0.19561381112191606  0.8109558084107817  0.47071702491884787  1.0000
  La  La2       1.0  0.8043837446627081  0.18904144876272258  0.5292844839202502  1.0000
  H   H1        1.0  0.8867076713222062  0.4354212910970077  0.22231256697983787  1.0000
  H   H2        1.0  0.11329122355907366  0.5645895904895114  0.7776838269444043  1.0000
  H   H3        1.0  0.7554160338190458  0.292707188209775  0.8269173433959479  1.0000
  H   H4        1.0  0.24458075278047184  0.7072936729378441  0.1730859316095987  1.0000
  H   H5        1.0  0.9348172059735305  0.08907892811494382  0.02237490310481152  1.0000
  H   H6        1.0  0.06518274575899591  0.9109257291208764  0.9776261559619782  1.0000
  H   H7        1.0  0.5256570153772201  0.8551415042432781  0.830470837448928  1.0000
  H   H8        1.0  0.4743371076922784  0.14486063880819702  0.16952838929366718  1.0000
  H   H9        1.0  0.5627925388790088  0.6220996980281086  0.7392056040031036  1.0000
  H   H10       1.0  0.4372021282516769  0.3778986233220748  0.2607994653263291  1.0000
  H   H11       1.0  0.6816994658131961  0.7411317595239311  0.059689885787697974  1.0000
  H   H12       1.0  0.31829971360360076  0.2588779479537849  0.9403049683202411  1.0000
  C   C1        1.0  0.0290149977013314  0.1189787694414548  0.2445193800337506  1.0000
  C   C2        1.0  0.9709846100840661  0.8810284537391625  0.7554771499123731  1.0000
  C   C3        1.0  0.9207307036136783  0.2488229254825924  0.1324841467268385  1.0000
  C   C4        1.0  0.07927547387935609  0.751183180692344  0.8675134004712106  1.0000
  C   C5        1.0  0.8587998079253366  0.40259109080999883  0.1380899737567916  1.0000
  C   C6        1.0  0.14120600866715455  0.597410073452366  0.8619090821721542  1.0000
  C   C7        1.0  0.7585064533176366  0.5141197177953883  0.02922007124552551  1.0000
  C   C8        1.0  0.24149975231588877  0.48588641559545187  0.9707765248583656  1.0000
  C   C9        1.0  0.7206944223611487  0.4754916167836072  0.9184768760949922  1.0000
  C   C10       1.0  0.2793047682427314  0.5245106100526299  0.08152306477035151  1.0000
  C   C11       1.0  0.7835509100397147  0.3218124386868553  0.9126414473813327  1.0000
  C   C12       1.0  0.2164438897369649  0.6781920531165041  0.087361750845183  1.0000
  C   C13       1.0  0.8834588658773584  0.21081614254541847  0.021130010241399995  1.0000
  C   C14       1.0  0.11654406206120166  0.7891860858936256  0.9788726061778803  1.0000
  C   C15       1.0  0.5949271360113999  0.7314440981915595  0.881522697195031  1.0000
  C   C16       1.0  0.4050721028170089  0.2685642174501695  0.1184782258498913  1.0000
  C   C17       1.0  0.5349598140132983  0.007398355196222903  0.4274537223311938  1.0000
  C   C18       1.0  0.46505605009584633  0.9926043412557632  0.5725416440004523  1.0000
  C   C19       1.0  0.5302583935147851  0.4967200263553406  0.5691180641370012  1.0000
  C   C20       1.0  0.4697602794070762  0.5032394785272203  0.43089307546897254  1.0000
  C   C21       1.0  0.05320476229837815  0.44279064976090143  0.5644957478022761  1.0000
  C   C22       1.0  0.9467827652131151  0.5571915602078192  0.4355116530236388  1.0000
  N   N1        1.0  0.618597585874504  0.6140442720272007  0.8299763401592556  1.0000
  N   N2        1.0  0.381403619692705  0.3859543513692002  0.17002272639096114  1.0000
  N   N3        1.0  0.6772652138132856  0.6750175219385212  0.0009112463782799255  1.0000
  N   N4        1.0  0.3227390612783764  0.32499229653985395  0.9990833707582566  1.0000
  O   O1        1.0  0.1192804753762644  2.7491040810899244e-05  0.22138477627051864  1.0000
  O   O2        1.0  0.8807205211799243  0.9999588458810322  0.7786161302971948  1.0000
  O   O3        1.0  0.0280569240250159  0.13058853362335301  0.3622266026072296  1.0000
  O   O4        1.0  0.9719546336784077  0.8694165094434467  0.6377691678031069  1.0000
  O   O5        1.0  0.44790958343253356  0.9571701421498489  0.3600397093773823  1.0000
  O   O6        1.0  0.5520821405584259  0.04282604710709139  0.6399519960122149  1.0000
  O   O7        1.0  0.6709378218110871  0.07128416911881169  0.3857455054821628  1.0000
  O   O8        1.0  0.32905566074816756  0.9287096180229851  0.6142459143144379  1.0000
  O   O9        1.0  0.473086842842534  0.6198548197579327  0.6014949064130307  1.0000
  O   O10       1.0  0.5269037260529288  0.38013855807687236  0.3985089960933763  1.0000
  O   O11       1.0  0.6319329550291074  0.3713803654905803  0.638831257089187  1.0000
  O   O12       1.0  0.36804221427980366  0.6286125704786516  0.36117716070807393  1.0000
  O   O13       1.0  0.1487564099566896  0.5110963693653047  0.6104367138551511  1.0000
  O   O14       1.0  0.8512482573066364  0.4889169719737651  0.3895634145816231  1.0000
  O   O15       1.0  0.03669115946480161  0.2926569635299145  0.612852698264355  1.0000
  O   O16       1.0  0.9633186316138804  0.7073565160257118  0.3871462421068514  1.0000
