data_image0
_chemical_formula_structural       Cd8H36C48N12O28
_chemical_formula_sum              "Cd8 H36 C48 N12 O28"
_cell_length_a       6.982078316
_cell_length_b       13.009438290196982
_cell_length_c       16.19
_cell_angle_alpha    102.77160465999246
_cell_angle_beta     90.0
_cell_angle_gamma    90.0

_space_group_name_H-M_alt    "P 1"
_space_group_IT_number       1

loop_
  _space_group_symop_operation_xyz
  'x, y, z'

loop_
  _atom_site_type_symbol
  _atom_site_label
  _atom_site_symmetry_multiplicity
  _atom_site_fract_x
  _atom_site_fract_y
  _atom_site_fract_z
  _atom_site_occupancy
  Cd  Cd1       1.0  0.6362775951423459  0.2108047117660874  0.1383619788714228  1.0000
  Cd  Cd2       1.0  0.1362688811180632  0.2892003247766795  0.36163934816777754  1.0000
  Cd  Cd3       1.0  0.3637269427614954  0.7891943268994834  0.8616467447398009  1.0000
  Cd  Cd4       1.0  0.8637213344027472  0.7107963493703195  0.6383646317622009  1.0000
  Cd  Cd5       1.0  0.5645138627230466  0.6895377511285118  0.11638882413551949  1.0000
  Cd  Cd6       1.0  0.0645080131753701  0.810463959561261  0.3836133945075275  1.0000
  Cd  Cd7       1.0  0.4354992686106129  0.3104715337841739  0.8836173959260094  1.0000
  Cd  Cd8       1.0  0.9354750411539217  0.1895303500671801  0.6163827534150742  1.0000
  H   H1        1.0  0.9503244878813251  0.8206865614890475  0.13784684283690046  1.0000
  H   H2        1.0  0.4503358251932852  0.6793427352506427  0.36216089375913185  1.0000
  H   H3        1.0  0.0496843467374219  0.17934242774500578  0.862160406769263  1.0000
  H   H4        1.0  0.5496701449488555  0.3206760077362957  0.6378494770619555  1.0000
  H   H5        1.0  0.2046152929459666  0.7572780553139891  0.03156403376969759  1.0000
  H   H6        1.0  0.7046197102553364  0.7427394188328833  0.46845457367274435  1.0000
  H   H7        1.0  0.7953992706259996  0.24273911132723916  0.9684485276958483  1.0000
  H   H8        1.0  0.2953848276485047  0.2572635606969627  0.5315573206404878  1.0000
  H   H9        1.0  0.6850123678847597  0.9727046127010865  0.9547908750848607  1.0000
  H   H10       1.0  0.185036595341451  0.5272852753958617  0.5451968901303488  1.0000
  H   H11       1.0  0.3149706864445321  0.0272944259644774  0.0451987009043719  1.0000
  H   H12       1.0  0.8149951550901522  0.4726948471211898  0.4547955023138144  1.0000
  H   H13       1.0  0.9563098117503303  0.9065453832624968  0.8568761389912112  1.0000
  H   H14       1.0  0.4563168523473777  0.5934295295502068  0.6431169957157153  1.0000
  H   H15       1.0  0.0436847004853931  0.0934355274274097  0.1431151581307262  1.0000
  H   H16       1.0  0.543709169131013  0.4065340413368901  0.35687678021236746  1.0000
  H   H17       1.0  0.2675464117495281  0.3382554150915311  0.1815596200707716  1.0000
  H   H18       1.0  0.7675622869653296  0.1617582913526405  0.3184469530502128  1.0000
  H   H19       1.0  0.7324280491499451  0.6617491407840246  0.8184488482675434  1.0000
  H   H20       1.0  0.2324422509385116  0.8382352301029456  0.6815453488728168  1.0000
  H   H21       1.0  0.15391262477497492  0.44680967422123524  0.1493332386424839  1.0000
  H   H22       1.0  0.6538984229864084  0.053202455877226384  0.35066193648800237  1.0000
  H   H23       1.0  0.8460904808905596  0.5531948816543135  0.8506653470522281  1.0000
  H   H24       1.0  0.3460903602960955  0.9467973709611994  0.6493283971746707  1.0000
  H   H25       1.0  0.3956042706754417  0.45725138820267824  0.1861652139517815  1.0000
  H   H26       1.0  0.8955886366485759  0.042751283821523586  0.3138326047366249  1.0000
  H   H27       1.0  0.6043945382751872  0.5427476504628856  0.8138410389985394  1.0000
  H   H28       1.0  0.10440444334884093  0.9572414494612076  0.6861607925086303  1.0000
  H   H29       1.0  0.2620681002398513  0.5492634754541753  0.05657600395409901  1.0000
  H   H30       1.0  0.7620510339746788  0.9507342943713226  0.4434125436781002  1.0000
  H   H31       1.0  0.7379364376639828  0.4507442331127933  0.9434268477648544  1.0000
  H   H32       1.0  0.2379076723034572  0.04925134535571369  0.5565789758279323  1.0000
  H   H33       1.0  0.1421338969695967  0.6316354205176394  0.1273361199179135  1.0000
  H   H34       1.0  0.6421325853257615  0.8683647138264234  0.37264728875192793  1.0000
  H   H35       1.0  0.8578763698874567  0.368381746123589  0.8726634705778977  1.0000
  H   H36       1.0  0.3578576301950491  0.131616196863483  0.6273347433916214  1.0000
  C   C1        1.0  0.3159274216310592  0.8806570576711222  0.2741230126310299  1.0000
  C   C2        1.0  0.8159891284725589  0.6193493820557734  0.22586645742638467  1.0000
  C   C3        1.0  0.6840642261280507  0.11933961647587667  0.7258723199857898  1.0000
  C   C4        1.0  0.18404118972073755  0.3806496566097906  0.7741342365369022  1.0000
  C   C5        1.0  0.4268098788251962  0.925731875068834  0.2118581701293536  1.0000
  C   C6        1.0  0.9268243218026981  0.5742706237937937  0.28813739420443346  1.0000
  C   C7        1.0  0.5731774722190011  0.0742655872510269  0.7881317435086572  1.0000
  C   C8        1.0  0.0731873772926619  0.42572289766179233  0.7118586137099499  1.0000
  C   C9        1.0  0.43941357589321234  0.029684166060476993  0.2030790427692963  1.0000
  C   C10       1.0  0.9394394767771317  0.4703295403837018  0.2969250596907855  1.0000
  C   C11       1.0  0.5605694784360793  0.9703219661607889  0.7969136462896032  1.0000
  C   C12       1.0  0.06057508679482741  0.5296718628004342  0.7030816132841977  1.0000
  C   C13       1.0  0.3477116540553027  0.1252595827888783  0.2521357809121909  1.0000
  C   C14       1.0  0.8477074779348543  0.3747509709638734  0.24785849653662953  1.0000
  C   C15       1.0  0.6522943160868453  0.8747457612595253  0.7478617094602953  1.0000
  C   C16       1.0  0.15229849220728656  0.6252480677016976  0.752145285752789  1.0000
  C   C17       1.0  0.6412761068204561  0.9355044302964827  0.11595484856332659  1.0000
  C   C18       1.0  0.1412974698005414  0.5645012212575651  0.38404621712514597  1.0000
  C   C19       1.0  0.3587012185556233  0.0645040664433409  0.8840462901681718  1.0000
  C   C20       1.0  0.8587099325799059  0.4355049109637008  0.6159631488948419  1.0000
  C   C21       1.0  0.794869342453822  0.9014924070898686  0.054470825465820404  1.0000
  C   C22       1.0  0.2948792475274757  0.598519549847019  0.4455208599796023  1.0000
  C   C23       1.0  0.2051280342585002  0.0985082079214123  0.9455221188659806  1.0000
  C   C24       1.0  0.7051267226146649  0.40149446410278944  0.5544787881485504  1.0000
  C   C25       1.0  0.9437104113972268  0.8401394557203331  0.07591572732845009  1.0000
  C   C26       1.0  0.4437117230410622  0.6598780184265394  0.4241028801139919  1.0000
  C   C27       1.0  0.0562969909832205  0.15987928726660525  0.9240841431838049  1.0000
  C   C28       1.0  0.5562799247180479  0.3401359955232763  0.5759146803056936  1.0000
  C   C29       1.0  0.08841350269380403  0.8064584651127618  0.01746765407076372  1.0000
  C   C30       1.0  0.588395004190325  0.6935558563426838  0.4825405106951877  1.0000
  C   C31       1.0  0.9115910352100371  0.1935523961456269  0.9825376106767577  1.0000
  C   C32       1.0  0.4115894823772663  0.3064550049157048  0.5174690777089097  1.0000
  C   C33       1.0  0.7987005799148363  0.9264688166881427  0.9746376263034691  1.0000
  C   C34       1.0  0.2986947303671599  0.5735250122730804  0.5253675159139348  1.0000
  C   C35       1.0  0.2012953645591864  0.0735317983231312  0.0253577886892273  1.0000
  C   C36       1.0  0.7012997818685562  0.4264622037996659  0.4746391075739567  1.0000
  C   C37       1.0  0.9483236509717798  0.8893340526304954  0.9197236590066638  1.0000
  C   C38       1.0  0.4483206659007095  0.6106542591207429  0.5802767971618366  1.0000
  C   C39       1.0  0.051670861263943414  0.1106563161336709  0.08027364187051228  1.0000
  C   C40       1.0  0.5516996266244689  0.3893368978162783  0.4197268203758072  1.0000
  C   C41       1.0  0.3610472248962395  0.3641729030785328  0.06155943383831191  1.0000
  C   C42       1.0  0.861040184299185  0.1358163700071344  0.43844218136257496  1.0000
  C   C43       1.0  0.6389530162926891  0.6358261355870309  0.93844620144678  1.0000
  C   C44       1.0  0.1389514634599252  0.8641755751027418  0.5615572525267183  1.0000
  C   C45       1.0  0.2880961669236015  0.4036414469594831  0.1500738827127819  1.0000
  C   C46       1.0  0.7880948552797663  0.0963683186204136  0.3499233430539377  1.0000
  C   C47       1.0  0.7118997775504212  0.5963575917060879  0.8499323702375322  1.0000
  C   C48       1.0  0.21190538590916935  0.9036315082180122  0.6500663729435132  1.0000
  N   N1        1.0  0.5554406330723864  0.8669389091319458  0.15728159880762857  1.0000
  N   N2        1.0  0.0554576993375591  0.6330691069406666  0.3427174162446107  1.0000
  N   N3        1.0  0.4445481502101245  0.1330624940521901  0.8427108678671689  1.0000
  N   N4        1.0  0.9445539997578012  0.3669291435520492  0.6572831377104507  1.0000
  N   N5        1.0  0.5756953471559998  0.0345716259335802  0.14227089033092713  1.0000
  N   N6        1.0  0.07571241342117223  0.4654428686834464  0.357731499141707  1.0000
  N   N7        1.0  0.4242862749349854  0.9654345062876785  0.857719945732299  1.0000
  N   N8        1.0  0.9242849632911501  0.5345569581549796  0.6422767468125059  1.0000
  N   N9        1.0  0.09143266103691162  0.8306427609918855  0.9409285829642046  1.0000
  N   N10       1.0  0.5914270526781635  0.6693573733521774  0.5590801499798772  1.0000
  N   N11       1.0  0.9085647156754106  0.1693562776736783  0.05907025800340902  1.0000
  N   N12       1.0  0.40856602731925323  0.3306440298319586  0.4409302289864598  1.0000
  O   O1        1.0  0.4102904422362812  0.8451545995959292  0.3289097497365248  1.0000
  O   O2        1.0  0.9102891305924459  0.6548534164766833  0.1710843239939095  1.0000
  O   O3        1.0  0.5897140956675602  0.15483813368680188  0.6710743825303496  1.0000
  O   O4        1.0  0.0897282974561264  0.3451558684360023  0.8289194254067098  1.0000
  O   O5        1.0  0.1334788809034606  0.8791350958883511  0.2695876783729787  1.0000
  O   O6        1.0  0.6334775692596254  0.6208839546042241  0.2304132967943673  1.0000
  O   O7        1.0  0.8665256570003805  0.12086945998719757  0.7304152309783092  1.0000
  O   O8        1.0  0.36653269759742824  0.3791064141599349  0.7695815334219062  1.0000
  O   O9        1.0  0.2222934103221519  0.11673549336335748  0.3069940441241812  1.0000
  O   O10       1.0  0.7223322013508027  0.3832711195251193  0.1930131219184901  1.0000
  O   O11       1.0  0.7776982374369581  0.8832635453022133  0.6930066498391056  1.0000
  O   O12       1.0  0.2776823622211566  0.6167342245232844  0.8069856037844474  1.0000
  O   O13       1.0  0.3982753951108791  0.2152523711861747  0.23834722747837844  1.0000
  O   O14       1.0  0.8982755157053433  0.2847558180480192  0.2616534242632582  1.0000
  O   O15       1.0  0.6017320072695682  0.784753761035091  0.7616602855459362  1.0000
  O   O16       1.0  0.1017232932452856  0.7152463733089718  0.7383453590720209  1.0000
  O   O17       1.0  0.31873317646699223  0.41660137321226637  0.005504512271024017  1.0000
  O   O18       1.0  0.8187175424401261  0.0833878998734008  0.49449030861238447  1.0000
  O   O19       1.0  0.6812928450113915  0.5834008181447174  0.99450477137308  1.0000
  O   O20       1.0  0.181264079650866  0.9166016807179105  0.5055000579390878  1.0000
  O   O21       1.0  0.4614242141365281  0.2800835293642905  0.041181701355078815  1.0000
  O   O22       1.0  0.961422902492693  0.21990732006709374  0.458826370514501  1.0000
  O   O23       1.0  0.5385760270524003  0.7199123566098606  0.9588270798884723  1.0000
  O   O24       1.0  0.0385701775047238  0.7800783196599426  0.5411750316351416  1.0000
  O   O25       1.0  0.259313905982836  0.6226904467876081  0.09125735808472511  1.0000
  O   O26       1.0  0.7593011364325691  0.8773104757293096  0.4087354555717155  1.0000
  O   O27       1.0  0.7407006575891302  0.3773196262979255  0.9087490019850222  1.0000
  O   O28       1.0  0.24068764684993485  0.12268225755342137  0.5912517650212906  1.0000
