data_image0
_chemical_formula_structural       Ca4V4H32C8N4O36
_chemical_formula_sum              "Ca4 V4 H32 C8 N4 O36"
_cell_length_a       8.57348018501448
_cell_length_b       8.951932435431424
_cell_length_c       12.569363247720469
_cell_angle_alpha    106.91838877671942
_cell_angle_beta     90.00001702033543
_cell_angle_gamma    89.99980045668458

_space_group_name_H-M_alt    "P 1"
_space_group_IT_number       1

loop_
  _space_group_symop_operation_xyz
  'x, y, z'

loop_
  _atom_site_type_symbol
  _atom_site_label
  _atom_site_symmetry_multiplicity
  _atom_site_fract_x
  _atom_site_fract_y
  _atom_site_fract_z
  _atom_site_occupancy
  Ca  Ca1       1.0  0.7117701679408128  0.4118974231548052  0.7147693249998212  1.0000
  Ca  Ca2       1.0  0.21176873197064336  0.5881045207711961  0.7852303862153818  1.0000
  Ca  Ca3       1.0  0.28823327301127216  0.588106844201057  0.28523106492132644  1.0000
  Ca  Ca4       1.0  0.7882335426060292  0.4118927423004592  0.21476864678308516  1.0000
  V   V1        1.0  0.5288801289934284  0.7387933768447609  0.905805154981337  1.0000
  V   V2        1.0  0.0288843208344147  0.26120692642974314  0.5941950791638532  1.0000
  V   V3        1.0  0.4711244783506387  0.261208578927274  0.0941955828642733  1.0000
  V   V4        1.0  0.9711237856821737  0.7387891924305804  0.40580452791071747  1.0000
  H   H1        1.0  0.813098636546556  0.015226078422230695  0.9540762476554504  1.0000
  H   H2        1.0  0.31310242183404563  0.9847836654334544  0.5459249496730436  1.0000
  H   H3        1.0  0.1869024716429948  0.9847724679347749  0.04592701266128781  1.0000
  H   H4        1.0  0.68690101911082  0.015226577910283399  0.4540813724140803  1.0000
  H   H5        1.0  0.8461906440651177  0.9950030509755196  0.8114297697223875  1.0000
  H   H6        1.0  0.34619823860768406  0.004998028919324299  0.6885570091370994  1.0000
  H   H7        1.0  0.15380813133014468  0.005003412068425899  0.18856627111212276  1.0000
  H   H8        1.0  0.6538028695726152  0.9950025972150554  0.3114379009269328  1.0000
  H   H9        1.0  0.5617689035996349  0.02453437884053499  0.8931742811287576  1.0000
  H   H10       1.0  0.06177513489946309  0.9754610183498611  0.6068210157648294  1.0000
  H   H11       1.0  0.4382345373680749  0.975460526286433  0.10682349932864096  1.0000
  H   H12       1.0  0.9382318052241914  0.024537365733429798  0.39317664291974097  1.0000
  H   H13       1.0  0.5955014580917606  0.9025270703512405  0.7690288757995133  1.0000
  H   H14       1.0  0.09550759899766349  0.09746603059079459  0.7309715381370339  1.0000
  H   H15       1.0  0.4044949845458277  0.09747264339537759  0.23097461067333566  1.0000
  H   H16       1.0  0.904493509190459  0.9025324462249174  0.2690293214814048  1.0000
  H   H17       1.0  0.5874363637130458  0.5730303892893146  0.5612139240034537  1.0000
  H   H18       1.0  0.08743572249233007  0.42696965281695753  0.9387846536459958  1.0000
  H   H19       1.0  0.4125600789211035  0.4269704222970744  0.43878738792496097  1.0000
  H   H20       1.0  0.9125653856982794  0.5730276797981232  0.06121678005133902  1.0000
  H   H21       1.0  0.769333299838351  0.5800065950676725  0.5410548849425252  1.0000
  H   H22       1.0  0.2693292113307635  0.41999859347251334  0.9589438491878042  1.0000
  H   H23       1.0  0.23066081001432076  0.41999769548573335  0.45894630521585356  1.0000
  H   H24       1.0  0.7306695640749298  0.580003315949362  0.04105528819506077  1.0000
  H   H25       1.0  0.7721822890087253  0.3507361462130091  0.9226959027325563  1.0000
  H   H26       1.0  0.27218269059089545  0.6492632413228633  0.5773032983655924  1.0000
  H   H27       1.0  0.2278176527889499  0.6492634516250391  0.07730358257477123  1.0000
  H   H28       1.0  0.7278149184287271  0.3507387376424375  0.4226982397161335  1.0000
  H   H29       1.0  0.6040931061807412  0.29330566633056776  0.8885969833554127  1.0000
  H   H30       1.0  0.10409100662371878  0.7066979327176808  0.6114062579813435  1.0000
  H   H31       1.0  0.3959091683973526  0.7066916662823814  0.11140445034136089  1.0000
  H   H32       1.0  0.8959007704584747  0.2933040462583206  0.38859528010317484  1.0000
  C   C1        1.0  0.8658761906966674  0.7811796799984378  0.8570477411399364  1.0000
  C   C2        1.0  0.36586310660764804  0.21881691317751967  0.6429469168372818  1.0000
  C   C3        1.0  0.1341097544613561  0.2188128208572166  0.1429471863197733  1.0000
  C   C4        1.0  0.6341111746706645  0.781181679589558  0.35705794395782675  1.0000
  C   C5        1.0  0.7914265583563065  0.9398213178145838  0.8693555983425441  1.0000
  C   C6        1.0  0.2914362066139589  0.06017316731858809  0.6306370780914533  1.0000
  C   C7        1.0  0.20857105067101855  0.060174708343275485  0.13064080780598178  1.0000
  C   C8        1.0  0.708568400734137  0.9398264536913318  0.3693632074464119  1.0000
  N   N1        1.0  0.621314792654772  0.9242953011821554  0.8515549568293534  1.0000
  N   N2        1.0  0.1213174081576156  0.0757091934360759  0.6484412920846481  1.0000
  N   N3        1.0  0.3786898146908371  0.07570546402838828  0.1484447546296153  1.0000
  N   N4        1.0  0.8786837000149958  0.9242973855057455  0.35155874991259134  1.0000
  O   O1        1.0  0.35075281732797237  0.8065934143922957  0.9235273652095087  1.0000
  O   O2        1.0  0.8507455516277957  0.19340339651678562  0.5764729088658881  1.0000
  O   O3        1.0  0.649254122795682  0.19340496969099513  0.0764702934750616  1.0000
  O   O4        1.0  0.149253223784882  0.8065950571227771  0.42352715052089707  1.0000
  O   O5        1.0  0.49440066903811436  0.6186200717567443  0.7484481045116949  1.0000
  O   O6        1.0  0.9944022654833518  0.3813821417843428  0.7515563638031181  1.0000
  O   O7        1.0  0.50559693997441  0.38138662309364674  0.2515559386510588  1.0000
  O   O8        1.0  0.005598842701218101  0.6186186929739106  0.24844574835582722  1.0000
  O   O9        1.0  0.48277667271631924  0.5268118490964254  0.8281375457662961  1.0000
  O   O10       1.0  0.9827766600434841  0.47319033754948936  0.6718645329739984  1.0000
  O   O11       1.0  0.5172232690756786  0.4731925341680068  0.17186684532036617  1.0000
  O   O12       1.0  0.0172232817531324  0.5268104740304763  0.3281367789527393  1.0000
  O   O13       1.0  0.5727475029202864  0.6838676522277464  0.038368335836842966  1.0000
  O   O14       1.0  0.07274613491743757  0.3161292226530534  0.4616309036052897  1.0000
  O   O15       1.0  0.4272489397164634  0.3161307550552336  0.9616301230855199  1.0000
  O   O16       1.0  0.9272514741062138  0.6838704215501323  0.5383701821686913  1.0000
  O   O17       1.0  0.6237288458807272  0.8415635279605309  0.04460367028715238  1.0000
  O   O18       1.0  0.12373388514817657  0.15843416499915713  0.45539014489230567  1.0000
  O   O19       1.0  0.37626759675460153  0.15843480978115557  0.9553923879369037  1.0000
  O   O20       1.0  0.876267223034027  0.8415665538569499  0.5446079661028023  1.0000
  O   O21       1.0  0.7706093666781157  0.6670936335083579  0.8503206752652871  1.0000
  O   O22       1.0  0.27061336505458655  0.33289410916110274  0.649677066030314  1.0000
  O   O23       1.0  0.2293917415167499  0.33289884413905196  0.14967345195440626  1.0000
  O   O24       1.0  0.7293924086973433  0.6670987161842065  0.3503290646786752  1.0000
  O   O25       1.0  0.011442554423354097  0.7712179900490951  0.8556105568760728  1.0000
  O   O26       1.0  0.5114632389802551  0.22878924236946568  0.6443862494738894  1.0000
  O   O27       1.0  0.9885620529223617  0.22878151505867086  0.1443857274979479  1.0000
  O   O28       1.0  0.4885635297200039  0.7712162155050918  0.35561516682273714  1.0000
  O   O29       1.0  0.681307339110532  0.509148395664418  0.5493856808467966  1.0000
  O   O30       1.0  0.1813088096319362  0.4908513484288476  0.9506144074419466  1.0000
  O   O31       1.0  0.3186891035201853  0.49085351376172776  0.45061345653718377  1.0000
  O   O32       1.0  0.8186934649452126  0.5091459378232345  0.049385425789289214  1.0000
  O   O33       1.0  0.7116841761194193  0.288594415614682  0.8582068014096434  1.0000
  O   O34       1.0  0.21168443121610636  0.7114086496438787  0.641791535575365  1.0000
  O   O35       1.0  0.28831576567127126  0.711408638005679  0.1417917618937636  1.0000
  O   O36       1.0  0.7883085122490738  0.2885956409116659  0.3582096545835682  1.0000
