data_image0
_chemical_formula_structural       Cd2H32C28S4N12
_chemical_formula_sum              "Cd2 H32 C28 S4 N12"
_cell_length_a       7.992929204187194
_cell_length_b       8.886470268770582
_cell_length_c       12.546985119259814
_cell_angle_alpha    90.00048276369662
_cell_angle_beta     89.99937316025414
_cell_angle_gamma    98.69247410282574

_space_group_name_H-M_alt    "P 1"
_space_group_IT_number       1

loop_
  _space_group_symop_operation_xyz
  'x, y, z'

loop_
  _atom_site_type_symbol
  _atom_site_label
  _atom_site_symmetry_multiplicity
  _atom_site_fract_x
  _atom_site_fract_y
  _atom_site_fract_z
  _atom_site_occupancy
  Cd  Cd1       1.0  0.9999946571910882  9.86002895302516e-07  0.49999948503736397  1.0000
  Cd  Cd2       1.0  0.5000037924793261  0.4999997879100064  0.9999993355236827  1.0000
  H   H1        1.0  0.9480574684822117  0.6510472078044673  0.6002894479495495  1.0000
  H   H2        1.0  0.5519415945762915  0.8489547791362072  0.10029162891843413  1.0000
  H   H3        1.0  0.05194175273360461  0.34895555875871054  0.3997104281272854  1.0000
  H   H4        1.0  0.44806202440892656  0.15104453940259083  0.8997074501285027  1.0000
  H   H5        1.0  0.7855054299461485  0.3921458782285257  0.5696571837049974  1.0000
  H   H6        1.0  0.7144965243680588  0.10785412406060153  0.069659975264706  1.0000
  H   H7        1.0  0.2145006883971803  0.6078534238398774  0.4303442863457789  1.0000
  H   H8        1.0  0.28550584491038933  0.8921452027309372  0.9303414947992652  1.0000
  H   H9        1.0  0.5861196621480219  0.3519097660742787  0.4141654272751722  1.0000
  H   H10       1.0  0.9138857619002253  0.1480867115864299  0.9141650618071467  1.0000
  H   H11       1.0  0.413885855205379  0.6480861209378191  0.5858360427675109  1.0000
  H   H12       1.0  0.0861195074086041  0.8519148754311274  0.0858372052576328  1.0000
  H   H13       1.0  0.7205479814700907  0.8282166242292989  0.3414867680028024  1.0000
  H   H14       1.0  0.7794474006248392  0.6717808847372595  0.8414834997815248  1.0000
  H   H15       1.0  0.2794416905892732  0.17178164662447407  0.6585154991066561  1.0000
  H   H16       1.0  0.22055556966817846  0.3282218570949952  0.15851478227368432  1.0000
  H   H17       1.0  0.4085872337534936  0.503720722179331  0.2823005607331197  1.0000
  H   H18       1.0  0.09141243971465228  0.9962742365864584  0.7822973582998786  1.0000
  H   H19       1.0  0.5914124835206493  0.4962706443924316  0.7177017063205681  1.0000
  H   H20       1.0  0.9085896815377054  0.0037307901988441004  0.217702517773553  1.0000
  H   H21       1.0  0.5126403529120792  0.6800380991690672  0.23534601694068163  1.0000
  H   H22       1.0  0.9873579197312734  0.8199583628347042  0.7353413816998258  1.0000
  H   H23       1.0  0.4873522668860914  0.3199555935570615  0.764657047149008  1.0000
  H   H24       1.0  0.012646700897676107  0.18004664746850813  0.2646584943648094  1.0000
  H   H25       1.0  0.6034115142552636  0.37440694071780467  0.19730616662717892  1.0000
  H   H26       1.0  0.896591614784441  0.12559087099097613  0.6973089758410254  1.0000
  H   H27       1.0  0.39659105537163697  0.6255935244141426  0.8026929124268491  1.0000
  H   H28       1.0  0.10340885610734322  0.8744118873389582  0.3026924942398352  1.0000
  H   H29       1.0  0.7363223023005289  0.5291561248222436  0.17055870227351022  1.0000
  H   H30       1.0  0.7636765234836885  0.9708442648406644  0.6705605184773733  1.0000
  H   H31       1.0  0.26367691889680595  0.47084664175263674  0.8294435648159608  1.0000
  H   H32       1.0  0.236321648343008  0.0291596483351668  0.32944334262762  1.0000
  C   C1        1.0  0.6696458182671068  0.10289971274268343  0.3661424966140459  1.0000
  C   C2        1.0  0.8303480994268637  0.39709067730463243  0.8661298567255502  1.0000
  C   C3        1.0  0.33032930598734117  0.8970940952995576  0.6338486124740116  1.0000
  C   C4        1.0  0.16966591783555884  0.602910851939818  0.1338548762157714  1.0000
  C   C5        1.0  0.8573078158118365  0.6305214964229935  0.5350676614276325  1.0000
  C   C6        1.0  0.6426908055080531  0.8694787221304027  0.035069329907131  1.0000
  C   C7        1.0  0.14269245474997652  0.3694801235548438  0.4649338086505281  1.0000
  C   C8        1.0  0.3573115637827157  0.13052060465334142  0.9649305461484163  1.0000
  C   C9        1.0  0.7678242477337778  0.48569604647657627  0.5168137545846392  1.0000
  C   C10       1.0  0.7321770734899645  0.014302308557667202  0.0168150667121552  1.0000
  C   C11       1.0  0.23217832187464182  0.5143044186670593  0.48318771548203193  1.0000
  C   C12       1.0  0.26782654548294  0.9856970099889256  0.9831856063432057  1.0000
  C   C13       1.0  0.6581589937327832  0.4638418869756507  0.4302442724371573  1.0000
  C   C14       1.0  0.8418413833215225  0.0361559193552878  0.9302445396561938  1.0000
  C   C15       1.0  0.3418417252035724  0.536155171348824  0.5697564006215999  1.0000
  C   C16       1.0  0.15816138662304263  0.9638456841365579  0.0697561334089585  1.0000
  C   C17       1.0  0.6414325050016175  0.5865476481093808  0.3632301921298193  1.0000
  C   C18       1.0  0.8585660896795559  0.9134489105757808  0.8632286105215103  1.0000
  C   C19       1.0  0.3585642645337117  0.413448296590019  0.6367712779436445  1.0000
  C   C20       1.0  0.1414366802650093  0.08655269291606521  0.1367720625436419  1.0000
  C   C21       1.0  0.7330127831900056  0.7280451406005285  0.38950752311097864  1.0000
  C   C22       1.0  0.7669843559144524  0.7719528218282007  0.889504940349106  1.0000
  C   C23       1.0  0.2669818876225278  0.2719530972890709  0.6104947439808869  1.0000
  C   C24       1.0  0.23301966373689  0.2280487734108975  0.11049334169901211  1.0000
  C   C25       1.0  0.5338646156575635  0.5678023014908007  0.2641477457829993  1.0000
  C   C26       1.0  0.966133011398213  0.9321933040244657  0.7641439293543186  1.0000
  C   C27       1.0  0.4661307038594914  0.43219251309754014  0.7358537242921628  1.0000
  C   C28       1.0  0.03386890953033371  0.0678105844048318  0.2358551497122008  1.0000
  S   S1        1.0  0.5330371498532286  0.10053836449547052  0.26975965407402924  1.0000
  S   S2        1.0  0.9669559587831812  0.3994522371709621  0.769748463314251  1.0000
  S   S3        1.0  0.4669504235141416  0.8994621995289975  0.730239425032771  1.0000
  S   S4        1.0  0.03304890994578358  0.6005470730916898  0.23024344269037303  1.0000
  N   N1        1.0  0.7701286309990036  0.10724058567208772  0.4362665736647387  1.0000
  N   N2        1.0  0.7298579541625047  0.39275053184790215  0.9362577990770545  1.0000
  N   N3        1.0  0.22986713684947804  0.8927496672902039  0.563739678420511  1.0000
  N   N4        1.0  0.27013961674202147  0.6072499662287214  0.0637372949734996  1.0000
  N   N5        1.0  0.8388117231931674  0.7503738139188059  0.47323888820123733  1.0000
  N   N6        1.0  0.6611853711638602  0.7496249596918788  0.9732385064836822  1.0000
  N   N7        1.0  0.16118189826720913  0.24962557056004198  0.5267625818935145  1.0000
  N   N8        1.0  0.3388194975034934  0.2503743506097678  0.026761369563068606  1.0000
  N   N9        1.0  0.6092901462031578  0.48742935401492105  0.17716299907027636  1.0000
  N   N10       1.0  0.8907095451858497  0.012568285280934798  0.6771635804434625  1.0000
  N   N11       1.0  0.39070972369869844  0.5125699892587008  0.8228384710024914  1.0000
  N   N12       1.0  0.10928842632318954  0.9874344895349838  0.32283868665039966  1.0000
