data_image0
_chemical_formula_structural       Cr12H24C72O48
_chemical_formula_sum              "Cr12 H24 C72 O48"
_cell_length_a       18.832638278901314
_cell_length_b       18.832667465127074
_cell_length_c       18.832670089319773
_cell_angle_alpha    59.99999455773757
_cell_angle_beta     60.00000127613517
_cell_angle_gamma    60.00001328966867

_space_group_name_H-M_alt    "P 1"
_space_group_IT_number       1

loop_
  _space_group_symop_operation_xyz
  'x, y, z'

loop_
  _atom_site_type_symbol
  _atom_site_label
  _atom_site_symmetry_multiplicity
  _atom_site_fract_x
  _atom_site_fract_y
  _atom_site_fract_z
  _atom_site_occupancy
  Cr  Cr1       1.0  0.4507411701687264  0.999999237189321  0.5492579625940623  1.0000
  Cr  Cr2       1.0  5.423473867535223e-07  0.5492649213514723  0.999998978058187  1.0000
  Cr  Cr3       1.0  0.5492501234720278  0.9999994520186989  0.45074890655944005  1.0000
  Cr  Cr4       1.0  3.4348263277155984e-07  0.45075089309736427  0.9999985941346239  1.0000
  Cr  Cr5       1.0  6.571475094965943e-07  0.999999865549249  0.5492477257074457  1.0000
  Cr  Cr6       1.0  0.4507377742699605  0.549262073895342  0.999999107214478  1.0000
  Cr  Cr7       1.0  0.45074831045106856  0.999999610495635  0.9999981066523985  1.0000
  Cr  Cr8       1.0  0.5492500013322116  0.45074952277784036  0.9999988788572836  1.0000
  Cr  Cr9       1.0  0.5492574540213442  0.9999999292520411  0.9999988009715256  1.0000
  Cr  Cr10      1.0  9.4527612037806e-07  0.9999991780305351  0.45074068187044253  1.0000
  Cr  Cr11      1.0  8.777451299610946e-07  0.45073270670413723  0.5492653369742868  1.0000
  Cr  Cr12      1.0  1.0220135421896895e-06  0.5492403947995896  0.45075751879403464  1.0000
  H   H1        1.0  0.5050285830062152  0.7339570768476875  0.7339551016284176  1.0000
  H   H2        1.0  0.027059514374428842  0.733958488715011  0.7339536920682761  1.0000
  H   H3        1.0  0.7339572602541936  0.027058027098647085  0.5050253259285071  1.0000
  H   H4        1.0  0.7339589535456953  0.5050259523325522  0.027056426554374034  1.0000
  H   H5        1.0  0.9729425621674823  0.4949713762521313  0.26604403539888477  1.0000
  H   H6        1.0  0.2660421818030728  0.26604262840468357  0.9729398913960949  1.0000
  H   H7        1.0  0.2660423678769278  0.9729418729045561  0.4949710464512124  1.0000
  H   H8        1.0  0.26604481744345804  0.4949717186153319  0.9729399830171773  1.0000
  H   H9        1.0  0.2660446399033064  0.26604125748131213  0.4949715824608419  1.0000
  H   H10       1.0  0.4949725119495694  0.9729418675002108  0.26604181862344933  1.0000
  H   H11       1.0  0.5050282923501188  0.7339574057576285  0.027056057106086894  1.0000
  H   H12       1.0  0.5050273701532363  0.027058286472062158  0.7339566471360257  1.0000
  H   H13       1.0  0.49497464934358976  0.26604217942969655  0.2660409115826282  1.0000
  H   H14       1.0  0.4949736688831693  0.26604164139043707  0.9729401356892282  1.0000
  H   H15       1.0  0.027059039514789347  0.7339550285521097  0.5050251922525321  1.0000
  H   H16       1.0  0.7339577858556721  0.505026289046576  0.7339569141273331  1.0000
  H   H17       1.0  0.7339585058235942  0.027058010034025408  0.7339552316022945  1.0000
  H   H18       1.0  0.02705930151784523  0.505026511359766  0.7339579667906121  1.0000
  H   H19       1.0  0.7339572295506611  0.7339570548219995  0.02705626420720353  1.0000
  H   H20       1.0  0.7339590412943053  0.7339563236745761  0.5050256570241701  1.0000
  H   H21       1.0  0.26604285166385455  0.4949724963727178  0.2660421647690683  1.0000
  H   H22       1.0  0.2660440685475506  0.9729416502510588  0.26603973491893385  1.0000
  H   H23       1.0  0.9729431318876468  0.2660399808308539  0.49497092615811783  1.0000
  H   H24       1.0  0.9729430075093859  0.2660432430520743  0.266038605128479  1.0000
  C   C1        1.0  0.570646375056171  0.8350811620927415  0.5706490072020999  1.0000
  C   C2        1.0  0.02362205098571479  0.5706573981300238  0.8350810704938852  1.0000
  C   C3        1.0  0.5706453727270574  0.023620757308876267  0.570650575903251  1.0000
  C   C4        1.0  0.8350824171987482  0.5706597438350229  0.02361928197549912  1.0000
  C   C5        1.0  0.9763801677126979  0.4293620841654045  0.1649171912438306  1.0000
  C   C6        1.0  0.16491945008991143  0.42936044903662207  0.9763773199353594  1.0000
  C   C7        1.0  0.16491923368302944  0.9763788106348271  0.4293462469042311  1.0000
  C   C8        1.0  0.42934734655687407  0.4293579037981345  0.9763764667703826  1.0000
  C   C9        1.0  0.4293497757321988  0.1649173845393718  0.4293541468774507  1.0000
  C   C10       1.0  0.4293502470684912  0.9763783203154754  0.4293525781763563  1.0000
  C   C11       1.0  0.5706417657640515  0.5706559060461132  0.02361976321876824  1.0000
  C   C12       1.0  0.5706540385467492  0.02362175745672344  0.8350807150256474  1.0000
  C   C13       1.0  0.4293456070459103  0.4293589994672543  0.16491673870623202  1.0000
  C   C14       1.0  0.429358739009004  0.16491737248095015  0.9763761677742695  1.0000
  C   C15       1.0  0.023622768395959826  0.8350815974874592  0.5706438355287345  1.0000
  C   C16       1.0  0.5706421520134624  0.5706534571184038  0.8350808971412178  1.0000
  C   C17       1.0  0.835082735306685  0.023621306257410886  0.5706449664103702  1.0000
  C   C18       1.0  0.023621299427787863  0.5706356386599863  0.5706592241276098  1.0000
  C   C19       1.0  0.5706533013648992  0.8350832579097086  0.02361941826033846  1.0000
  C   C20       1.0  0.8350835474306637  0.5706349070058533  0.570659003084387  1.0000
  C   C21       1.0  0.16491827408903972  0.4293395747883152  0.4293625451047731  1.0000
  C   C22       1.0  0.4293589663747498  0.9763787754947444  0.1649153045617312  1.0000
  C   C23       1.0  0.976380432300367  0.4293387533421934  0.42936315397501096  1.0000
  C   C24       1.0  0.9763796494415473  0.16491684428328313  0.42934860405983233  1.0000
  C   C25       1.0  0.6142261820967294  0.7429722370675549  0.6142311008476967  1.0000
  C   C26       1.0  0.02857038455561425  0.6142290718661343  0.7429707526940774  1.0000
  C   C27       1.0  0.6142251206070528  0.028570685239898818  0.6142291459600884  1.0000
  C   C28       1.0  0.7429733525746729  0.6142204034612889  0.028568811741088607  1.0000
  C   C29       1.0  0.9714305004372649  0.38576783706204026  0.25702475257971713  1.0000
  C   C30       1.0  0.2570270254032038  0.3857685645684158  0.9714279878139465  1.0000
  C   C31       1.0  0.2570257994799265  0.9714294029667626  0.3857697603228303  1.0000
  C   C32       1.0  0.38576815055078156  0.38577141332319087  0.9714286991808052  1.0000
  C   C33       1.0  0.3857719799318531  0.25702725881544813  0.38577169406337225  1.0000
  C   C34       1.0  0.3857647862915383  0.9714290514046767  0.3857751600095655  1.0000
  C   C35       1.0  0.6142296984105399  0.614225645531114  0.028569041864940976  1.0000
  C   C36       1.0  0.6142264683379469  0.028570858147460944  0.7429702131011949  1.0000
  C   C37       1.0  0.38577025115348124  0.38577201609253114  0.2570280337697072  1.0000
  C   C38       1.0  0.38576569055270943  0.2570268280555581  0.9714272851582278  1.0000
  C   C39       1.0  0.028571587762506522  0.7429703892207442  0.6142249990202799  1.0000
  C   C40       1.0  0.6142238425155852  0.6142319073123231  0.7429731013149307  1.0000
  C   C41       1.0  0.7429708080225697  0.02857066236948221  0.614224264708689  1.0000
  C   C42       1.0  0.02857192385925361  0.6142243520993771  0.6142306950502033  1.0000
  C   C43       1.0  0.614227560094541  0.7429698804339465  0.028568901260634064  1.0000
  C   C44       1.0  0.7429692517224709  0.6142274711311585  0.6142329251241422  1.0000
  C   C45       1.0  0.25702866387103995  0.3857685923640588  0.38577354860900925  1.0000
  C   C46       1.0  0.3857669235499016  0.9714291775309291  0.2570277075291969  1.0000
  C   C47       1.0  0.9714302627263013  0.3857664245275957  0.385771591922861  1.0000
  C   C48       1.0  0.9714298064318357  0.2570259669295611  0.38576404652995694  1.0000
  C   C49       1.0  0.5712332537599777  0.7000887510352455  0.7000866495570646  1.0000
  C   C50       1.0  0.028591407898680542  0.7000934380113648  0.7000864989683605  1.0000
  C   C51       1.0  0.7000919003464858  0.028587559331711462  0.5712290034802621  1.0000
  C   C52       1.0  0.7000919654936625  0.5712350749056725  0.02858670353163724  1.0000
  C   C53       1.0  0.9714129368552091  0.42877224601942016  0.2999113947782632  1.0000
  C   C54       1.0  0.2999130526265573  0.2999123336001545  0.9714088105642774  1.0000
  C   C55       1.0  0.29991415125749654  0.9714113302430221  0.4287645571824187  1.0000
  C   C56       1.0  0.29991415181415004  0.4287702522703042  0.9714101087776825  1.0000
  C   C57       1.0  0.29991349126932215  0.29990793792388354  0.4287689219905104  1.0000
  C   C58       1.0  0.4287776455310349  0.9714102846585673  0.29990485645326  1.0000
  C   C59       1.0  0.571231905509876  0.7000954252124459  0.028586935456417085  1.0000
  C   C60       1.0  0.5712327799631255  0.028589792841714274  0.7000896456993146  1.0000
  C   C61       1.0  0.4287730222679116  0.29990930097874  0.2999075242425988  1.0000
  C   C62       1.0  0.42877549056095904  0.2999090567555881  0.9714100936291957  1.0000
  C   C63       1.0  0.02859102986950987  0.7000878630047396  0.5712282525060957  1.0000
  C   C64       1.0  0.700091189662551  0.5712284006159649  0.7000917934738169  1.0000
  C   C65       1.0  0.7000940957780345  0.028590703800887185  0.7000878630793252  1.0000
  C   C66       1.0  0.028591296088322577  0.5712301348087648  0.7000921992307029  1.0000
  C   C67       1.0  0.7000924362503725  0.7000944891133398  0.028588435298004863  1.0000
  C   C68       1.0  0.7000949382776513  0.7000890816509722  0.5712267320516773  1.0000
  C   C69       1.0  0.2999089988992766  0.42876993584337697  0.29991143498990175  1.0000
  C   C70       1.0  0.2999165837977172  0.9714117517499049  0.2999033566117362  1.0000
  C   C71       1.0  0.9714103630667454  0.29990955386156765  0.42877143952722474  1.0000
  C   C72       1.0  0.9714112694804914  0.29991482114895973  0.2999082199615729  1.0000
  O   O1        1.0  0.4929962640696247  0.8752243320777208  0.6117196742800672  1.0000
  O   O2        1.0  0.020059885097623343  0.6117271850286272  0.8752235092992819  1.0000
  O   O3        1.0  0.6117091579438709  0.020056754303460957  0.49300336477825385  1.0000
  O   O4        1.0  0.8752311409269923  0.49300889805883924  0.020054396714677195  1.0000
  O   O5        1.0  0.9799424598488359  0.5070104873512661  0.12477420330113624  1.0000
  O   O6        1.0  0.12477088374300412  0.3882965743086614  0.9799409521147381  1.0000
  O   O7        1.0  0.12477298725890047  0.9799427959188096  0.5069942040286152  1.0000
  O   O8        1.0  0.3882751171672965  0.5070091723469049  0.9799396645421083  1.0000
  O   O9        1.0  0.3882798709021601  0.12477358849024248  0.507003986582987  1.0000
  O   O10       1.0  0.506995963714793  0.9799419933054025  0.38829010220880633  1.0000
  O   O11       1.0  0.49299312382198934  0.6117245097608901  0.020056145850567544  1.0000
  O   O12       1.0  0.4930040681026427  0.02005701743598805  0.8752263438099845  1.0000
  O   O13       1.0  0.5069929004693138  0.3882943954660761  0.12476902241163403  1.0000
  O   O14       1.0  0.5070034446699269  0.12477300599975656  0.9799410019953855  1.0000
  O   O15       1.0  0.02005775336455459  0.8752268368881173  0.492993969747225  1.0000
  O   O16       1.0  0.611704990725876  0.4930076273789227  0.875228382704229  1.0000
  O   O17       1.0  0.8752284308690934  0.02005772805051018  0.6117097005313428  1.0000
  O   O18       1.0  0.020059260290480697  0.4929843017073522  0.611731613155257  1.0000
  O   O19       1.0  0.611719438606265  0.875227469381585  0.020056578694223486  1.0000
  O   O20       1.0  0.875232755543145  0.6116984264452086  0.49301143645099915  1.0000
  O   O21       1.0  0.12476865248125057  0.5069863758506585  0.38830087215362147  1.0000
  O   O22       1.0  0.38828910630939373  0.9799421168275441  0.12476976812575222  1.0000
  O   O23       1.0  0.979942026178513  0.38826616722653284  0.507015766510122  1.0000
  O   O24       1.0  0.979942733455289  0.1247719018905188  0.3882784517670076  1.0000
  O   O25       1.0  0.506997045453389  0.12477031130852373  0.388290224306914  1.0000
  O   O26       1.0  0.9799441205270085  0.3882962081598719  0.124768404291686  1.0000
  O   O27       1.0  0.3882778475555141  0.9799422049145007  0.5070046200138023  1.0000
  O   O28       1.0  0.12477600570386468  0.5070102022395346  0.979940619753293  1.0000
  O   O29       1.0  0.02005658042923394  0.4930090024788568  0.8752298306388013  1.0000
  O   O30       1.0  0.8752258158962862  0.6117269467953221  0.02005748920775119  1.0000
  O   O31       1.0  0.875227636225688  0.020057037459018552  0.4929934356635713  1.0000
  O   O32       1.0  0.6117067342289105  0.4930079964309826  0.020054614459908766  1.0000
  O   O33       1.0  0.6117091305444048  0.8752284286531448  0.493002846319456  1.0000
  O   O34       1.0  0.49299524373819287  0.02005691991686119  0.6117208802606413  1.0000
  O   O35       1.0  0.506994409775217  0.3882940932644134  0.9799407716604164  1.0000
  O   O36       1.0  0.5070048169003769  0.9799425815589939  0.12477082766725538  1.0000
  O   O37       1.0  0.4929912610895217  0.6117250834684781  0.8752238879242853  1.0000
  O   O38       1.0  0.49300274817466033  0.8752292107638624  0.020054292878818058  1.0000
  O   O39       1.0  0.9799444630985052  0.12477140351300851  0.5069936699447695  1.0000
  O   O40       1.0  0.3882749982073365  0.5070087409182519  0.124773761879645  1.0000
  O   O41       1.0  0.1247738151417582  0.9799416038804265  0.388279419403439  1.0000
  O   O42       1.0  0.9799448864650627  0.5069861334060449  0.38830011077150334  1.0000
  O   O43       1.0  0.38828922961936746  0.12477191283687714  0.9799403760065957  1.0000
  O   O44       1.0  0.12477711290404885  0.38826711051324747  0.5070142613044765  1.0000
  O   O45       1.0  0.8752251009182359  0.4929832237889044  0.6117316753103311  1.0000
  O   O46       1.0  0.6117194272838804  0.02005819274365455  0.8752257435246237  1.0000
  O   O47       1.0  0.020056745983232902  0.6116978313290674  0.4930128109701001  1.0000
  O   O48       1.0  0.02005916879232905  0.8752270862793665  0.6117094047014716  1.0000
