data_image0
_chemical_formula_structural       Dy4H16C20S2N8O28
_chemical_formula_sum              "Dy4 H16 C20 S2 N8 O28"
_cell_length_a       6.6301774469832235
_cell_length_b       11.032650162724849
_cell_length_c       13.060414552616537
_cell_angle_alpha    106.41373598161506
_cell_angle_beta     89.9736521261983
_cell_angle_gamma    107.4795437079832

_space_group_name_H-M_alt    "P 1"
_space_group_IT_number       1

loop_
  _space_group_symop_operation_xyz
  'x, y, z'

loop_
  _atom_site_type_symbol
  _atom_site_label
  _atom_site_symmetry_multiplicity
  _atom_site_fract_x
  _atom_site_fract_y
  _atom_site_fract_z
  _atom_site_occupancy
  Dy  Dy1       1.0  0.779263461854711  0.705099113399271  0.7145455094045732  1.0000
  Dy  Dy2       1.0  0.07457420254180383  0.29496593998830883  0.7854589882113177  1.0000
  Dy  Dy3       1.0  0.2207375526113182  0.2949032983388165  0.28545499090744647  1.0000
  Dy  Dy4       1.0  0.9254253199857061  0.7050334859557169  0.21454003662396567  1.0000
  H   H1        1.0  0.36821290203948803  0.8863430150306186  0.8673742592242847  1.0000
  H   H2        1.0  0.4821141262927712  0.11355422296248456  0.632604522499925  1.0000
  H   H3        1.0  0.6317906319643  0.11365840375793819  0.13262753603410002  1.0000
  H   H4        1.0  0.5178844013389109  0.886443210977255  0.3673924974362138  1.0000
  H   H5        1.0  0.2508767498011224  0.8473140348321525  0.04626274515265294  1.0000
  H   H6        1.0  0.4040407219701266  0.1525008044557694  0.45369347499516993  1.0000
  H   H7        1.0  0.7491298003779291  0.15268738258427558  0.9537382837577228  1.0000
  H   H8        1.0  0.5959603087463136  0.8474986213552853  0.5463055496340987  1.0000
  H   H9        1.0  0.4826364255740996  0.4330999059355775  0.6451752811002721  1.0000
  H   H10       1.0  0.04974951719573531  0.5670550963550695  0.8548334117538376  1.0000
  H   H11       1.0  0.5173615891696811  0.5668995223537934  0.354825275812992  1.0000
  H   H12       1.0  0.9502520109686045  0.4329453254581281  0.14516661532500316  1.0000
  H   H13       1.0  0.6217456510719687  0.4383221929978732  0.7408674105653362  1.0000
  H   H14       1.0  0.1839443208755184  0.5617073863374172  0.7591885819728149  1.0000
  H   H15       1.0  0.37825486635134803  0.5616792249504384  0.2591336191690844  1.0000
  H   H16       1.0  0.8160612185625097  0.43829502721412433  0.24081344959314785  1.0000
  C   C1        1.0  0.6345631062634637  0.7379297411806789  0.9666912812237103  1.0000
  C   C2        1.0  0.8969175470661384  0.26223885659749163  0.5333421743230674  1.0000
  C   C3        1.0  0.36543792465557345  0.26206968573656303  0.033308509341537715  1.0000
  C   C4        1.0  0.10308046747503127  0.7377605705856923  0.46665761665420313  1.0000
  C   C5        1.0  0.8007492604458546  0.6726409413071935  0.9565683490469542  1.0000
  C   C6        1.0  0.12831670358686856  0.32762836800687006  0.5434492202914784  1.0000
  C   C7        1.0  0.19924424415811606  0.32735549149838056  0.04342383937772352  1.0000
  C   C8        1.0  0.8716778154049719  0.6723670885749585  0.4565557523253433  1.0000
  C   C9        1.0  0.4391000832353739  0.8381033462678645  0.9125506111734015  1.0000
  C   C10       1.0  0.6013024973850847  0.1618677039816134  0.5874451823394509  1.0000
  C   C11       1.0  0.5609024558726006  0.1618960805164065  0.08744917918583892  1.0000
  C   C12       1.0  0.3987000411150772  0.8381317194840887  0.41255231021184363  1.0000
  C   C13       1.0  0.4279699572894484  0.6965171877802161  0.13221053906789854  1.0000
  C   C14       1.0  0.7318895039904875  0.30328398799403533  0.3676924679400245  1.0000
  C   C15       1.0  0.5720285542944268  0.30348323319273623  0.8677887224869779  1.0000
  C   C16       1.0  0.26810750001226313  0.6967164364304494  0.6323090916288198  1.0000
  C   C17       1.0  0.4877234334101459  0.7524877789284331  0.0419032470721632  1.0000
  C   C18       1.0  0.735651712917374  0.2474342095737398  0.45805942667384175  1.0000
  C   C19       1.0  0.5122816087825725  0.24751363972715268  0.958098547980214  1.0000
  C   C20       1.0  0.26434930134605134  0.7525682010581535  0.5419403077021983  1.0000
  S   S1        1.0  0.9768623509347946  4.553590606799831e-06  0.7499352477595311  1.0000
  S   S2        1.0  0.023134652662754537  0.9999958686215036  0.2500647799373397  1.0000
  N   N1        1.0  0.599829955364754  0.789711499408007  0.8860662300405269  1.0000
  N   N2        1.0  0.8103497949516977  0.21042799431158  0.6139735653856138  1.0000
  N   N3        1.0  0.4001750868279643  0.21028991924757887  0.11393556501185033  1.0000
  N   N4        1.0  0.18964722509886653  0.7895694430796923  0.3860257525644928  1.0000
  N   N5        1.0  0.3680101784825354  0.8169172274443497  0.005260485428586019  1.0000
  N   N6        1.0  0.5514965912852005  0.18293499967513327  0.4946908752545341  1.0000
  N   N7        1.0  0.6319898418980825  0.1830831967141933  0.9947410737282356  1.0000
  N   N8        1.0  0.44849840647290024  0.817064425561618  0.5053073842627925  1.0000
  O   O1        1.0  0.8803630790191049  0.6552982354584955  0.8657641944281738  1.0000
  O   O2        1.0  0.2251027896348318  0.34493565794921466  0.6342490579184031  1.0000
  O   O3        1.0  0.11963443868196316  0.34470019904110677  0.13423689190748433  1.0000
  O   O4        1.0  0.7748927214163857  0.6550617751502801  0.36574719649377135  1.0000
  O   O5        1.0  0.058105937826667044  0.916662506568471  0.8003922287804317  1.0000
  O   O6        1.0  0.14188738795463957  0.08340447384154709  0.6996860342161284  1.0000
  O   O7        1.0  0.9418875365051064  0.08333991025921252  0.1996113363055799  1.0000
  O   O8        1.0  0.8581141408175128  0.9165959512902121  0.300316290670665  1.0000
  O   O9        1.0  0.7992656460223058  0.903511488096683  0.6689330219557379  1.0000
  O   O10       1.0  0.8952154261591119  0.0964672132168971  0.8307485382914381  1.0000
  O   O11       1.0  0.2007379036240806  0.0964869414462868  0.33106499981194304  1.0000
  O   O12       1.0  0.10478006864169492  0.9035332058096233  0.1692491918034876  1.0000
  O   O13       1.0  0.8615448108686578  0.636975607759446  0.03124238921121497  1.0000
  O   O14       1.0  0.22489874049499994  0.3633414787536111  0.4688116900978161  1.0000
  O   O15       1.0  0.138456751619934  0.3630188521553849  0.968761579925989  1.0000
  O   O16       1.0  0.7751052889306749  0.6366609249752173  0.531183448250289  1.0000
  O   O17       1.0  0.24089705222588978  0.6818315561923499  0.15911056968799642  1.0000
  O   O18       1.0  0.559338908174375  0.3177017707995233  0.34071596753873484  1.0000
  O   O19       1.0  0.7591014429049777  0.3181718496014412  0.8408894016136517  1.0000
  O   O20       1.0  0.44066109555062377  0.6823016370736781  0.6592855354288646  1.0000
  O   O21       1.0  0.561292775254671  0.6612327473176833  0.17746491456401264  1.0000
  O   O22       1.0  0.9005452628344626  0.3387378869401373  0.3224985976827385  1.0000
  O   O23       1.0  0.43870676433365213  0.3387636971240582  0.822535698332459  1.0000
  O   O24       1.0  0.09945725961789256  0.6612645235587851  0.677501136487287  1.0000
  O   O25       1.0  0.6302355574463617  0.47799967641708463  0.6814579407598702  1.0000
  O   O26       1.0  0.15264129600488005  0.5221702485068177  0.8186600945860648  1.0000
  O   O27       1.0  0.36976495997695474  0.522001741531227  0.3185430889745505  1.0000
  O   O28       1.0  0.8473622377963039  0.47783116917555185  0.18134093473633336  1.0000
