data_image0
_chemical_formula_structural       Zn4H20C48SN16O11
_chemical_formula_sum              "Zn4 H20 C48 S1 N16 O11"
_cell_length_a       15.846483410825167
_cell_length_b       15.574223451907777
_cell_length_c       17.61480590416559
_cell_angle_alpha    106.46902682195626
_cell_angle_beta     103.26154090079422
_cell_angle_gamma    113.67728308987986

_space_group_name_H-M_alt    "P 1"
_space_group_IT_number       1

loop_
  _space_group_symop_operation_xyz
  'x, y, z'

loop_
  _atom_site_type_symbol
  _atom_site_label
  _atom_site_symmetry_multiplicity
  _atom_site_fract_x
  _atom_site_fract_y
  _atom_site_fract_z
  _atom_site_occupancy
  Zn  Zn1       1.0  0.15457704816532924  0.15281402325344834  0.5077375220025431  1.0000
  Zn  Zn2       1.0  0.8673759979118645  0.860044311936001  0.49237721185395605  1.0000
  Zn  Zn3       1.0  0.02644930388600391  0.8970207065991145  0.39065709358822426  1.0000
  Zn  Zn4       1.0  0.005495426095635014  0.12164803924986957  0.6220624865742721  1.0000
  H   H1        1.0  0.9785689323102532  0.8063652602877622  0.634719313934724  1.0000
  H   H2        1.0  0.7394394968299737  0.8633134742663984  0.9537303045987144  1.0000
  H   H3        1.0  0.04107756284610532  0.3581062766670797  0.6926043719997635  1.0000
  H   H4        1.0  0.2341504851899714  0.4011469304405749  0.5517781974739719  1.0000
  H   H5        1.0  0.8650280468413813  0.1885463485735245  0.5219217216108661  1.0000
  H   H6        1.0  0.8486065464175142  0.8764147426390565  0.23904237197195496  1.0000
  H   H7        1.0  0.3305982066958749  0.14525126211697884  0.6297793672438913  1.0000
  H   H8        1.0  0.2244222848210313  0.33399589172465477  0.40138555358288397  1.0000
  H   H9        1.0  0.8995053943399614  0.17904656650298284  0.8946232430804528  1.0000
  H   H10       1.0  0.040876476076796626  0.15926446241524414  0.9780186849757297  1.0000
  H   H11       1.0  0.011120692800041396  0.7572333055575056  0.18185131112808506  1.0000
  H   H12       1.0  0.1961472794141557  0.8683063386972165  0.32736563235876304  1.0000
  H   H13       1.0  0.6233015578863642  0.6770136703394555  0.445899791250106  1.0000
  H   H14       1.0  0.754360914377074  0.7784922070453533  0.6250881483640994  1.0000
  H   H15       1.0  0.37468397117469016  0.19802410323057978  0.48689467375361767  1.0000
  H   H16       1.0  0.15517956083399306  0.1291203854107223  0.7869655001859358  1.0000
  H   H17       1.0  0.17606466093616296  0.8405961782331772  0.4972819773035582  1.0000
  H   H18       1.0  0.5976561456150409  0.34907108827793826  0.9546055380450582  1.0000
  H   H19       1.0  0.4450459372330117  0.33064887347360644  0.040188100590860615  1.0000
  H   H20       1.0  0.6850394776184104  0.8574141826422234  0.3672237519421415  1.0000
  C   C1        1.0  0.022138957770387404  0.1223059909038824  0.3318211855412798  1.0000
  C   C2        1.0  0.3165850780394878  0.11747870206082216  0.45034497819882086  1.0000
  C   C3        1.0  0.18306850535989844  0.1273326688448009  0.7360155211678502  1.0000
  C   C4        1.0  0.7432147424525014  0.9362505178262733  0.4107831478963887  1.0000
  C   C5        1.0  0.12014998920050604  0.8397651943638563  0.5233947055187186  1.0000
  C   C6        1.0  0.2803048011776212  0.14996986507114934  0.7402471352156823  1.0000
  C   C7        1.0  0.09674781452616803  0.8029748339586645  0.5846765328912013  1.0000
  C   C8        1.0  0.32329983590904027  0.033350564011158164  0.40075468508469203  1.0000
  C   C9        1.0  0.8324502030204002  0.9376067200532743  0.733243739562397  1.0000
  C   C10       1.0  0.15607715723189128  0.5222420446246616  0.642134534467324  1.0000
  C   C11       1.0  0.1572737505878621  0.6019193657113033  0.6432161508471238  1.0000
  C   C12       1.0  0.73806652849661  0.02791606430882615  0.428977486565131  1.0000
  C   C13       1.0  0.14810599089754825  0.6813350477927428  0.6342972678967698  1.0000
  C   C14       1.0  0.13071859105345146  0.7453129296122752  0.6173932764433587  1.0000
  C   C15       1.0  0.6513913729160308  0.03516428228497409  0.403883065547653  1.0000
  C   C16       1.0  0.8399687060765119  0.6829323913838438  0.25194475027579705  1.0000
  C   C17       1.0  0.5723233322280379  0.036049673954686175  0.39211097263412836  1.0000
  C   C18       1.0  0.4860060789323342  0.03562041139706205  0.38772408609276  1.0000
  C   C19       1.0  0.4086528687316502  0.03389118170221653  0.3905994458760418  1.0000
  C   C20       1.0  0.6671444801171305  0.5230082204758232  0.17057361597980492  1.0000
  C   C21       1.0  0.5180167246027311  0.36084116540313  0.03538046065273899  1.0000
  C   C22       1.0  0.5240414584626764  0.3193296520502145  0.9582877965961315  1.0000
  C   C23       1.0  0.741778614413164  0.6137669903822456  0.24139475034787225  1.0000
  C   C24       1.0  0.440315848571416  0.2464273304558091  0.8824905784289568  1.0000
  C   C25       1.0  0.5993447689404194  0.4450292888476852  0.10761691016739412  1.0000
  C   C26       1.0  0.366211427593889  0.19408978739483732  0.8147027535893158  1.0000
  C   C27       1.0  0.8046199405521788  0.9261339046967758  0.8009578019908828  1.0000
  C   C28       1.0  0.08479238498956929  0.35129632151969753  0.6543613754613345  1.0000
  C   C29       1.0  0.7883825783012669  0.9302464020293896  0.9458388579849171  1.0000
  C   C30       1.0  0.8571012574082247  0.020885573699935437  0.01750447254138976  1.0000
  C   C31       1.0  0.8769529526914468  0.03203313098109833  0.10211827528958392  1.0000
  C   C32       1.0  0.7877315972853011  0.9215889058305534  0.8645505503287721  1.0000
  C   C33       1.0  0.9023081655403475  0.03922959981095193  0.17573918592417212  1.0000
  C   C34       1.0  0.14529747306270482  0.4250365123356872  0.6303153555978583  1.0000
  C   C35       1.0  0.7373636069663264  0.6613527917915859  0.3210738288078758  1.0000
  C   C36       1.0  0.18394130129527753  0.3731050958275546  0.582572097217394  1.0000
  C   C37       1.0  0.8351530391305959  0.10580103406833548  0.4899643818753532  1.0000
  C   C38       1.0  0.9086020592066363  0.9556516042996818  0.27832730994412436  1.0000
  C   C39       1.0  0.9379120096670661  0.040493643812546096  0.2566700337127372  1.0000
  C   C40       1.0  0.09106198714396642  0.22400359167557574  0.3393816793080616  1.0000
  C   C41       1.0  0.9208788460833335  0.10687003667548829  0.9978229814800629  1.0000
  C   C42       1.0  0.8885863128023176  0.6793345837650832  0.19103010892757052  1.0000
  C   C43       1.0  0.6551995022006383  0.6299140440883874  0.34976563884897155  1.0000
  C   C44       1.0  0.2733565966953436  0.1364410985333038  0.6557938903034709  1.0000
  C   C45       1.0  0.019063336620909904  0.8222997471537566  0.5938351171616388  1.0000
  C   C46       1.0  0.22540030489501106  0.9489442028154825  0.36836114979543305  1.0000
  C   C47       1.0  0.8996989403344744  0.029570340419034957  0.7309570819540809  1.0000
  C   C48       1.0  0.8045505629357521  0.8612896145097508  0.651663077163036  1.0000
  S   S1        1.0  0.97315894326303  0.15880757732188036  0.8067881330894053  1.0000
  N   N1        1.0  0.038833481759006395  0.0866526991108358  0.3919549067543926  1.0000
  N   N2        1.0  0.8875020471453967  0.7629753642676536  0.3312723034709534  1.0000
  N   N3        1.0  0.08706144563802103  0.26359496044965164  0.6226168845112382  1.0000
  N   N4        1.0  0.8257832021401229  0.7499602539937628  0.3726545125995813  1.0000
  N   N5        1.0  0.1482314381692902  0.27670302516756345  0.5777686076945372  1.0000
  N   N6        1.0  0.8913786761252214  0.06268709443907036  0.5076389993704566  1.0000
  N   N7        1.0  0.9705100451556489  0.9849501967988841  0.3589871681905023  1.0000
  N   N8        1.0  0.18077690568490826  0.11098049755813125  0.6070245838884532  1.0000
  N   N9        1.0  0.9974271760488308  0.8646502176448435  0.5407865844154002  1.0000
  N   N10       1.0  0.1665354340728769  0.9808691787598818  0.39652261150062873  1.0000
  N   N11       1.0  0.9097749802399447  0.008412404410080412  0.6552812386562223  1.0000
  N   N12       1.0  0.8514956405236094  0.9050721068776182  0.6068653135123868  1.0000
  N   N13       1.0  0.22327813855977752  0.08531373881086779  0.44753568057563337  1.0000
  N   N14       1.0  0.12541326222125093  0.1049871261194681  0.6565581411622502  1.0000
  N   N15       1.0  0.05948414677569501  0.875273238325235  0.4976407694637501  1.0000
  N   N16       1.0  0.834621379278552  0.9585257921347293  0.4589204956537714  1.0000
  O   O1        1.0  0.07299458085644522  0.2638916566945753  0.2922054714512825  1.0000
  O   O2        1.0  0.5718079857901088  0.5543786408827812  0.30943610104928604  1.0000
  O   O3        1.0  0.6831615671191642  0.7004050666279582  0.4327135707913001  1.0000
  O   O4        1.0  0.18377714396325473  0.26899932942391297  0.4041243104206557  1.0000
  O   O5        1.0  0.0479294692838508  0.16769060678068826  0.8788992051429076  1.0000
  O   O6        1.0  0.008572400642648892  0.21658300556947546  0.7582862516422041  1.0000
  O   O7        1.0  0.9006192948596168  0.18800762983196506  0.8376319195501479  1.0000
  O   O8        1.0  0.8864494727516072  0.15369866588424927  0.9668612129127324  1.0000
  O   O9        1.0  0.0114812607209558  0.11958888132652129  0.009813164552063795  1.0000
  O   O10       1.0  0.8517154089786914  0.6146805106042023  0.11719921605565276  1.0000
  O   O11       1.0  0.9853627106432656  0.7625609390072371  0.2274649451608894  1.0000
