data_image0
_chemical_formula_structural       Ba2H28C28N4O22
_chemical_formula_sum              "Ba2 H28 C28 N4 O22"
_cell_length_a       8.270502965462008
_cell_length_b       8.338046396187947
_cell_length_c       13.83643262098752
_cell_angle_alpha    80.60824493574647
_cell_angle_beta     85.52344947464125
_cell_angle_gamma    70.88248500264953

_space_group_name_H-M_alt    "P 1"
_space_group_IT_number       1

loop_
  _space_group_symop_operation_xyz
  'x, y, z'

loop_
  _atom_site_type_symbol
  _atom_site_label
  _atom_site_symmetry_multiplicity
  _atom_site_fract_x
  _atom_site_fract_y
  _atom_site_fract_z
  _atom_site_occupancy
  Ba  Ba1       1.0  0.6018799316980291  0.2271960731467502  0.9634709593115505  1.0000
  Ba  Ba2       1.0  0.39812021160577893  0.7728048882053072  0.03652912452707109  1.0000
  H   H1        1.0  0.9826799249668527  0.065210397299758  0.5986715268965312  1.0000
  H   H2        1.0  0.01731779166930641  0.9347905673622279  0.4013286640357522  1.0000
  H   H3        1.0  0.2167407057395536  0.0790066857367435  0.4731320952351866  1.0000
  H   H4        1.0  0.7832582300894938  0.9209942741339036  0.526867319463655  1.0000
  H   H5        1.0  0.005067390144788005  0.11226944648801408  0.7663515697811222  1.0000
  H   H6        1.0  0.9949327590180772  0.8877315117276652  0.23364779137089187  1.0000
  H   H7        1.0  0.8962471931706869  0.6139884681436885  0.6347818268340434  1.0000
  H   H8        1.0  0.10375335822920564  0.38601121011882356  0.365218365903644  1.0000
  H   H9        1.0  0.9696436828298615  0.6606996387243669  0.7955303665273591  1.0000
  H   H10       1.0  0.030357282525194797  0.3392987533122139  0.20446921242277946  1.0000
  H   H11       1.0  0.3969174901164437  0.610741397716012  0.5200790406438998  1.0000
  H   H12       1.0  0.603082256809401  0.38926084045283454  0.479919488922441  1.0000
  H   H13       1.0  0.4707100915830794  0.14262180551134657  0.5226344969221159  1.0000
  H   H14       1.0  0.529288447104321  0.8573765898351694  0.4773651891216772  1.0000
  H   H15       1.0  0.1123387763135213  0.5863720413731032  0.49549919470884873  1.0000
  H   H16       1.0  0.8876605676116114  0.41362763540799824  0.5045003288890585  1.0000
  H   H17       1.0  0.20412310257943028  0.3199301244886072  0.9972002103155618  1.0000
  H   H18       1.0  0.7958758332496102  0.6800708353820397  0.002799204383279609  1.0000
  H   H19       1.0  0.7852126050677698  0.43724003877871814  0.7851610184257611  1.0000
  H   H20       1.0  0.21478795219118754  0.5627596363474153  0.21483845162531173  1.0000
  H   H21       1.0  0.942946205237746  0.35866915193228266  0.8569088625288261  1.0000
  H   H22       1.0  0.05705556535503583  0.6413305215388833  0.1430905539754121  1.0000
  H   H23       1.0  0.2373472297372317  0.40997262312964017  0.08640201881993903  1.0000
  H   H24       1.0  0.7626529135665764  0.5900283382224174  0.9135980650186755  1.0000
  H   H25       1.0  0.7809314283200167  0.8763149787392804  0.8868785848332905  1.0000
  H   H26       1.0  0.21906912893894767  0.123684696386853  0.11312088521778213  1.0000
  H   H27       1.0  0.9537767083301747  0.9140960097524838  0.8793286481982819  1.0000
  H   H28       1.0  0.0462242511658104  0.08590238542048212  0.12067165343846403  1.0000
  C   C1        1.0  0.3810121934571881  0.15642165413250814  0.671446552846007  1.0000
  C   C2        1.0  0.6189867423718522  0.8435793057381391  0.3285528618528346  1.0000
  C   C3        1.0  0.09576206453664331  0.09163500605824741  0.6178992138309668  1.0000
  C   C4        1.0  0.9042352381443592  0.9083672448296625  0.3821015908888725  1.0000
  C   C5        1.0  0.2624283510832159  0.16725057309397326  0.8493350602099029  1.0000
  C   C6        1.0  0.7375693655529361  0.8327503915680194  0.1506651307223805  1.0000
  C   C7        1.0  0.22585605095875388  0.09868257426412438  0.5481521242263341  1.0000
  C   C8        1.0  0.7741404582026379  0.9013183889164509  0.45184739756616926  1.0000
  C   C9        1.0  0.10780557560093482  0.11964622503133168  0.7133665302746692  1.0000
  C   C10       1.0  0.8921921468942813  0.8803547364942758  0.28663293797099954  1.0000
  C   C11       1.0  0.2671790350152819  0.6708668467125135  0.8535815443074315  1.0000
  C   C12       1.0  0.7328219244807032  0.3291315484604525  0.14641875732931453  1.0000
  C   C13       1.0  0.22458064366380623  0.6589687403972846  0.7513576184707917  1.0000
  C   C14       1.0  0.7754203216912428  0.34102965163930327  0.2486419604793397  1.0000
  C   C15       1.0  0.022884496000280266  0.6219412628129676  0.6445147552796443  1.0000
  C   C16       1.0  0.9771144456878319  0.37805969392129424  0.3554839367325827  1.0000
  C   C17       1.0  0.06344733418436015  0.6492914990405794  0.735216857977342  1.0000
  C   C18       1.0  0.936555235787097  0.3507094590015498  0.26478311876761745  1.0000
  C   C19       1.0  0.25141351107501464  0.15145285669803604  0.7428501953137926  1.0000
  C   C20       1.0  0.7485866439469149  0.8485480983812649  0.25714844315159985  1.0000
  C   C21       1.0  0.34188404560175195  0.6436758857518897  0.6717683593853536  1.0000
  C   C22       1.0  0.6581177191319656  0.3563237908556546  0.328231779805499  1.0000
  C   C23       1.0  0.3034828632180718  0.6175862585574947  0.5803138921528728  1.0000
  C   C24       1.0  0.6965160667519114  0.3824147044495305  0.41968624523257614  1.0000
  C   C25       1.0  0.3685220649261964  0.1323527839486758  0.5751355105057456  1.0000
  C   C26       1.0  0.6314768709028442  0.8676481759219714  0.4248639041930958  1.0000
  C   C27       1.0  0.14302783104209035  0.6059209208154998  0.566884591520527  1.0000
  C   C28       1.0  0.856971098927886  0.39408004219151843  0.4331155458649221  1.0000
  N   N1        1.0  0.5108782793817352  0.6580135162878308  0.6820921372035402  1.0000
  N   N2        1.0  0.489121858063001  0.3419874482006051  0.31790866932169604  1.0000
  N   N3        1.0  0.5340437517723444  0.19318573278593476  0.6933198451809943  1.0000
  N   N4        1.0  0.4659555980118526  0.8068139408587811  0.30667895573029813  1.0000
  O   O1        1.0  0.3985902670584379  0.558667935396457  0.892784024909105  1.0000
  O   O2        1.0  0.6014106924375467  0.4413304597765091  0.10721627672764099  1.0000
  O   O3        1.0  0.8140260208232349  0.407876353768664  0.8542196576391632  1.0000
  O   O4        1.0  0.18597453643572232  0.5921233213574696  0.1457798124119094  1.0000
  O   O5        1.0  0.5236186404342362  0.2781861344357709  0.7610236571225074  1.0000
  O   O6        1.0  0.4763819109656565  0.7218135438267411  0.23897653561517979  1.0000
  O   O7        1.0  0.1663023669411956  0.7911470615883829  0.8962351354602021  1.0000
  O   O8        1.0  0.8336969769839371  0.20885261519271128  0.1037643881377051  1.0000
  O   O9        1.0  0.27289547708878104  0.3030282757951782  0.0561632170526778  1.0000
  O   O10       1.0  0.7271038609772871  0.6969714041222944  0.9438370292318369  1.0000
  O   O11       1.0  0.38793090635387273  0.06205150880553839  0.8971572942611774  1.0000
  O   O12       1.0  0.6120700590011767  0.9379468832310495  0.10284228468896119  1.0000
  O   O13       1.0  0.14214088347394951  0.284055805250425  0.8845658914790067  1.0000
  O   O14       1.0  0.8578596737850078  0.7159438698757085  0.11543357857206621  1.0000
  O   O15       1.0  0.5249787217955912  0.7578468383789456  0.7355139451702046  1.0000
  O   O16       1.0  0.47502061627047715  0.24215284153852676  0.26448630111431026  1.0000
  O   O17       1.0  0.6335049705820452  0.5677937024374559  0.6353349733241132  1.0000
  O   O18       1.0  0.3664951668626911  0.43220726205098703  0.36466583320111573  1.0000
  O   O19       1.0  0.6651925407783567  0.14338703638362202  0.6417990203166114  1.0000
  O   O20       1.0  0.33480679728771173  0.8566126435338575  0.3582012259679034  1.0000
  O   O21       1.0  0.8286822211347837  0.9730259671612129  0.8731287533859844  1.0000
  O   O22       1.0  0.1713183361241732  0.026973707964920393  0.1268707166650884  1.0000
