data_image0
_chemical_formula_structural       Na2H40C24N8O19
_chemical_formula_sum              "Na2 H40 C24 N8 O19"
_cell_length_a       7.681914117633507
_cell_length_b       9.912083048712399
_cell_length_c       11.512717683499934
_cell_angle_alpha    96.5457938431511
_cell_angle_beta     93.17923443709707
_cell_angle_gamma    96.48731430909805

_space_group_name_H-M_alt    "P 1"
_space_group_IT_number       1

loop_
  _space_group_symop_operation_xyz
  'x, y, z'

loop_
  _atom_site_type_symbol
  _atom_site_label
  _atom_site_symmetry_multiplicity
  _atom_site_fract_x
  _atom_site_fract_y
  _atom_site_fract_z
  _atom_site_occupancy
  Na  Na1       1.0  0.8895929370940223  0.3247548874947341  0.4787104331021227  1.0000
  Na  Na2       1.0  0.707100898800185  0.2328095427177814  0.7395596447778914  1.0000
  H   H1        1.0  0.4525504682126212  0.3926107549157933  0.8909243832708429  1.0000
  H   H2        1.0  0.3570609230888451  0.26614883560338143  0.81305306248548  1.0000
  H   H3        1.0  0.5954485209203355  0.42111214383908185  0.6098386252184369  1.0000
  H   H4        1.0  0.7499070153691747  0.5063101812484804  0.690956232939584  1.0000
  H   H5        1.0  0.9797786501773513  0.406402505255606  0.9103198650225083  1.0000
  H   H6        1.0  0.9445823940064102  0.25896776556776757  0.959258596405235  1.0000
  H   H7        1.0  0.46878263158581746  0.20379906743876572  0.43350457611521165  1.0000
  H   H8        1.0  0.3528664344601323  0.08742799547238178  0.49600645366511037  1.0000
  H   H9        1.0  0.2379922669559917  0.2919561397516475  0.5615993459231136  1.0000
  H   H10       1.0  0.1376247619476416  0.2649910826295354  0.6702803586880749  1.0000
  H   H11       1.0  0.11608243988538189  0.3281020439127786  0.3208167519329451  1.0000
  H   H12       1.0  0.19644477523132764  0.20828734321927564  0.37429673649207024  1.0000
  H   H13       1.0  0.6187900513569886  0.30529427621254257  0.28544208728102666  1.0000
  H   H14       1.0  0.5821783834284416  0.147753172671969  0.2825492438129515  1.0000
  H   H15       1.0  0.9025289470761492  0.5569522908241282  0.24362255901603905  1.0000
  H   H16       1.0  0.5559861864015757  0.5870238678267938  0.26110065362998114  1.0000
  H   H17       1.0  0.5210885065869562  0.37328345813087777  0.11698769556411293  1.0000
  H   H18       1.0  0.524670421635264  0.698935881376009  0.08291143585041282  1.0000
  H   H19       1.0  0.3038327488277659  0.5389096734015482  0.05217341946718791  1.0000
  H   H20       1.0  0.709519487205796  0.4758533152808795  0.9528052281836993  1.0000
  H   H21       1.0  0.5626899353792325  0.654599712324014  0.8531337527888356  1.0000
  H   H22       1.0  0.7286589213902985  0.7803731948411893  0.9265838289970605  1.0000
  H   H23       1.0  0.9193409752603118  0.6157260441991781  0.8395567586430345  1.0000
  H   H24       1.0  0.6936269679094025  0.9342465331356209  0.6773890057263474  1.0000
  H   H25       1.0  0.6465634014616056  0.6997215300229485  0.6257999054766401  1.0000
  H   H26       1.0  0.9334404265766166  0.08931325412571309  0.3110780774014047  1.0000
  H   H27       1.0  0.9320231146343261  0.9079765705873086  0.14147872829698835  1.0000
  H   H28       1.0  0.38242019634305546  0.04905502877075211  0.7263449785703102  1.0000
  H   H29       1.0  0.026228898129360745  0.977243006476108  0.751154051566914  1.0000
  H   H30       1.0  0.061988021977093376  0.22265460631644624  0.8327932432510325  1.0000
  H   H31       1.0  0.07154519388833347  0.9011448065396126  0.9387960176986996  1.0000
  H   H32       1.0  0.8840667155137253  0.05329847669707279  0.9937359594322005  1.0000
  H   H33       1.0  0.3449290170416077  0.14945019976144636  0.012606028676572099  1.0000
  H   H34       1.0  0.2194447477927213  0.011220352346199997  0.1591914804124812  1.0000
  H   H35       1.0  0.29346628187749974  0.8607946513224792  0.08632234054081786  1.0000
  H   H36       1.0  0.5776021906830024  0.006881668496234302  0.1160554707233317  1.0000
  H   H37       1.0  0.18937693624521046  0.6762126831112453  0.2683418872011529  1.0000
  H   H38       1.0  0.30172924806094403  0.906383464360907  0.3203297553812591  1.0000
  H   H39       1.0  0.18763552264027078  0.5075752166022339  0.6553575007384895  1.0000
  H   H40       1.0  0.25006468730552467  0.6847807664374413  0.8366627075233242  1.0000
  C   C1        1.0  0.8187643846851034  0.6201858337892574  0.19780443767854194  1.0000
  C   C2        1.0  0.6286765942192502  0.5523305267602651  0.18599040922178742  1.0000
  C   C3        1.0  0.5580605595172657  0.5931477202939702  0.06937691277804701  1.0000
  C   C4        1.0  0.7121352166653382  0.5833551052680831  0.9908439368358659  1.0000
  C   C5        1.0  0.698999693089668  0.6716007463034044  0.891271173614115  1.0000
  C   C6        1.0  0.031650357948855366  0.6016822981596517  0.044303472419372276  1.0000
  C   C7        1.0  0.6951525760845385  0.7604006678928314  0.5587233529778501  1.0000
  C   C8        1.0  0.7868272301775435  0.790262710806239  0.38071387942631674  1.0000
  C   C9        1.0  0.8194154413323247  0.9341383838371512  0.41016802339861175  1.0000
  C   C10       1.0  0.7854280571989563  0.9959605939750273  0.5229672663726959  1.0000
  C   C11       1.0  0.887589390289463  0.885392699393904  0.2256108190607335  1.0000
  C   C12       1.0  0.8313536288566963  0.7606145507803461  0.2629740230232116  1.0000
  C   C13       1.0  0.31251796545512184  0.977812739004584  0.7794773029565578  1.0000
  C   C14       1.0  0.1375001774732993  0.0321201624268923  0.8079544403700254  1.0000
  C   C15       1.0  0.11972200556662221  0.010624956578737995  0.9377448123918486  1.0000
  C   C16       1.0  0.3095757070869992  0.0375298034047447  0.9923077544013523  1.0000
  C   C17       1.0  0.3228018750611668  0.9732252517387749  0.10638682211408931  1.0000
  C   C18       1.0  0.5920559984943309  0.006588514464972694  0.900196371365617  1.0000
  C   C19       1.0  0.2743803219237364  0.8449987291513636  0.39140316973700356  1.0000
  C   C20       1.0  0.2706613240581746  0.8152154215888245  0.5836989327602994  1.0000
  C   C21       1.0  0.22009359955036703  0.6730746487067236  0.5533265492702882  1.0000
  C   C22       1.0  0.17542456318917488  0.6153042472662164  0.43538596236637533  1.0000
  C   C23       1.0  0.25215526637546043  0.7121049861575128  0.7480397342163415  1.0000
  C   C24       1.0  0.28705827723687355  0.8396674412352071  0.7087881665523028  1.0000
  N   N1        1.0  0.8662670176067734  0.6201627890419346  0.0752514565158862  1.0000
  N   N2        1.0  0.7242612225157784  0.897715602590253  0.5930703358320103  1.0000
  N   N3        1.0  0.7231322315296466  0.7009796205298072  0.4552950060087468  1.0000
  N   N4        1.0  0.8798933839630224  0.9892708262221743  0.31387315601955385  1.0000
  N   N5        1.0  0.41041546727825556  0.9843686787188799  0.8952367266278645  1.0000
  N   N6        1.0  0.2171641916584548  0.710329136404134  0.3577273193045088  1.0000
  N   N7        1.0  0.2986593804077344  0.9031068842113611  0.5003007383899886  1.0000
  N   N8        1.0  0.2108466822385324  0.6129387201013188  0.6544519428661104  1.0000
  O   O1        1.0  0.4724998265205826  0.323224413239032  0.8261117904342897  1.0000
  O   O2        1.0  0.7208987628885309  0.4249764040900672  0.6296131655551136  1.0000
  O   O3        1.0  0.9229663454914744  0.3093475556612972  0.8915920051008046  1.0000
  O   O4        1.0  0.36440857245113273  0.18539181297886387  0.4803810717365735  1.0000
  O   O5        1.0  0.14836213190719152  0.32955118419779694  0.6108750323466481  1.0000
  O   O6        1.0  0.0985289878128697  0.22833817577657814  0.32119861107184283  1.0000
  O   O7        1.0  0.6252651791604649  0.23167598953604335  0.33714402942585053  1.0000
  O   O8        1.0  0.6228428641697265  0.40594930224389714  0.17299877587858253  1.0000
  O   O9        1.0  0.41107760556764117  0.5014908854195995  0.019577177097694708  1.0000
  O   O10       1.0  0.8096107054455713  0.6385805394661404  0.7980443241509934  1.0000
  O   O11       1.0  0.15898285767072906  0.6150840829634845  0.12294651457006013  1.0000
  O   O12       1.0  0.054718679439922396  0.5686293016378556  0.9346786167305725  1.0000
  O   O13       1.0  0.8034295665766322  0.12131038295388658  0.5623840195967277  1.0000
  O   O14       1.0  0.1553457532496125  0.1741247842226912  0.7923752888290707  1.0000
  O   O15       1.0  0.012006065164157994  0.0947929418455686  0.0011872707462359001  1.0000
  O   O16       1.0  0.6778788559340397  0.016311661700974905  0.000731318296651298  1.0000
  O   O17       1.0  0.6680350763630827  0.015703625024187293  0.8054038275408788  1.0000
  O   O18       1.0  0.4856303093955177  0.008303669153946194  0.17545061310628546  1.0000
  O   O19       1.0  0.1033227489211441  0.4965028092061273  0.3990109503378251  1.0000
