data_image0
_chemical_formula_structural       Cu3H12C18N4O12
_chemical_formula_sum              "Cu3 H12 C18 N4 O12"
_cell_length_a       6.553716311846868
_cell_length_b       8.081943313263146
_cell_length_c       10.524275581856726
_cell_angle_alpha    86.76605314554898
_cell_angle_beta     76.51199600195551
_cell_angle_gamma    69.78404167925329

_space_group_name_H-M_alt    "P 1"
_space_group_IT_number       1

loop_
  _space_group_symop_operation_xyz
  'x, y, z'

loop_
  _atom_site_type_symbol
  _atom_site_label
  _atom_site_symmetry_multiplicity
  _atom_site_fract_x
  _atom_site_fract_y
  _atom_site_fract_z
  _atom_site_occupancy
  Cu  Cu1       1.0  0.5000010097440254  0.999998752687759  1.5301386397787899e-06  1.0000
  Cu  Cu2       1.0  0.1095422823006729  0.26243934611859043  0.5063160505434678  1.0000
  Cu  Cu3       1.0  0.8904551853103443  0.7375589441110861  0.49368606210089877  1.0000
  H   H1        1.0  0.7487176752024068  0.19972586747645243  0.7095342018053828  1.0000
  H   H2        1.0  0.2512824946780654  0.8002697916019342  0.29046666785109915  1.0000
  H   H3        1.0  0.3646172180128033  0.21037513946838968  0.7085113368498238  1.0000
  H   H4        1.0  0.6353833758172275  0.7896231582093376  0.2914893606351255  1.0000
  H   H5        1.0  0.52618125440182  0.1950926508071902  0.301289754739443  1.0000
  H   H6        1.0  0.4738100418190426  0.8049162033519364  0.6987109376843817  1.0000
  H   H7        1.0  0.9081332356988697  0.19316882960873014  0.3021265309600096  1.0000
  H   H8        1.0  0.09185319400474162  0.8068439866194409  0.697873770637585  1.0000
  H   H9        1.0  0.14937309945943872  0.06347654403358399  0.9021006315728783  1.0000
  H   H10       1.0  0.8506319484140191  0.9365151467197066  0.09790157767271525  1.0000
  H   H11       1.0  0.22899643856771235  0.8567745189200835  0.9449261853929727  1.0000
  H   H12       1.0  0.7710122850221809  0.14321587279167147  0.05507268065406379  1.0000
  C   C1        1.0  0.10959409172188829  0.4832221695110732  0.24353966512094158  1.0000
  C   C2        1.0  0.8904059181834897  0.5167774534243676  0.7564601141144888  1.0000
  C   C3        1.0  0.2256037439070299  0.32091156176946345  0.16388652992824854  1.0000
  C   C4        1.0  0.7743946856752119  0.6790880668260114  0.8361125337425789  1.0000
  C   C5        1.0  0.2925902641051579  0.3712465279280223  0.02813840458738069  1.0000
  C   C6        1.0  0.7074118756207569  0.6287517828577975  0.9718601621735272  1.0000
  C   C7        1.0  0.2084227684339979  0.564697560286561  0.02167269520060699  1.0000
  C   C8        1.0  0.7915840778340737  0.43530075228726167  0.9783251719654869  1.0000
  C   C9        1.0  0.08582527851640978  0.6327879082866519  0.15572786150789136  1.0000
  C   C10       1.0  0.9141763117120905  0.36721170898874783  0.8442726332921494  1.0000
  C   C11       1.0  0.6974803878004392  0.20463955235616987  0.617941934163511  1.0000
  C   C12       1.0  0.30251825913563835  0.7953560811020423  0.38206296374276133  1.0000
  C   C13       1.0  0.4847310950972242  0.208693049824781  0.6173744337797159  1.0000
  C   C14       1.0  0.5152675518388535  0.7913025836334313  0.3826304641265637  1.0000
  C   C15       1.0  0.5734989771735856  0.20205537892699965  0.39262546307089236  1.0000
  C   C16       1.0  0.4264897423256712  0.7979521612944891  0.6073747164732308  1.0000
  C   C17       1.0  0.785409127135388  0.20007073058670238  0.39313612183077146  1.0000
  C   C18       1.0  0.21458327955605244  0.7999355043372062  0.6068616632776765  1.0000
  N   N1        1.0  0.8487060023575098  0.20667393142728224  0.5059658287856763  1.0000
  N   N2        1.0  0.15129483249549489  0.7933309812189363  0.49403170858092676  1.0000
  N   N3        1.0  0.4172886170572028  0.21181113201612328  0.5047263920918751  1.0000
  N   N4        1.0  0.5827002853686454  0.7881924318362222  0.4952767753990627  1.0000
  O   O1        1.0  0.04146945438139226  0.49286759265366703  0.3663806695641298  1.0000
  O   O2        1.0  0.9585278303030337  0.5071346739451528  0.6336184551334298  1.0000
  O   O3        1.0  0.26850754340917143  0.16548936563629013  0.20161085970676845  1.0000
  O   O4        1.0  0.7314913330741322  0.8345128890464507  0.7983899293182827  1.0000
  O   O5        1.0  0.4079404817073637  0.2617326511827756  0.9358694709665939  1.0000
  O   O6        1.0  0.5920663875121973  0.738265648878972  0.06413029372526317  1.0000
  O   O7        1.0  0.23904248869474298  0.6540378222122243  0.9222280728486394  1.0000
  O   O8        1.0  0.7609663847975056  0.34596311078882275  0.07777223523628864  1.0000
  O   O9        1.0  0.9806498039996896  0.7910505062136225  0.19195100115621228  1.0000
  O   O10       1.0  0.019357500645178  0.20895042619142862  0.808049540126987  1.0000
  O   O11       1.0  0.24093010777964724  0.9754433745979227  0.9559787505888693  1.0000
  O   O12       1.0  0.7590811695803481  0.024548343563552094  0.04401873081210536  1.0000
