data_image0
_chemical_formula_structural       Co2H24C16N4O16
_chemical_formula_sum              "Co2 H24 C16 N4 O16"
_cell_length_a       7.645127008080545
_cell_length_b       7.484501968542425
_cell_length_c       9.346258925872041
_cell_angle_alpha    89.09279052934532
_cell_angle_beta     93.29374443629688
_cell_angle_gamma    109.55268716283176

_space_group_name_H-M_alt    "P 1"
_space_group_IT_number       1

loop_
  _space_group_symop_operation_xyz
  'x, y, z'

loop_
  _atom_site_type_symbol
  _atom_site_label
  _atom_site_symmetry_multiplicity
  _atom_site_fract_x
  _atom_site_fract_y
  _atom_site_fract_z
  _atom_site_occupancy
  Co  Co1       1.0  1.5895721076739188e-06  0.5000006469434907  0.5000000191146796  1.0000
  Co  Co2       1.0  0.4999995248119333  0.5000008643669602  0.9999990717721446  1.0000
  H   H1        1.0  0.8638901562121009  0.3697675458365097  0.9051207148256639  1.0000
  H   H2        1.0  0.6450240989204445  0.637221946007912  0.4242941929282794  1.0000
  H   H3        1.0  0.1361088813231248  0.63023066163079  0.09487715312290851  1.0000
  H   H4        1.0  0.35497682782067125  0.36277768764821156  0.5757069216536692  1.0000
  H   H5        1.0  0.8491257643623767  0.25060062970505464  0.7406260139266153  1.0000
  H   H6        1.0  0.647944291224576  0.7535556775667659  0.2575183788001141  1.0000
  H   H7        1.0  0.15087547220848316  0.7494004121555163  0.2593708175540073  1.0000
  H   H8        1.0  0.35205667399898033  0.24644395850397416  0.7424838070622429  1.0000
  H   H9        1.0  0.843464801778403  0.17264142809433028  0.10604520524862693  1.0000
  H   H10       1.0  0.6607531847214644  0.8311743282412819  0.6239339175538703  1.0000
  H   H11       1.0  0.1565311904815658  0.8273553617605457  0.8939536704163731  1.0000
  H   H12       1.0  0.3392464320205449  0.1688253043327776  0.3760671662562345  1.0000
  H   H13       1.0  0.09070196352583788  0.2835857181143381  0.10889671249192652  1.0000
  H   H14       1.0  0.4155296748972077  0.7144991730475778  0.6069400465506122  1.0000
  H   H15       1.0  0.9092936462539997  0.7164139063842966  0.8911021364418519  1.0000
  H   H16       1.0  0.5844704440867261  0.28550187980400205  0.3930621105602157  1.0000
  H   H17       1.0  0.04001241137792282  0.8317867824001154  0.5894760176556205  1.0000
  H   H18       1.0  0.4472180521014195  0.1479980733683703  0.08388327389434383  1.0000
  H   H19       1.0  0.9599862436771646  0.16821425971094334  0.4105218235617302  1.0000
  H   H20       1.0  0.5527802931239235  0.8520015605382407  0.9161188504243397  1.0000
  H   H21       1.0  0.03229651842374183  0.8448156155991738  0.41922966921386273  1.0000
  H   H22       1.0  0.4536327022894185  0.13927910544782657  0.9145506453769772  1.0000
  H   H23       1.0  0.9677004013551952  0.15518400998152512  0.5807692104917522  1.0000
  H   H24       1.0  0.5463656429359247  0.8607205284587849  0.0854514789417067  1.0000
  C   C1        1.0  0.12232368679558189  0.45347190843617813  0.8022743579539764  1.0000
  C   C2        1.0  0.3816251084494909  0.5432146643520993  0.3069302351498778  1.0000
  C   C3        1.0  0.8776741177054105  0.5465263027782894  0.1977256217835759  1.0000
  C   C4        1.0  0.6183761238068898  0.4567821298310335  0.6930687636024758  1.0000
  C   C5        1.0  0.9377112628237896  0.3030269497386299  0.8372308164160034  1.0000
  C   C6        1.0  0.5650732244485044  0.6999882913066102  0.3499608617499916  1.0000
  C   C7        1.0  0.0622856569551473  0.696972675842069  0.16276806328961876  1.0000
  C   C8        1.0  0.43492816173761645  0.30000851253499417  0.6500424221239953  1.0000
  C   C9        1.0  0.9993117815221025  0.0067695230914566  0.8463802411876388  1.0000
  C   C10       1.0  0.5023848687689424  0.9953286467388053  0.3469431581713495  1.0000
  C   C11       1.0  0.0006877582550402007  0.9932301046533708  0.15361870006164935  1.0000
  C   C12       1.0  0.49761652173165777  0.004672404780230002  0.6530579584309066  1.0000
  C   C13       1.0  0.973431012316965  0.15715724015325347  0.0725958177900452  1.0000
  C   C14       1.0  0.5292545573339567  0.843629706946153  0.57849661325308  1.0000
  C   C15       1.0  0.026565907461971922  0.8428423854274453  0.9274030619155695  1.0000
  C   C16       1.0  0.47074898940537224  0.15636992887409917  0.42150456287254207  1.0000
  N   N1        1.0  0.9664483934487152  0.1447754010036562  0.9168104381389172  1.0000
  N   N2        1.0  0.5351288471263872  0.8569080594022224  0.4232837466849731  1.0000
  N   N3        1.0  0.03354933408740375  0.8552228053815795  0.0831873990378185  1.0000
  N   N4        1.0  0.46487123337511355  0.14309299103474868  0.5767173391454394  1.0000
  O   O1        1.0  0.14426282213955946  0.5308304136392934  0.6787085370490615  1.0000
  O   O2        1.0  0.36800275792337084  0.4595149997011347  0.18724494794145136  1.0000
  O   O3        1.0  0.8557384913961671  0.4691706330505099  0.32129043699237064  1.0000
  O   O4        1.0  0.6319998271290289  0.5404860456561166  0.8127529855914162  1.0000
  O   O5        1.0  0.2465626381224411  0.5005825063562241  0.9029987573880548  1.0000
  O   O6        1.0  0.2566171594189229  0.4992664077121276  0.39617849675705946  1.0000
  O   O7        1.0  0.753436051100607  0.4994142904920126  0.09700232238144221  1.0000
  O   O8        1.0  0.743381715557611  0.5007232947418386  0.6038194206133413  1.0000
  O   O9        1.0  0.07572628422313704  0.781726728561047  0.502090001757189  1.0000
  O   O10       1.0  0.41187284181650347  0.20100605701441757  0.9929700555910091  1.0000
  O   O11       1.0  0.9242741830729743  0.2182757349095965  0.4979089435327212  1.0000
  O   O12       1.0  0.5881272386849901  0.7989949934225536  0.007031030239410496  1.0000
  O   O13       1.0  0.004574672662776904  0.0052580293117188  0.7111644583909397  1.0000
  O   O14       1.0  0.4985238841418537  0.9978192689225908  0.21141842854927975  1.0000
  O   O15       1.0  0.9954253308738501  0.9947430162960199  0.28883448487866303  1.0000
  O   O16       1.0  0.5014783141159285  0.0021803634009814007  0.7885816455240973  1.0000
