data_image0
_chemical_formula_structural       Re8H56C56N8Cl16O16
_chemical_formula_sum              "Re8 H56 C56 N8 Cl16 O16"
_cell_length_a       12.493062846554038
_cell_length_b       12.493059785710832
_cell_length_c       19.390538083943852
_cell_angle_alpha    76.95597463634847
_cell_angle_beta     76.95530136602454
_cell_angle_gamma    60.79739321660365

_space_group_name_H-M_alt    "P 1"
_space_group_IT_number       1

loop_
  _space_group_symop_operation_xyz
  'x, y, z'

loop_
  _atom_site_type_symbol
  _atom_site_label
  _atom_site_symmetry_multiplicity
  _atom_site_fract_x
  _atom_site_fract_y
  _atom_site_fract_z
  _atom_site_occupancy
  Re  Re1       1.0  0.9853069878451136  0.7292063312862143  0.06612140767177274  1.0000
  Re  Re2       1.0  0.2707921237174773  0.014695426304726313  0.43388051488817336  1.0000
  Re  Re3       1.0  0.0146958092744001  0.27079215318251937  0.9338858343310011  1.0000
  Re  Re4       1.0  0.7292087211963718  0.985308811494214  0.5661148211065951  1.0000
  Re  Re5       1.0  0.956387388493198  0.6860956584521319  0.18374572332821518  1.0000
  Re  Re6       1.0  0.3139065133247598  0.043611478772589925  0.31625560527459845  1.0000
  Re  Re7       1.0  0.04361353838038439  0.3139044773304819  0.816258972352742  1.0000
  Re  Re8       1.0  0.6860971707602558  0.956386550077085  0.6837402273385468  1.0000
  H   H1        1.0  0.10300302156217359  0.8965050374362847  0.952591634948263  1.0000
  H   H2        1.0  0.1034911278387867  0.8970023224084898  0.5474126535105273  1.0000
  H   H3        1.0  0.8969988133092742  0.10349466386608706  0.04740783375459761  1.0000
  H   H4        1.0  0.8965033654306467  0.10299575545482063  0.45258813646399443  1.0000
  H   H5        1.0  0.17306868951187232  0.9528689509055043  0.826163982607568  1.0000
  H   H6        1.0  0.04712903320562841  0.8269386737401804  0.6738417517157417  1.0000
  H   H7        1.0  0.8269303687850709  0.04713200099055845  0.17383571100073417  1.0000
  H   H8        1.0  0.9528598322160706  0.17306852525911148  0.32616110204270404  1.0000
  H   H9        1.0  0.1159324558737609  0.6664840210616845  0.7739431696214326  1.0000
  H   H10       1.0  0.333520885007367  0.8840737183636734  0.7260546719456757  1.0000
  H   H11       1.0  0.8840712335527457  0.33351485003469633  0.22605717954639462  1.0000
  H   H12       1.0  0.666481873636222  0.11592556431256927  0.2739442065877498  1.0000
  H   H13       1.0  0.0526920925127357  0.6192285542126826  0.9035438085488252  1.0000
  H   H14       1.0  0.3807742640271172  0.9473080116459586  0.596454263788843  1.0000
  H   H15       1.0  0.9473079052472074  0.38077115794936117  0.09645696074689177  1.0000
  H   H16       1.0  0.6192248150519717  0.052690450502915126  0.4035426993755992  1.0000
  H   H17       1.0  0.1203327599819985  0.4335581168797873  0.29590006899374544  1.0000
  H   H18       1.0  0.5664413727130224  0.8796694311095054  0.20410025769661652  1.0000
  H   H19       1.0  0.8796653937390673  0.566442436057649  0.7041029110427747  1.0000
  H   H20       1.0  0.43355769434740676  0.12033152959439522  0.7959020119164963  1.0000
  H   H21       1.0  0.134762583025271  0.3478521229924496  0.42228448107071165  1.0000
  H   H22       1.0  0.6521505414940094  0.8652373621672282  0.07771430195977301  1.0000
  H   H23       1.0  0.865231835545437  0.6521525748194604  0.5777179228768575  1.0000
  H   H24       1.0  0.3478476382672966  0.1347607063077234  0.9222874932357714  1.0000
  H   H25       1.0  0.8700312968919448  0.716117228562901  0.47367947226163665  1.0000
  H   H26       1.0  0.2838840014853404  0.12996356581776783  0.026324568641754795  1.0000
  H   H27       1.0  0.1299622013286097  0.2838870544362777  0.5263215813054957  1.0000
  H   H28       1.0  0.7161169774687224  0.8700316010398698  0.9736777573572442  1.0000
  H   H29       1.0  0.870974741677749  0.7860201771341695  0.34428929892255405  1.0000
  H   H30       1.0  0.2139796963672893  0.1290275765659459  0.15571616446103323  1.0000
  H   H31       1.0  0.12902431144451043  0.21398160643919795  0.6557118200346608  1.0000
  H   H32       1.0  0.7860193307147296  0.870976691469899  0.8442861393371572  1.0000
  H   H33       1.0  0.3694063622946544  0.38501100759531687  0.08480889393656808  1.0000
  H   H34       1.0  0.6149850243278933  0.6305950106136322  0.41518836888835164  1.0000
  H   H35       1.0  0.630594449651575  0.6149965445818424  0.9151885370471293  1.0000
  H   H36       1.0  0.3850066750068777  0.3694059741516967  0.584813435885586  1.0000
  H   H37       1.0  0.2797045512819948  0.31298038736135697  0.08074660066170482  1.0000
  H   H38       1.0  0.6870174061735241  0.7202973325917628  0.4192493620219652  1.0000
  H   H39       1.0  0.7203018746572027  0.6870197035112755  0.9192505868339683  1.0000
  H   H40       1.0  0.3129789572584372  0.27969825699565837  0.5807510033225685  1.0000
  H   H41       1.0  0.3097796459323163  0.31721176188651884  0.1660826037475118  1.0000
  H   H42       1.0  0.6827875344433281  0.6902155018498918  0.3339155804974041  1.0000
  H   H43       1.0  0.690230494291697  0.6827858368968336  0.8339149193291748  1.0000
  H   H44       1.0  0.3172107165947153  0.30977678011532106  0.6660865412749646  1.0000
  H   H45       1.0  0.285259961908082  0.7883189124656911  0.15764056935382342  1.0000
  H   H46       1.0  0.2116786175418781  0.7147418354327971  0.34235617417657244  1.0000
  H   H47       1.0  0.7147436910454134  0.21168326948576785  0.8423608444010142  1.0000
  H   H48       1.0  0.7883186592294322  0.2852541619210884  0.6576434807445538  1.0000
  H   H49       1.0  0.1514427860348491  0.9234570525530476  0.1822741294965127  1.0000
  H   H50       1.0  0.0765421734761418  0.8485588890347486  0.3177244215434314  1.0000
  H   H51       1.0  0.8485599205282599  0.0765471990481714  0.8177271187188637  1.0000
  H   H52       1.0  0.923454169090263  0.15143835333786648  0.6822757032931722  1.0000
  H   H53       1.0  0.2133321492154678  0.9127367266019277  0.08965510995198403  1.0000
  H   H54       1.0  0.08725966157208379  0.7866750073181736  0.4103427793577908  1.0000
  H   H55       1.0  0.7866697048522368  0.08726215711568855  0.910347055009652  1.0000
  H   H56       1.0  0.9127430484130131  0.21332841084417714  0.5896565283077067  1.0000
  C   C1        1.0  0.1761256958743616  0.48811616693401316  0.11697578984192349  1.0000
  C   C2        1.0  0.5118806154018857  0.8238751925480444  0.38302099745158114  1.0000
  C   C3        1.0  0.8238789260043619  0.5118814573820742  0.8830235742094745  1.0000
  C   C4        1.0  0.4881138797036471  0.1761237240388312  0.61698327867569  1.0000
  C   C5        1.0  0.29095121392038686  0.3682389638724717  0.11271326452736474  1.0000
  C   C6        1.0  0.6317585279560234  0.7090479706337479  0.3872822739545115  1.0000
  C   C7        1.0  0.7090533818346927  0.6317603079440987  0.8872843134132115  1.0000
  C   C8        1.0  0.3682368995183226  0.29094886221083993  0.6127180461045328  1.0000
  C   C9        1.0  0.11709843231911779  0.8059621177054342  0.1353924326872117  1.0000
  C   C10       1.0  0.19403834180674548  0.8829046565202533  0.364603353688679  1.0000
  C   C11       1.0  0.8829052171289787  0.19404006072289098  0.8646079506657005  1.0000
  C   C12       1.0  0.8059625884054213  0.11709380886149023  0.6353964304906015  1.0000
  C   C13       1.0  0.19635117401070804  0.8614960321254375  0.1410845987129719  1.0000
  C   C14       1.0  0.1385020158758863  0.803653319565676  0.3589127943088926  1.0000
  C   C15       1.0  0.8036534288385725  0.1385040836994022  0.8589180109832387  1.0000
  C   C16       1.0  0.8614979731205779  0.19634638378852293  0.6410853989820141  1.0000
  C   C17       1.0  0.1082661023568434  0.846758065711164  0.9114626180856721  1.0000
  C   C18       1.0  0.1532409669841428  0.8917408743965112  0.5885392538063601  1.0000
  C   C19       1.0  0.8917357307619084  0.15324163382964454  0.08853633541623648  1.0000
  C   C20       1.0  0.8467553199129795  0.1082604964159446  0.41145923935846446  1.0000
  C   C21       1.0  0.1477626850792007  0.8778319497088776  0.8403974517490983  1.0000
  C   C22       1.0  0.1221652950942911  0.8522439020761259  0.6596062566517702  1.0000
  C   C23       1.0  0.8522373213608249  0.1221669342990026  0.15960292259962466  1.0000
  C   C24       1.0  0.87782821005365  0.14775955100732596  0.34039388676740867  1.0000
  C   C25       1.0  0.14996031142489125  0.8148832878551677  0.7882504597843436  1.0000
  C   C26       1.0  0.18511645064053533  0.8500436612573168  0.7117494122145448  1.0000
  C   C27       1.0  0.8500415286212473  0.1851155817699067  0.21174758356960413  1.0000
  C   C28       1.0  0.8148835487887067  0.14995521570428869  0.28824890133033426  1.0000
  C   C29       1.0  0.1146702556763586  0.720333846289485  0.8114256211807817  1.0000
  C   C30       1.0  0.27966855101074367  0.8853355968305084  0.6885738755385236  1.0000
  C   C31       1.0  0.8853315809477847  0.2796658567744573  0.18857436272304545  1.0000
  C   C32       1.0  0.7203342163129207  0.11466285769157036  0.3114246080479077  1.0000
  C   C33       1.0  0.07886697215660379  0.693455876078069  0.8839680472501216  1.0000
  C   C34       1.0  0.3065458221339554  0.9211377917386233  0.6160322621082202  1.0000
  C   C35       1.0  0.9211348679729312  0.3065438305090073  0.11603296705562369  1.0000
  C   C36       1.0  0.6934504803706361  0.07886192100394149  0.3839649259616565  1.0000
  C   C37       1.0  0.067333907119064  0.4935452809917251  0.3370870971204313  1.0000
  C   C38       1.0  0.5064569149748479  0.9326671565817223  0.16291393603079038  1.0000
  C   C39       1.0  0.9326623973050304  0.5064561074364067  0.6629165480540068  1.0000
  C   C40       1.0  0.49354492690738994  0.06733255176692415  0.8370875934759212  1.0000
  C   C41       1.0  0.07397095003407371  0.4458648156050272  0.40892001398709255  1.0000
  C   C42       1.0  0.5541394667952346  0.9260245334665388  0.09108029904491129  1.0000
  C   C43       1.0  0.926020702394901  0.5541403064079802  0.5910827351198834  1.0000
  C   C44       1.0  0.44586149997335417  0.07397145802212181  0.9089213914991633  1.0000
  C   C45       1.0  0.0006891699156171005  0.5234991253185228  0.4613808513148003  1.0000
  C   C46       1.0  0.47650167510730757  0.9993042033756513  0.03862239866421649  1.0000
  C   C47       1.0  0.9992988203924328  0.4765043568207902  0.5386221634810086  1.0000
  C   C48       1.0  0.5234965307776348  0.0006922175988109453  0.9613811826421429  1.0000
  C   C49       1.0  0.9279194088705083  0.6488078173958131  0.43698190147830474  1.0000
  C   C50       1.0  0.35119244546717  0.07207881972547642  0.06301925381313109  1.0000
  C   C51       1.0  0.0720731829380696  0.3511952279211671  0.5630189523642813  1.0000
  C   C52       1.0  0.6488066232625512  0.9279213057779859  0.9369805600491434  1.0000
  C   C53       1.0  0.9281106096177892  0.689300216967027  0.3642076826398722  1.0000
  C   C54       1.0  0.31070028848392184  0.07189119354185183  0.13579460828979253  1.0000
  C   C55       1.0  0.07188658202202448  0.3107032267280588  0.6357934660003296  1.0000
  C   C56       1.0  0.6892996588648401  0.9281126523447302  0.8642060749370372  1.0000
  N   N1        1.0  0.0741579355648057  0.7564323893787449  0.9333702526315693  1.0000
  N   N2        1.0  0.24356537944463943  0.9258489298143079  0.5666305798108766  1.0000
  N   N3        1.0  0.9258430016581513  0.2435660830492738  0.06663159235156263  1.0000
  N   N4        1.0  0.7564327671822398  0.07415077911485923  0.4333673684700016  1.0000
  N   N5        1.0  0.9947622776435169  0.6131262673260951  0.31449893379380006  1.0000
  N   N6        1.0  0.3868754727231618  0.005237452305784978  0.18550191399205573  1.0000
  N   N7        1.0  0.0052349574800985  0.3868738725601733  0.6855032110632494  1.0000
  N   N8        1.0  0.6131263674063732  0.9947622542812912  0.8144991003136894  1.0000
  Cl  Cl1       1.0  0.8752773474590967  0.6525437963706724  0.028914331671963073  1.0000
  Cl  Cl2       1.0  0.34745966997169125  0.12472965879050701  0.4710832062824368  1.0000
  Cl  Cl3       1.0  0.1247300284592896  0.3474550653373498  0.9710870227168943  1.0000
  Cl  Cl4       1.0  0.6525476275757568  0.8752741454189777  0.5289127897739476  1.0000
  Cl  Cl5       1.0  0.8352217919565846  0.9326024563640166  0.0426620708342185  1.0000
  Cl  Cl6       1.0  0.0673887572987155  0.16478335635504496  0.4573330735948674  1.0000
  Cl  Cl7       1.0  0.1647782127307451  0.06739642588229344  0.9573377883135453  1.0000
  Cl  Cl8       1.0  0.9326028183452166  0.8352250359969848  0.5426588904770071  1.0000
  Cl  Cl9       1.0  0.8360179504233685  0.5854797429647222  0.20525482208619647  1.0000
  Cl  Cl10      1.0  0.414524391093977  0.16397821313864114  0.2947405011853022  1.0000
  Cl  Cl11      1.0  0.1639838967169567  0.41451997066862833  0.7947482530233927  1.0000
  Cl  Cl12      1.0  0.585480261916274  0.836015258075655  0.7052532817244103  1.0000
  Cl  Cl13      1.0  0.7851106803316555  0.8626188350553365  0.22129055241798315  1.0000
  Cl  Cl14      1.0  0.13739205790798079  0.21488211957239411  0.27870292133089697  1.0000
  Cl  Cl15      1.0  0.2148892652644108  0.1373850090696821  0.7787096156078803  1.0000
  Cl  Cl16      1.0  0.8626190302923076  0.785111737398765  0.7212893405826153  1.0000
  O   O1        1.0  0.1402845658503082  0.561866832626329  0.059270881295262284  1.0000
  O   O2        1.0  0.43813192001511686  0.8597173418264107  0.4407227818213856  1.0000
  O   O3        1.0  0.8597181857824906  0.4381324430036459  0.9407259364343192  1.0000
  O   O4        1.0  0.5618653011703287  0.1402836209293241  0.5592782123797663  1.0000
  O   O5        1.0  0.11271063124713271  0.5184233225920425  0.17800169955133777  1.0000
  O   O6        1.0  0.48157735401851914  0.8872907377223814  0.3219927313623003  1.0000
  O   O7        1.0  0.8872939853735033  0.48157429643934113  0.8219961188971753  1.0000
  O   O8        1.0  0.5184226576796007  0.11270815157019605  0.6780091885893073  1.0000
  O   O9        1.0  0.09954905056939371  0.8012258428846196  0.0734461959223012  1.0000
  O   O10       1.0  0.1987732771356363  0.900453753329984  0.4265478150095846  1.0000
  O   O11       1.0  0.9004564620304407  0.19877384022154865  0.9265517019967862  1.0000
  O   O12       1.0  0.8012285437976417  0.0995467708418474  0.5734505030373924  1.0000
  O   O13       1.0  0.0669843344319716  0.7625941356916857  0.19241537075559023  1.0000
  O   O14       1.0  0.2374045445869939  0.9330210723886765  0.30757984579251046  1.0000
  O   O15       1.0  0.9330202683338982  0.2374051431711594  0.8075842679888299  1.0000
  O   O16       1.0  0.7625963907998641  0.06697656131576939  0.6924185130378577  1.0000
