data_image0
_chemical_formula_structural       Zn2H60C60N2O14
_chemical_formula_sum              "Zn2 H60 C60 N2 O14"
_cell_length_a       13.906840300660477
_cell_length_b       14.913396526855507
_cell_length_c       15.213283335662974
_cell_angle_alpha    90.09085404356459
_cell_angle_beta     89.4333534219392
_cell_angle_gamma    89.48175961800239

_space_group_name_H-M_alt    "P 1"
_space_group_IT_number       1

loop_
  _space_group_symop_operation_xyz
  'x, y, z'

loop_
  _atom_site_type_symbol
  _atom_site_label
  _atom_site_symmetry_multiplicity
  _atom_site_fract_x
  _atom_site_fract_y
  _atom_site_fract_z
  _atom_site_occupancy
  Zn  Zn1       1.0  0.4070866721756516  0.500597746159535  0.5090437130023063  1.0000
  Zn  Zn2       1.0  0.6057944820841004  0.4963233349712011  0.5128589395737607  1.0000
  H   H1        1.0  0.3829388069257932  0.4252689868680334  0.24115551251355785  1.0000
  H   H2        1.0  0.6183735624421092  0.7479737141848374  0.3761126987370674  1.0000
  H   H3        1.0  0.9361268782466112  0.6338970414330376  0.5573901853761428  1.0000
  H   H4        1.0  0.07550070836098402  0.4378954086903377  0.38202027767116686  1.0000
  H   H5        1.0  0.9419507844556563  0.3586286568954691  0.4677192498178045  1.0000
  H   H6        1.0  0.07298574996617192  0.5585787115925174  0.640556854441144  1.0000
  H   H7        1.0  0.7553758992427005  0.6267909645256821  0.5542874709422351  1.0000
  H   H8        1.0  0.2562054978688977  0.4448335225876718  0.3852247905122611  1.0000
  H   H9        1.0  0.7606977395991875  0.36286811947054076  0.47188420516933877  1.0000
  H   H10       1.0  0.25388960757022266  0.5561837201154133  0.6338905567942633  1.0000
  H   H11       1.0  0.7523775693988739  0.5674668239451819  0.1732725935103546  1.0000
  H   H12       1.0  0.5948153207139271  0.5972096097056505  0.7804029781624352  1.0000
  H   H13       1.0  0.7166158733089317  0.5191093803117255  0.2763377422311352  1.0000
  H   H14       1.0  0.7889566849642196  0.7118270502352573  0.2541346132979783  1.0000
  H   H15       1.0  0.7604785863888637  0.6580292388165387  0.3543303264435735  1.0000
  H   H16       1.0  0.8932961325581914  0.5432622443340023  0.32533025376379504  1.0000
  H   H17       1.0  0.9401352340632203  0.6537348613111077  0.32691392645254075  1.0000
  H   H18       1.0  0.9222298409979218  0.5981850356061855  0.22522685933837042  1.0000
  H   H19       1.0  0.3536237042253915  0.24664930222981943  0.7545367361053368  1.0000
  H   H20       1.0  0.40997715965976766  0.259741509544277  0.8587052800965227  1.0000
  H   H21       1.0  0.5045898144057759  0.3007948967602658  0.6799405985275302  1.0000
  H   H22       1.0  0.5586718127332942  0.3153275470163732  0.7835328607528425  1.0000
  H   H23       1.0  0.663412730683092  0.6756456197780238  0.07925573959246181  1.0000
  H   H24       1.0  0.5389115652164024  0.14742528715255787  0.8131120907645201  1.0000
  H   H25       1.0  0.6143536014653395  0.17087937328289368  0.7213530207053227  1.0000
  H   H26       1.0  0.4950215589382695  0.13502267058816383  0.7044352410269  1.0000
  H   H27       1.0  0.4105739540616328  0.9390452018364072  0.6586630658474492  1.0000
  H   H28       1.0  0.29649084942345627  0.9096065566790726  0.6148379976414946  1.0000
  H   H29       1.0  0.3585887647694221  0.10411601741758149  0.6402118878699385  1.0000
  H   H30       1.0  0.24206326620770113  0.06622515125904019  0.6159507977373269  1.0000
  H   H31       1.0  0.23686644784244495  0.9862166183888944  0.7655432573926079  1.0000
  H   H32       1.0  0.2502816131108005  0.10391704326912078  0.7761048978547935  1.0000
  H   H33       1.0  0.3514052812463291  0.0318815378190109  0.7889106106811071  1.0000
  H   H34       1.0  0.3093910235906847  0.3515222680355947  0.9428023163623396  1.0000
  H   H35       1.0  0.581145775367169  0.0024856711958421  0.605301492393636  1.0000
  H   H36       1.0  0.6877933401863102  0.0650657962459249  0.6243110210263867  1.0000
  H   H37       1.0  0.6774746155995572  0.868499693309964  0.5647463850902029  1.0000
  H   H38       1.0  0.7855833561647145  0.9291002703525136  0.5755632764824982  1.0000
  H   H39       1.0  0.7506958505711337  0.9517806426307444  0.7381115308004029  1.0000
  H   H40       1.0  0.7535283915610764  0.8359226267221513  0.7111560189599547  1.0000
  H   H41       1.0  0.6416132553389318  0.891692435974626  0.727417305033086  1.0000
  H   H42       1.0  0.34697443987705867  0.0332785170331462  0.2017675251696289  1.0000
  H   H43       1.0  0.42836261898718664  0.12377976014451517  0.21599012545759425  1.0000
  H   H44       1.0  0.21442834583656634  0.13324101418266568  0.2668894005345806  1.0000
  H   H45       1.0  0.6559438126452904  0.670158972211979  0.9164626792532717  1.0000
  H   H46       1.0  0.2945099691643307  0.22466571332631702  0.2600380697398066  1.0000
  H   H47       1.0  0.3151722164189934  0.19531012536139503  0.09532057503596292  1.0000
  H   H48       1.0  0.19406159969986453  0.2206460216864556  0.12451477525081603  1.0000
  H   H49       1.0  0.22964684030817753  0.10795308834788386  0.10385862931254053  1.0000
  H   H50       1.0  0.639692249455628  0.9855364085796905  0.20501850385226567  1.0000
  H   H51       1.0  0.5198189856688487  0.9718672205634175  0.24544455730791986  1.0000
  H   H52       1.0  0.646536074077794  0.8215513987784533  0.16706501529708365  1.0000
  H   H53       1.0  0.5270643669554289  0.8087288356493331  0.20387159348980086  1.0000
  H   H54       1.0  0.47000359435777744  0.9183155261503161  0.0870835936246053  1.0000
  H   H55       1.0  0.5327960099642084  0.8258220937249235  0.0395895978570877  1.0000
  H   H56       1.0  0.31113207033182283  0.36290456037201574  0.10512799379687013  1.0000
  H   H57       1.0  0.5906472393507086  0.9309476915901483  0.05003342389344571  1.0000
  H   H58       1.0  0.39633365917703867  0.8021079214310092  0.5682975729385689  1.0000
  H   H59       1.0  0.6494539788541118  0.20605707720937264  0.5179243282782694  1.0000
  H   H60       1.0  0.38777817343499515  0.23728895754525328  0.3723940615013461  1.0000
  C   C1        1.0  0.5125171535947218  0.6716839819483909  0.5063620249588825  1.0000
  C   C2        1.0  0.5926197559606976  0.17683193941609684  0.4786903597647268  1.0000
  C   C3        1.0  0.4456886230856867  0.19413805085395808  0.3955613679011521  1.0000
  C   C4        1.0  0.5693973829139836  0.7950962370614361  0.4084420282083344  1.0000
  C   C5        1.0  0.5089070497981041  0.7670148943979809  0.4766721362779195  1.0000
  C   C6        1.0  0.5174372547157303  0.2309635590852182  0.44814436741046393  1.0000
  C   C7        1.0  0.5052631055066854  0.9469785699117563  0.4229438586129036  1.0000
  C   C8        1.0  0.5158600191374845  0.0455323699538468  0.4154631744688616  1.0000
  C   C9        1.0  0.9002496666284544  0.5721261268238038  0.5388483736772474  1.0000
  C   C10       1.0  0.11212722988879163  0.4643687416999356  0.4393402545277426  1.0000
  C   C11       1.0  0.9035091504999356  0.41954443384776136  0.4873586303485667  1.0000
  C   C12       1.0  0.5119633721227572  0.32704272147847746  0.47641185260280144  1.0000
  C   C13       1.0  0.11073167508468632  0.5330218711194873  0.5825023130651488  1.0000
  C   C14       1.0  0.800520269362636  0.5689429267729122  0.5375412629038367  1.0000
  C   C15       1.0  0.2118898399811684  0.4680064538990435  0.440386896176591  1.0000
  C   C16       1.0  0.8035727721070955  0.42103706587987927  0.48942069402068006  1.0000
  C   C17       1.0  0.2105984998513577  0.5323625228586764  0.5794222176114517  1.0000
  C   C18       1.0  0.9536651753742831  0.49631001148814846  0.5128396072869637  1.0000
  C   C19       1.0  0.0596431065801255  0.4977982249630486  0.5115636706112384  1.0000
  C   C20       1.0  0.4946783586587955  0.48907874296384773  0.6807082478475481  1.0000
  C   C21       1.0  0.5045374775116187  0.5148718993317586  0.3401073479127136  1.0000
  C   C22       1.0  0.43191203226359676  0.46472510610279727  0.20058455675669515  1.0000
  C   C23       1.0  0.6110985056713574  0.6261606312257014  0.9565357165949495  1.0000
  C   C24       1.0  0.5475272208898474  0.5562599309571041  0.8210572729546899  1.0000
  C   C25       1.0  0.5007054818305292  0.517340484857577  0.24184069516262954  1.0000
  C   C26       1.0  0.48861162775717304  0.4941932201219927  0.779139480681714  1.0000
  C   C27       1.0  0.5635565017704137  0.570114612196953  0.19170150461127383  1.0000
  C   C28       1.0  0.4277394782031577  0.43897600129039915  0.8296921879914124  1.0000
  C   C29       1.0  0.5567897803060333  0.5719307216033015  0.09922662883970192  1.0000
  C   C30       1.0  0.42435831589421724  0.44743461845040144  0.9222533299795972  1.0000
  C   C31       1.0  0.48979036663397585  0.514064690857701  0.05742400138014151  1.0000
  C   C32       1.0  0.48708233248778043  0.5093281455116737  0.9641316970417082  1.0000
  C   C33       1.0  0.4267383646875018  0.4597403270940815  0.10889777635082253  1.0000
  C   C34       1.0  0.3607589312529242  0.40219310915279033  0.06504972956845731  1.0000
  C   C35       1.0  0.5488589195003614  0.5649043499451594  0.9126163784927431  1.0000
  C   C36       1.0  0.6156359729787083  0.6292328485612728  0.046144637510160215  1.0000
  C   C37       1.0  0.36006968515027893  0.3954134450456054  0.9755034191887263  1.0000
  C   C38       1.0  0.7239999729326955  0.5825316869497641  0.23989695666386984  1.0000
  C   C39       1.0  0.7895830988749851  0.6464632332790287  0.2877018332320916  1.0000
  C   C40       1.0  0.8919367580205135  0.6085050477293947  0.2916164172402845  1.0000
  C   C41       1.0  0.4078929769122226  0.28495806543402585  0.7903863342437918  1.0000
  C   C42       1.0  0.5066816554247922  0.2744009165151908  0.7473722507479793  1.0000
  C   C43       1.0  0.5403419079617536  0.17653283489352128  0.7466795390398886  1.0000
  C   C44       1.0  0.35094227688548324  0.9630072201981791  0.6169328538981419  1.0000
  C   C45       1.0  0.44309511296766857  0.9163011784418416  0.490451490165917  1.0000
  C   C46       1.0  0.3074669304279213  0.04957097921560208  0.6529531931239064  1.0000
  C   C47       1.0  0.28516442111652646  0.042466682209344186  0.7512130754003651  1.0000
  C   C48       1.0  0.6574271627595962  0.009229474011768  0.5858366492371803  1.0000
  C   C49       1.0  0.7120464314329313  0.9223403712793466  0.6022221195555205  1.0000
  C   C50       1.0  0.7146272304172571  0.8992775818869487  0.7000358373554221  1.0000
  C   C51       1.0  0.3610047844879817  0.09403665710469511  0.24086570026699414  1.0000
  C   C52       1.0  0.27690330694989024  0.1594734618504745  0.2305019511597736  1.0000
  C   C53       1.0  0.25262100462754233  0.17161506677116017  0.13328171959907564  1.0000
  C   C54       1.0  0.5891628430834219  0.9371354188104275  0.23392227905865334  1.0000
  C   C55       1.0  0.5768333524924715  0.856705113735309  0.1732290999428159  1.0000
  C   C56       1.0  0.5912732960101508  0.08500519976411876  0.4624986146749635  1.0000
  C   C57       1.0  0.5405985232468282  0.88450429594436  0.08263041707299831  1.0000
  C   C58       1.0  0.4459541763597982  0.10216908250453119  0.3778742724035667  1.0000
  C   C59       1.0  0.566230516967515  0.8843928307377522  0.38099306793541393  1.0000
  C   C60       1.0  0.44375154804833983  0.8267271976796804  0.5165978923079069  1.0000
  N   N1        1.0  0.7533357944538466  0.49458627440179004  0.513702990621802  1.0000
  N   N2        1.0  0.2599063455211734  0.5008625088583329  0.5093345296142859  1.0000
  O   O1        1.0  0.4355777263764154  0.6364071622732438  0.5354263822865735  1.0000
  O   O2        1.0  0.3707623555730494  0.37606634276495743  0.7898420318242005  1.0000
  O   O3        1.0  0.387559963906739  0.9811381721903274  0.5305625016631554  1.0000
  O   O4        1.0  0.6635941811539467  0.029736542325380793  0.4934489921660871  1.0000
  O   O5        1.0  0.375081743136768  0.061809661563778207  0.3292577463367863  1.0000
  O   O6        1.0  0.6305255920718126  0.9115731607788291  0.3169839276332881  1.0000
  O   O7        1.0  0.587891055061185  0.3604860156599159  0.5094721429765772  1.0000
  O   O8        1.0  0.43205204165968075  0.36821427781518407  0.46768297888952054  1.0000
  O   O9        1.0  0.5940557786362675  0.6318451450907074  0.4990654240385056  1.0000
  O   O10       1.0  0.4173921718032929  0.474676183200117  0.6389667187053194  1.0000
  O   O11       1.0  0.5833866303324484  0.4928821214226673  0.3756367894170297  1.0000
  O   O12       1.0  0.42525911476982975  0.5323740848769062  0.3795243759770841  1.0000
  O   O13       1.0  0.5772548555574986  0.5018762836620354  0.6463383488235623  1.0000
  O   O14       1.0  0.6297383721060683  0.6238592425761381  0.23269729490632335  1.0000
