data_image0
_chemical_formula_structural       Ag2H18C24N4O8
_chemical_formula_sum              "Ag2 H18 C24 N4 O8"
_cell_length_a       7.305923623308345
_cell_length_b       7.3059425664705
_cell_length_c       12.177279987601299
_cell_angle_alpha    75.23215236072754
_cell_angle_beta     75.23239119558262
_cell_angle_gamma    64.86634988884795

_space_group_name_H-M_alt    "P 1"
_space_group_IT_number       1

loop_
  _space_group_symop_operation_xyz
  'x, y, z'

loop_
  _atom_site_type_symbol
  _atom_site_label
  _atom_site_symmetry_multiplicity
  _atom_site_fract_x
  _atom_site_fract_y
  _atom_site_fract_z
  _atom_site_occupancy
  Ag  Ag1       1.0  0.99999483643969  0.9999962144786565  2.0777239482770836e-07  1.0000
  Ag  Ag2       1.0  0.9999980168173295  0.9999993978962818  0.4999992961191779  1.0000
  H   H1        1.0  0.3403895754404617  0.4763923188144119  0.8225393766177048  1.0000
  H   H2        1.0  0.4763975186155137  0.34039025331139067  0.3225386056667716  1.0000
  H   H3        1.0  0.6596065027950004  0.5236088082799454  0.177461657083299  1.0000
  H   H4        1.0  0.5236070967895473  0.6596107557995835  0.6774603172455401  1.0000
  H   H5        1.0  0.7147553849779557  0.34282551664651356  0.8429485627493847  1.0000
  H   H6        1.0  0.3428299365214756  0.714753218421073  0.3429468069794054  1.0000
  H   H7        1.0  0.2852412664584064  0.6571740782774499  0.1570550814461456  1.0000
  H   H8        1.0  0.6571729772773834  0.28524476342172983  0.6570536614719771  1.0000
  H   H9        1.0  0.5990350111161005  0.0390103525486154  0.1740078581737308  1.0000
  H   H10       1.0  0.039015348629732265  0.599030870632589  0.6740045341424689  1.0000
  H   H11       1.0  0.40096222380645236  0.9609800788143728  0.8259929942579944  1.0000
  H   H12       1.0  0.960988415758024  0.40096862463287397  0.3259947510037974  1.0000
  H   H13       1.0  0.10110972140786603  0.36316201521614017  0.9826615397737015  1.0000
  H   H14       1.0  0.36316684577310815  0.10110608940780712  0.4826592003077224  1.0000
  H   H15       1.0  0.8988892022651953  0.6368390722685291  0.017338242950287974  1.0000
  H   H16       1.0  0.6368403359679464  0.8988918328090275  0.5173389811425723  1.0000
  H   H17       1.0  0.9176449627305344  0.08239312198131189  0.24998886967667747  1.0000
  H   H18       1.0  0.0823655935127406  0.9176261095189627  0.7500014248599881  1.0000
  C   C1        1.0  0.3949798324549008  0.37803428294074576  0.90081863958612  1.0000
  C   C2        1.0  0.37804187031120756  0.39498141439572987  0.40081550560609  1.0000
  C   C3        1.0  0.6050151032343649  0.6219699123000169  0.09918456276631821  1.0000
  C   C4        1.0  0.6219661633039448  0.6050180225123043  0.5991839557525793  1.0000
  C   C5        1.0  0.6000908165787779  0.30638061060255223  0.9115906298642571  1.0000
  C   C6        1.0  0.3063852164817932  0.6000895855495187  0.41158799179184047  1.0000
  C   C7        1.0  0.3999038391520885  0.6936205365080778  0.08841143986082761  1.0000
  C   C8        1.0  0.6936185483343706  0.39990991013878835  0.5884121144255872  1.0000
  C   C9        1.0  0.5384729998380351  0.1362470720205664  0.09705238698813183  1.0000
  C   C10       1.0  0.13625150347385787  0.5384689353869234  0.5970493610962322  1.0000
  C   C11       1.0  0.4615219482785235  0.8637494939438354  0.9029495184618026  1.0000
  C   C12       1.0  0.863754828535093  0.46152747425293955  0.4029516458015081  1.0000
  C   C13       1.0  0.33026791119353044  0.2021597824969064  0.09318173121712904  1.0000
  C   C14       1.0  0.20216498211140532  0.3302665194868197  0.5931793873736879  1.0000
  C   C15       1.0  0.669726464578936  0.7978383164835918  0.9068192058806089  1.0000
  C   C16       1.0  0.7978427724021485  0.6697298701367771  0.40682058349996447  1.0000
  C   C17       1.0  0.2593085412376582  0.32003751617459386  0.9913154783436724  1.0000
  C   C18       1.0  0.32004448424049775  0.2593073856302723  0.4913121472600891  1.0000
  C   C19       1.0  0.7406875374262043  0.6799636113426074  0.008686376428499842  1.0000
  C   C20       1.0  0.6799655442233572  0.7406904982454067  0.5086872464266959  1.0000
  C   C21       1.0  0.19493328595081041  0.13391665625097457  0.19570867751203738  1.0000
  C   C22       1.0  0.13392022452521252  0.1949267258341294  0.6957041853448442  1.0000
  C   C23       1.0  0.8050633642003573  0.8660829374044495  0.8042925034700017  1.0000
  C   C24       1.0  0.8660841113498491  0.8050712355695495  0.304294426011289  1.0000
  N   N1        1.0  0.6721977426715141  0.18231563233141662  0.0073553758664032754  1.0000
  N   N2        1.0  0.18231898795446017  0.6721982151089914  0.5073533381906543  1.0000
  N   N3        1.0  0.32779634114365297  0.8176870482181399  0.99264654657766  1.0000
  N   N4        1.0  0.8176847768616966  0.32780128057931546  0.4926467680267732  1.0000
  O   O1        1.0  0.26363457838147747  0.041244589488940206  0.28700514010505873  1.0000
  O   O2        1.0  0.0412428737870343  0.2636373477954023  0.7870006211002121  1.0000
  O   O3        1.0  0.7363543727616959  0.958764264848888  0.7129982652630459  1.0000
  O   O4        1.0  0.9587603182566297  0.73636368048615  0.21299769569385768  1.0000
  O   O5        1.0  0.009784666856411724  0.17843586306968717  0.1792094664510699  1.0000
  O   O6        1.0  0.17843463597601783  0.009783075843721196  0.67920855747316  1.0000
  O   O7        1.0  0.9902079923121574  0.8215668353819154  0.8207893866612466  1.0000
  O   O8        1.0  0.8215625843772469  0.9902149826813867  0.32078948650523387  1.0000
