data_image0
_chemical_formula_structural       Li4H16C28O8
_chemical_formula_sum              "Li4 H16 C28 O8"
_cell_length_a       4.988381386072624
_cell_length_b       8.450254262713225
_cell_length_c       12.82488176382141
_cell_angle_alpha    97.47668612456762
_cell_angle_beta     90.0022269102536
_cell_angle_gamma    90.00056204771542

_space_group_name_H-M_alt    "P 1"
_space_group_IT_number       1

loop_
  _space_group_symop_operation_xyz
  'x, y, z'

loop_
  _atom_site_type_symbol
  _atom_site_label
  _atom_site_symmetry_multiplicity
  _atom_site_fract_x
  _atom_site_fract_y
  _atom_site_fract_z
  _atom_site_occupancy
  Li  Li1       1.0  0.5971753616265404  0.35258104874061047  0.4952065407770903  1.0000
  Li  Li2       1.0  0.09717037580190892  0.1474201699093669  0.5047926445048816  1.0000
  Li  Li3       1.0  0.4028084829872327  0.647414030472241  0.5047933140374139  1.0000
  Li  Li4       1.0  0.9028214875600752  0.8525844576720516  0.4952080161135157  1.0000
  H   H1        1.0  0.3976483540201059  0.578413439542345  0.2745181734641164  1.0000
  H   H2        1.0  0.89762956127435  0.9215802339231589  0.7254850121309673  1.0000
  H   H3        1.0  0.6023555369611985  0.42157685571906006  0.72547815886044  1.0000
  H   H4        1.0  0.10237433012293451  0.07841843588531108  0.2745182647715935  1.0000
  H   H5        1.0  0.36048125810797427  0.6334430671061143  0.09274700483054939  1.0000
  H   H6        1.0  0.8604619240905932  0.866565783225255  0.9072584646239858  1.0000
  H   H7        1.0  0.6395206283589658  0.36655916356031787  0.9072503346541722  1.0000
  H   H8        1.0  0.13954397205815647  0.13343408507318344  0.09274647290066437  1.0000
  H   H9        1.0  0.6564687082055302  0.33288646125087235  0.052949008497634495  1.0000
  H   H10       1.0  0.15646258903867502  0.167122447849529  0.9470454753516364  1.0000
  H   H11       1.0  0.34352315502075476  0.6671265063027719  0.9470476774778047  1.0000
  H   H12       1.0  0.8435473164553996  0.8328798075503342  0.052959663639782675  1.0000
  H   H13       1.0  0.6939626924150846  0.28355261775531904  0.23639537666595334  1.0000
  H   H14       1.0  0.19395485191324013  0.21643873535162328  0.7635981869078062  1.0000
  H   H15       1.0  0.30604119841612487  0.7164448239368824  0.7635968802980455  1.0000
  H   H16       1.0  0.8060610675988187  0.783567100700374  0.2364072542837475  1.0000
  C   C1        1.0  0.09233456449709371  0.38706802213563657  0.37700437490034483  1.0000
  C   C2        1.0  0.5922845710204427  0.11294150133848291  0.6229938789227558  1.0000
  C   C3        1.0  0.9076593032003829  0.6129294293886927  0.6229910017621448  1.0000
  C   C4        1.0  0.40771330644518855  0.8870607490664355  0.37700970008523166  1.0000
  C   C5        1.0  0.0482369449583047  0.4282708905898218  0.2684453889591012  1.0000
  C   C6        1.0  0.5482373659302909  0.0716988404447676  0.7315496270204774  1.0000
  C   C7        1.0  0.951760931987529  0.5717241714005751  0.7315490063554151  1.0000
  C   C8        1.0  0.4517765488371523  0.9282998343493603  0.2684552098497263  1.0000
  C   C9        1.0  0.23239951405305698  0.5274798405079081  0.22586359962514274  1.0000
  C   C10       1.0  0.7323543547664358  0.9725218438109311  0.774135449125417  1.0000
  C   C11       1.0  0.7676083863417561  0.47251523140741375  0.7741339155457254  1.0000
  C   C12       1.0  0.2676555505768762  0.0274744389425194  0.22586762638931646  1.0000
  C   C13       1.0  0.2112473644618333  0.5565321495189153  0.12217815681547249  1.0000
  C   C14       1.0  0.7112543220282462  0.9434609942937016  0.8778229739693372  1.0000
  C   C15       1.0  0.7887525172104617  0.4434653020332462  0.8778172198943748  1.0000
  C   C16       1.0  0.2887535786999608  0.0565388690747639  0.1221804036823926  1.0000
  C   C17       1.0  0.007287531816693602  0.4863983922677306  0.05586390968020539  1.0000
  C   C18       1.0  0.5072563962167322  0.013609167636474202  0.9441383637576662  1.0000
  C   C19       1.0  0.9927143545858287  0.5136050270008636  0.9441319706334069  1.0000
  C   C20       1.0  0.49275350928797224  0.9863907031501638  0.05586735374291856  1.0000
  C   C21       1.0  0.8200516480034211  0.38902171218393977  0.10022338990552267  1.0000
  C   C22       1.0  0.32005591613661716  0.11096364958765291  0.8997723352083326  1.0000
  C   C23       1.0  0.17994422439926447  0.6109828981286185  0.8997718111339735  1.0000
  C   C24       1.0  0.6799519845665786  0.8890374048526012  0.10023036321663878  1.0000
  C   C25       1.0  0.8390488257599173  0.36090785933022573  0.20447300444597966  1.0000
  C   C26       1.0  0.33900691946902134  0.13908841257590146  0.7955215861207776  1.0000
  C   C27       1.0  0.16095105588735953  0.6390907832937386  0.7955216930371091  1.0000
  C   C28       1.0  0.6610069952734108  0.8609114532900222  0.20448257152266786  1.0000
  O   O1        1.0  0.30282254407458703  0.44167738076991003  0.4254166353427918  1.0000
  O   O2        1.0  0.802844991221157  0.058316186239679296  0.5745826433694033  1.0000
  O   O3        1.0  0.6971572911794653  0.5583141178000942  0.5745829172873512  1.0000
  O   O4        1.0  0.1971508814429797  0.9416872478188695  0.42541791656297073  1.0000
  O   O5        1.0  0.9272418514524149  0.2939623461787163  0.41507094478930634  1.0000
  O   O6        1.0  0.42725990549729437  0.20602400807121057  0.5849264685979632  1.0000
  O   O7        1.0  0.07273597886067051  0.7060350978624754  0.5849220919138316  1.0000
  O   O8        1.0  0.5727259441331611  0.7939746715322683  0.41507992793994214  1.0000
