data_image0
_chemical_formula_structural       Hg2H36C40I4N8O4
_chemical_formula_sum              "Hg2 H36 C40 I4 N8 O4"
_cell_length_a       9.446674642833857
_cell_length_b       11.631270839937846
_cell_length_c       11.63140835489174
_cell_angle_alpha    110.03356735950715
_cell_angle_beta     93.1290352326187
_cell_angle_gamma    93.12896868327064

_space_group_name_H-M_alt    "P 1"
_space_group_IT_number       1

loop_
  _space_group_symop_operation_xyz
  'x, y, z'

loop_
  _atom_site_type_symbol
  _atom_site_label
  _atom_site_symmetry_multiplicity
  _atom_site_fract_x
  _atom_site_fract_y
  _atom_site_fract_z
  _atom_site_occupancy
  Hg  Hg1       1.0  0.5660321532394903  0.25716592467894367  0.9658222704163535  1.0000
  Hg  Hg2       1.0  0.06602564654339457  0.965821156585463  0.257163577783281  1.0000
  H   H1        1.0  0.7445534757255671  0.7799770180335912  0.7644271890702753  1.0000
  H   H2        1.0  0.2445481061447055  0.7644222859620343  0.7799630182352998  1.0000
  H   H3        1.0  0.9524476843906698  0.360499895915261  0.3668183172286135  1.0000
  H   H4        1.0  0.4524492216794442  0.36680750337749396  0.3604982776721641  1.0000
  H   H5        1.0  0.8505644099157478  0.286638110412227  0.8316276495601188  1.0000
  H   H6        1.0  0.35055035116324973  0.8316333138055045  0.28663141845046175  1.0000
  H   H7        1.0  0.03659583348110829  0.1685643248125004  0.7070904613109262  1.0000
  H   H8        1.0  0.5365811668568056  0.7070865059580457  0.16855709182893008  1.0000
  H   H9        1.0  0.040896993461110795  0.9445282585324224  0.670920104407216  1.0000
  H   H10       1.0  0.5408787935300056  0.6709175196023126  0.9445207827596107  1.0000
  H   H11       1.0  0.6733836048966708  0.9742030261553863  0.882142457139821  1.0000
  H   H12       1.0  0.17337291961781173  0.8821510763100804  0.9741983424980274  1.0000
  H   H13       1.0  0.8883370297272819  0.5544618658278821  0.6168171272154837  1.0000
  H   H14       1.0  0.38834612238395033  0.6168194990533493  0.5544681716819397  1.0000
  H   H15       1.0  0.8001080603719545  0.6003780480090697  0.7528514101394278  1.0000
  H   H16       1.0  0.3001156052069972  0.7528506905987485  0.6003813577897148  1.0000
  H   H17       1.0  0.9655596046048558  0.6676101189149081  0.9577903363379717  1.0000
  H   H18       1.0  0.465566603494011  0.9577973757464664  0.6676036150333928  1.0000
  H   H19       1.0  0.1434864604483295  0.5894277039193059  0.069464683922739  1.0000
  H   H20       1.0  0.643496313920025  0.0694661307544422  0.5894224182988097  1.0000
  H   H21       1.0  0.29332525647780006  0.4229107433318547  0.9522387841842955  1.0000
  H   H22       1.0  0.7933298184388419  0.952231989806151  0.4229120499583061  1.0000
  H   H23       1.0  0.26028486998459505  0.33897637930624575  0.7255037751460661  1.0000
  H   H24       1.0  0.7602915750302087  0.7254958745640679  0.3389792621553838  1.0000
  H   H25       1.0  0.15913334335770907  0.3356622273266369  0.5410710210028071  1.0000
  H   H26       1.0  0.6591444690047438  0.5410651391686161  0.33567365634642954  1.0000
  H   H27       1.0  0.09564215976508449  0.47268985786419665  0.5307588159643686  1.0000
  H   H28       1.0  0.59564892005114  0.5307563066006084  0.4726988955132184  1.0000
  H   H29       1.0  0.6997897585345498  0.16256509329757313  0.4676160792818749  1.0000
  H   H30       1.0  0.1997913002488829  0.46762180468632414  0.1625636399171242  1.0000
  H   H31       1.0  0.4949701953550162  0.0410333506146472  0.3237127903994761  1.0000
  H   H32       1.0  0.9949639729823757  0.32371966261092683  0.04104514130177254  1.0000
  H   H33       1.0  0.4504330534418202  0.0707904143655043  0.1196654363512266  1.0000
  H   H34       1.0  0.9504262870065432  0.11967068132423014  0.07080057469664071  1.0000
  H   H35       1.0  0.7913780998219196  0.3318643461633641  0.2000073161031537  1.0000
  H   H36       1.0  0.2913798312518523  0.20000099387534226  0.3318589563373138  1.0000
  C   C1        1.0  0.8560256043066018  0.1888564390194959  0.8149036353540638  1.0000
  C   C2        1.0  0.35601713141440433  0.814910244062361  0.1888544320459005  1.0000
  C   C3        1.0  0.9596559979055428  0.12272934468726504  0.7464219615972566  1.0000
  C   C4        1.0  0.45964621774596987  0.746424859664586  0.12272735866121566  1.0000
  C   C5        1.0  0.9620230310797023  0.9978190631736302  0.72591233916544  1.0000
  C   C6        1.0  0.46201472218697853  0.7259124549123116  0.9978195704335279  1.0000
  C   C7        1.0  0.8580794249075511  0.9416648442823644  0.7750122869597788  1.0000
  C   C8        1.0  0.3580657156489906  0.7750106698062142  0.9416552801906448  1.0000
  C   C9        1.0  0.7569847935727552  0.014634219059708202  0.8432970200948517  1.0000
  C   C10       1.0  0.2569725977634504  0.8432992327110043  0.01463141943716543  1.0000
  C   C11       1.0  0.9495161199526405  0.7377914642646886  0.729962756211016  1.0000
  C   C12       1.0  0.4494993226145283  0.7299619573227432  0.7377889801879361  1.0000
  C   C13       1.0  0.9041491561469785  0.605572381233259  0.7161265390531496  1.0000
  C   C14       1.0  0.40415765873861176  0.7161260906711179  0.6055753043629365  1.0000
  C   C15       1.0  0.013598764212836996  0.5511617989223653  0.777931564969954  1.0000
  C   C16       1.0  0.513597368609517  0.7779306562265164  0.5511605351091049  1.0000
  C   C17       1.0  0.031137639376637997  0.595902949396667  0.906285300068042  1.0000
  C   C18       1.0  0.5311436451139924  0.9062875793765954  0.5959002249978838  1.0000
  C   C19       1.0  0.1308949748628123  0.5509807683430524  0.9694518992742545  1.0000
  C   C20       1.0  0.6309019551593663  0.9694520421453704  0.5509768756745429  1.0000
  C   C21       1.0  0.21476184820287608  0.4592383120811405  0.9044459122792077  1.0000
  C   C22       1.0  0.7147708000309477  0.904438970873841  0.4592360601355879  1.0000
  C   C23       1.0  0.19711078931838702  0.41291906948102775  0.7765206771508063  1.0000
  C   C24       1.0  0.6971163827030155  0.776514153341623  0.41291839802948266  1.0000
  C   C25       1.0  0.09804695371904161  0.45828644627355447  0.7121784509674569  1.0000
  C   C26       1.0  0.5980525419192374  0.7121775144337619  0.4582872953782555  1.0000
  C   C27       1.0  0.0793786101607949  0.4028344777685504  0.5742615908377999  1.0000
  C   C28       1.0  0.5793804702499303  0.5742530746262207  0.4028371807361282  1.0000
  C   C29       1.0  0.9342214242822708  0.33212291245523323  0.5302140060761005  1.0000
  C   C30       1.0  0.4342298114761647  0.5302084173256747  0.3321228977741129  1.0000
  C   C31       1.0  0.7656506302548609  0.25305836321120273  0.3432097134940689  1.0000
  C   C32       1.0  0.2656546901454675  0.3432055923628639  0.2530605767685116  1.0000
  C   C33       1.0  0.6771502208941484  0.17258705142932482  0.3792622260688177  1.0000
  C   C34       1.0  0.17715255598973562  0.37926209290630924  0.17258958989140893  1.0000
  C   C35       1.0  0.5632509754518651  0.10581417474941193  0.2985979696262433  1.0000
  C   C36       1.0  0.06324993617839429  0.29860045688280223  0.10581958495414769  1.0000
  C   C37       1.0  0.5378943996314263  0.1216377992357067  0.18596571470173018  1.0000
  C   C38       1.0  0.037889615280946  0.18596646076709086  0.1216412765298358  1.0000
  C   C39       1.0  0.7297230270195809  0.26638539504546804  0.23004813027657184  1.0000
  C   C40       1.0  0.2297210861240018  0.23004507164088747  0.2663844643162676  1.0000
  I   I1        1.0  0.7091745154382424  0.48150907863547593  0.041616199793757906  1.0000
  I   I2        1.0  0.2091678782451822  0.041624239437439314  0.48151031580178477  1.0000
  I   I3        1.0  0.3245044730837207  0.11382825390013102  0.8773956518648305  1.0000
  I   I4        1.0  0.8244974352853374  0.877401666361962  0.11381387691394451  1.0000
  N   N1        1.0  0.7568148370758507  0.13480905327195103  0.8623413179969432  1.0000
  N   N2        1.0  0.25680624529927343  0.8623486124877004  0.13480181904795066  1.0000
  N   N3        1.0  0.8447376429188083  0.8158956225616483  0.7563908886628213  1.0000
  N   N4        1.0  0.34474246874246  0.756390106586217  0.8158930310351664  1.0000
  N   N5        1.0  0.888063709570595  0.31999855518959924  0.41161717438922096  1.0000
  N   N6        1.0  0.388071156311824  0.4116138208668121  0.31999883686889774  1.0000
  N   N7        1.0  0.6194089262130049  0.20263873679193273  0.15446298885116513  1.0000
  N   N8        1.0  0.11940249705821768  0.15446275614795013  0.20264446710656608  1.0000
  O   O1        1.0  0.0738095061043751  0.7700902078644207  0.7165679475716972  1.0000
  O   O2        1.0  0.5738207805461853  0.7165665712967596  0.7701039419933693  1.0000
  O   O3        1.0  0.8647602113700897  0.2889534754088032  0.5942994283851419  1.0000
  O   O4        1.0  0.36477029046303494  0.5942986141461689  0.28895730754332755  1.0000
