data_image0
_chemical_formula_structural       Yb2H22C18N2O18
_chemical_formula_sum              "Yb2 H22 C18 N2 O18"
_cell_length_a       7.29502843984634
_cell_length_b       9.366976521429992
_cell_length_c       11.332609814860028
_cell_angle_alpha    73.07754295054276
_cell_angle_beta     71.19654966354501
_cell_angle_gamma    71.96498788113021

_space_group_name_H-M_alt    "P 1"
_space_group_IT_number       1

loop_
  _space_group_symop_operation_xyz
  'x, y, z'

loop_
  _atom_site_type_symbol
  _atom_site_label
  _atom_site_symmetry_multiplicity
  _atom_site_fract_x
  _atom_site_fract_y
  _atom_site_fract_z
  _atom_site_occupancy
  Yb  Yb1       1.0  0.8984167325192307  0.45208295689484135  0.2774367413395566  1.0000
  Yb  Yb2       1.0  0.10158703334960241  0.5479181086141551  0.7225589957264874  1.0000
  H   H1        1.0  0.32382860686338694  0.39561585871249605  0.12915389221469553  1.0000
  H   H2        1.0  0.6761716521033708  0.6043834149739381  0.8708447017797455  1.0000
  H   H3        1.0  0.18648823816673857  0.3820591381270191  0.0454908488741239  1.0000
  H   H4        1.0  0.813509056215146  0.617943287424417  0.9545087133309309  1.0000
  H   H5        1.0  0.08360353407409345  0.13639685836375287  0.41937443572430777  1.0000
  H   H6        1.0  0.9163848102214163  0.8636034758307503  0.5806337116984112  1.0000
  H   H7        1.0  0.9613844657946801  0.1380890281839626  0.3263938866582734  1.0000
  H   H8        1.0  0.038618585657161385  0.8619087965318784  0.6736056566026677  1.0000
  H   H9        1.0  0.526422167116074  0.4885715544311255  0.2500886897312995  1.0000
  H   H10       1.0  0.4735830486523579  0.511425360067186  0.7499098948702709  1.0000
  H   H11       1.0  0.45084917574720146  0.5116893110564648  0.3954902302657857  1.0000
  H   H12       1.0  0.5491534755704989  0.488309634483109  0.6045093177707699  1.0000
  H   H13       1.0  0.587248076720293  0.24574510741229005  0.7407735395507161  1.0000
  H   H14       1.0  0.41275118841556224  0.7542594814261819  0.25922603231116886  1.0000
  H   H15       1.0  0.6024123282066612  0.05884883493115466  0.7545243038520582  1.0000
  H   H16       1.0  0.3975881373316242  0.9411523914361126  0.24547525368295456  1.0000
  H   H17       1.0  0.8194564000579664  0.9872014381058778  0.2212841005147581  1.0000
  H   H18       1.0  0.18054435790315193  0.012796258501587917  0.7787202172044799  1.0000
  H   H19       1.0  0.7606783945069039  0.8539804905978773  0.9051678652329969  1.0000
  H   H20       1.0  0.23931714870144566  0.146026750532755  0.09483458271257922  1.0000
  H   H21       1.0  0.6196139071033213  0.33376869263096154  0.9126751410495333  1.0000
  H   H22       1.0  0.38038817198044944  0.6662330766267602  0.08732632923975811  1.0000
  C   C1        1.0  0.8425512481603551  0.7418261710787917  0.1367107105975194  1.0000
  C   C2        1.0  0.15744487573583393  0.25817184953812955  0.8632888323994621  1.0000
  C   C3        1.0  0.7918474211702532  0.9049023986454758  0.07023245213  1.0000
  C   C4        1.0  0.2081524805880122  0.09509525464437023  0.9297680449618966  1.0000
  C   C5        1.0  0.781208989652484  0.019544337908527602  0.1302994669198512  1.0000
  C   C6        1.0  0.21879528366461895  0.980448753725945  0.8697010111751311  1.0000
  C   C7        1.0  0.7498599859319061  0.944115125354536  0.9515078505562045  1.0000
  C   C8        1.0  0.2501378936928234  0.05588950266415079  0.04849172125289411  1.0000
  C   C9        1.0  0.6933123622666315  0.09858204875065715  0.8906864847002327  1.0000
  C   C10       1.0  0.3066798032137827  0.9014244388833106  0.10931500437480682  1.0000
  C   C11       1.0  0.6718325170430004  0.2130938657113291  0.954542964569555  1.0000
  C   C12       1.0  0.3281717478201858  0.786905622718706  0.04545849622128632  1.0000
  C   C13       1.0  0.7172013307304258  0.17326208223258985  0.07269907483853902  1.0000
  C   C14       1.0  0.2828019916814242  0.8267335833336131  0.927304279445707  1.0000
  C   C15       1.0  0.6928100521076674  0.2971200543484541  0.1386030143621468  1.0000
  C   C16       1.0  0.307189699013641  0.7028779312256502  0.861400349367763  1.0000
  C   C17       1.0  0.11080185500745186  0.48356248077233493  0.46379991875029003  1.0000
  C   C18       1.0  0.8891919753980135  0.5164354117362108  0.5362043987049958  1.0000
  N   N1        1.0  0.6613541447063225  0.13493071995105047  0.7698244864810562  1.0000
  N   N2        1.0  0.33864451372386395  0.8650730370303211  0.23017412661587855  1.0000
  O   O1        1.0  0.8865919013991574  0.7072487558167921  0.2437661665597659  1.0000
  O   O2        1.0  0.11340739365343919  0.29274806561596023  0.7562333717671735  1.0000
  O   O3        1.0  0.8372214972851566  0.6322684318150421  0.09121833313390232  1.0000
  O   O4        1.0  0.162780547326875  0.36772968186743793  0.9087802561377033  1.0000
  O   O5        1.0  0.5392121139230001  0.4085682087559946  0.1391475078308204  1.0000
  O   O6        1.0  0.46078877321225054  0.5914305261773762  0.8608529940894841  1.0000
  O   O7        1.0  0.8273422907965868  0.2854025094252606  0.19325110469466722  1.0000
  O   O8        1.0  0.17266226688661848  0.7146027112318265  0.8067456055159851  1.0000
  O   O9        1.0  0.18731451082242503  0.39042058035745  0.1313912641679167  1.0000
  O   O10       1.0  0.8126857266815081  0.6095800639391414  0.8686063806656109  1.0000
  O   O11       1.0  0.9608007519089912  0.18634802780103135  0.39269342019894543  1.0000
  O   O12       1.0  0.039198285192519076  0.8136559789667575  0.6073042389614544  1.0000
  O   O13       1.0  0.15700794310388497  0.4340066914609295  0.36348229539456167  1.0000
  O   O14       1.0  0.8429910465169643  0.5659886335462191  0.6365105508913801  1.0000
  O   O15       1.0  0.22921004133522158  0.5098056361970721  0.5121453876669548  1.0000
  O   O16       1.0  0.7707797057764196  0.4901911272129453  0.48785128365242514  1.0000
  O   O17       1.0  0.5567976521991798  0.5274640357590741  0.3148637753520447  1.0000
  O   O18       1.0  0.44320577792398574  0.47253403874318445  0.6851348139723541  1.0000
