data_image0
_chemical_formula_structural       Cd2H32C44N4O8
_chemical_formula_sum              "Cd2 H32 C44 N4 O8"
_cell_length_a       10.169960665238921
_cell_length_b       10.042627834612968
_cell_length_c       11.585331249652814
_cell_angle_alpha    71.90626510107428
_cell_angle_beta     88.6327892052651
_cell_angle_gamma    64.81638865254784

_space_group_name_H-M_alt    "P 1"
_space_group_IT_number       1

loop_
  _space_group_symop_operation_xyz
  'x, y, z'

loop_
  _atom_site_type_symbol
  _atom_site_label
  _atom_site_symmetry_multiplicity
  _atom_site_fract_x
  _atom_site_fract_y
  _atom_site_fract_z
  _atom_site_occupancy
  Cd  Cd1       1.0  0.15178224791174702  0.3911461024172026  0.4272819740503238  1.0000
  Cd  Cd2       1.0  0.8481959648041978  0.6088663240639532  0.5727461141534392  1.0000
  H   H1        1.0  0.1581337046429994  0.281386837350908  0.7264083694987847  1.0000
  H   H2        1.0  0.8418578314669035  0.7186282377357784  0.2736011644007164  1.0000
  H   H3        1.0  0.24675214924666727  0.036940965835682994  0.9078067570846144  1.0000
  H   H4        1.0  0.7532589970777009  0.9630624473801389  0.09221495587858898  1.0000
  H   H5        1.0  0.3880618627206971  0.7789586232822001  0.8762557812520555  1.0000
  H   H6        1.0  0.6119421343524393  0.22104209930429156  0.12375058527729273  1.0000
  H   H7        1.0  0.494208010100472  0.6306847991715472  0.7288708530707596  1.0000
  H   H8        1.0  0.5057925102971055  0.36931073394292463  0.2711535766184526  1.0000
  H   H9        1.0  0.5194718151445628  0.6328675874918446  0.5164212768762511  1.0000
  H   H10       1.0  0.4805340966972196  0.3671286624238021  0.4835923750952916  1.0000
  H   H11       1.0  0.4740790674734398  0.7800418732664766  0.2947006212588974  1.0000
  H   H12       1.0  0.5259423371958079  0.21995554846578355  0.7053224615982501  1.0000
  H   H13       1.0  0.3571744691079104  0.0407342731349587  0.1240537378808781  1.0000
  H   H14       1.0  0.6428400545728579  0.959269787765386  0.8759538398312331  1.0000
  H   H15       1.0  0.22210754849104575  0.28324610574486525  0.179129290602873  1.0000
  H   H16       1.0  0.7778859017627795  0.7167665897374246  0.8208800057631793  1.0000
  H   H17       1.0  0.23329970593506735  0.6628667445124421  0.7265247894049623  1.0000
  H   H18       1.0  0.7667068034415011  0.3372021941610015  0.27342604772759665  1.0000
  H   H19       1.0  0.06131967013194388  0.6575501766797841  0.7316839424760744  1.0000
  H   H20       1.0  0.9387002282753444  0.3425090710647892  0.26830032007841714  1.0000
  H   H21       1.0  0.11127767137184459  0.7848212653248652  0.41339803753800913  1.0000
  H   H22       1.0  0.8886895005399964  0.21522305562037758  0.586562383318551  1.0000
  H   H23       1.0  0.008077376980189442  0.9440965604917577  0.7235020140333931  1.0000
  H   H24       1.0  0.9918918012834154  0.055947802212095596  0.2764609091225481  1.0000
  H   H25       1.0  0.2964292474718492  0.6369337746415622  0.07163067174958129  1.0000
  H   H26       1.0  0.7036065138321206  0.36298112836001906  0.9283763700348757  1.0000
  H   H27       1.0  0.15450855661991622  0.6216838615181998  0.9959495779847672  1.0000
  H   H28       1.0  0.8455255647919413  0.3782231988265252  0.004066737085700813  1.0000
  H   H29       1.0  0.9389129034555735  0.8491137093466319  0.8949115220350594  1.0000
  H   H30       1.0  0.0611157924442338  0.1508029900970342  0.1050745349386943  1.0000
  H   H31       1.0  0.21133749089372617  0.864236873660843  0.1636779507341259  1.0000
  H   H32       1.0  0.7886851199475517  0.13569275450191745  0.8363071319323512  1.0000
  C   C1        1.0  0.21817290447996376  0.16740346397919834  0.7154852141317392  1.0000
  C   C2        1.0  0.7818141782299365  0.8326085895757698  0.28453660212142756  1.0000
  C   C3        1.0  0.2696122331081412  0.029727824254038592  0.8171200563562664  1.0000
  C   C4        1.0  0.7303870452986915  0.9702759402871234  0.1829054579595209  1.0000
  C   C5        1.0  0.34622086830108145  0.8880066602427235  0.7991393849796253  1.0000
  C   C6        1.0  0.6537755269734403  0.1120016792011782  0.20088144129745442  1.0000
  C   C7        1.0  0.3692850630256359  0.8831352809556988  0.6794913629753054  1.0000
  C   C8        1.0  0.6307077002276459  0.11686941492175146  0.3205228988051942  1.0000
  C   C9        1.0  0.44605729568105074  0.7410824130947802  0.6535561640091743  1.0000
  C   C10       1.0  0.5539297227687427  0.2589119352455853  0.3464596266257374  1.0000
  C   C11       1.0  0.46101668483224506  0.7412971853589808  0.5360651880530227  1.0000
  C   C12       1.0  0.5389882586458725  0.2586991667885599  0.46395106132200686  1.0000
  C   C13       1.0  0.40048810749245695  0.8845862059311145  0.43550966891735504  1.0000
  C   C14       1.0  0.5995247305046335  0.11540775509764248  0.5645095736521739  1.0000
  C   C15       1.0  0.4131046453645484  0.8894509688612754  0.31268620942829983  1.0000
  C   C16       1.0  0.586903784399368  0.11054432091695789  0.6873354009478447  1.0000
  C   C17       1.0  0.35040193775354583  0.0321148984536208  0.21993220247816234  1.0000
  C   C18       1.0  0.6496020367361766  0.9678836489922841  0.780079121324711  1.0000
  C   C19       1.0  0.2756333583443151  0.1687654150782194  0.24974711343313064  1.0000
  C   C20       1.0  0.7243512337664627  0.8312344078290221  0.7502559356543657  1.0000
  C   C21       1.0  0.32489104279741804  0.028835420622094394  0.45730386868089573  1.0000
  C   C22       1.0  0.6751110175483889  0.9711655064281927  0.5427076926554265  1.0000
  C   C23       1.0  0.31012852443362965  0.028189214036998995  0.5819356487434035  1.0000
  C   C24       1.0  0.6898660530196776  0.9718106535150141  0.4180747804367684  1.0000
  C   C25       1.0  0.19392268881111352  0.5514447650948994  0.6106384323382487  1.0000
  C   C26       1.0  0.8060772306775233  0.4485906004524621  0.389353599977845  1.0000
  C   C27       1.0  0.13975590067448002  0.6780212244710525  0.6696709618592678  1.0000
  C   C28       1.0  0.8602467864032947  0.32203292135250894  0.3302895448039465  1.0000
  C   C29       1.0  0.06779363174368314  0.8428744675207938  0.5799417100813997  1.0000
  C   C30       1.0  0.9321862491824646  0.15718014193132027  0.42001952571328616  1.0000
  C   C31       1.0  0.06310152661738755  0.878053184327996  0.45277982174457787  1.0000
  C   C32       1.0  0.9368790544096726  0.12199199309480949  0.5471789753578022  1.0000
  C   C33       1.0  0.004185394878753361  0.9676564247255898  0.6249948503392346  1.0000
  C   C34       1.0  0.9957750352934696  0.032395027832542694  0.3749654595849989  1.0000
  C   C35       1.0  0.15145619847555034  0.5741260937220288  0.18996940866107082  1.0000
  C   C36       1.0  0.848533060023378  0.4258642165248574  0.8100310749286451  1.0000
  C   C37       1.0  0.17970520489186004  0.6631828456077073  0.06579802034638499  1.0000
  C   C38       1.0  0.8203119717101045  0.3367592018229359  0.9342069383307462  1.0000
  C   C39       1.0  0.08692235297292693  0.8368242468149841  0.032080877140011045  1.0000
  C   C40       1.0  0.9131006706170908  0.16312360321387587  0.9678902043594563  1.0000
  C   C41       1.0  0.9662577001547561  0.9154263138027261  0.9410249924353522  1.0000
  C   C42       1.0  0.03375299934916141  0.08451889482088858  0.05896546690105001  1.0000
  C   C43       1.0  0.11895323545027031  0.9237595980257465  0.09127440801064067  1.0000
  C   C44       1.0  0.8810723518534329  0.076189549080425  0.9087022403220218  1.0000
  N   N1        1.0  0.23870014434918832  0.16581845235716489  0.6020048560542648  1.0000
  N   N2        1.0  0.7612880881436084  0.8341829484081272  0.3980131357394967  1.0000
  N   N3        1.0  0.2641488842187343  0.16704419656775119  0.36477478911115213  1.0000
  N   N4        1.0  0.7358434953558017  0.8329486660751542  0.6352343258455805  1.0000
  O   O1        1.0  0.326265546761526  0.46276285369486186  0.6199919072197205  1.0000
  O   O2        1.0  0.6737359518531179  0.5373018081281628  0.379968147732697  1.0000
  O   O3        1.0  0.09155275258284232  0.5447318566532715  0.5495068514450026  1.0000
  O   O4        1.0  0.9084408726036204  0.4552660747802689  0.4505154085823833  1.0000
  O   O5        1.0  0.048205073169732854  0.5347482888286803  0.19440043277777627  1.0000
  O   O6        1.0  0.9517747229142658  0.4652543024527773  0.8056132117557552  1.0000
  O   O7        1.0  0.23635312454720048  0.5436058845845293  0.28431816060124504  1.0000
  O   O8        1.0  0.7636301696735045  0.45638239882638487  0.7156883257042496  1.0000
