data_image0
_chemical_formula_structural       Al2H12C26Cl2O10F2
_chemical_formula_sum              "Al2 H12 C26 Cl2 O10 F2"
_cell_length_a       6.639361957178763
_cell_length_b       11.206805224667228
_cell_length_c       15.113186048803005
_cell_angle_alpha    82.61411054970422
_cell_angle_beta     81.25690212072348
_cell_angle_gamma    71.57675519823934

_space_group_name_H-M_alt    "P 1"
_space_group_IT_number       1

loop_
  _space_group_symop_operation_xyz
  'x, y, z'

loop_
  _atom_site_type_symbol
  _atom_site_label
  _atom_site_symmetry_multiplicity
  _atom_site_fract_x
  _atom_site_fract_y
  _atom_site_fract_z
  _atom_site_occupancy
  Al  Al1       1.0  0.4980308358911784  0.4999682279417358  0.5027115178725124  1.0000
  Al  Al2       1.0  0.9983071749506961  0.4987728502472138  0.5032938096515591  1.0000
  H   H1        1.0  0.306181487038458  0.35040305449577147  0.5653823180218112  1.0000
  H   H2        1.0  0.6871524502723929  0.6543979239346456  0.4572534820516339  1.0000
  H   H3        1.0  0.7419678364481401  0.6131980529978377  0.9477835115668183  1.0000
  H   H4        1.0  0.2020939199496398  0.4243097036029295  0.05308009831566811  1.0000
  H   H5        1.0  0.6070077620979929  0.5688598708562794  0.2426118443989651  1.0000
  H   H6        1.0  0.7186882401240455  0.5691723691531648  0.08030466872273222  1.0000
  H   H7        1.0  0.42775692972822543  0.3981100842727584  0.7655133071152207  1.0000
  H   H8        1.0  0.3291060192999923  0.38838490931881603  0.9290141147062768  1.0000
  H   H9        1.0  0.21776035064974053  0.23843103835120869  0.38317256234596186  1.0000
  H   H10       1.0  0.5416095009829434  0.125987138716134  0.2893349346357893  1.0000
  H   H11       1.0  0.42082001004344977  0.7718314609358072  0.3785353144513905  1.0000
  H   H12       1.0  0.6412540835734574  0.8915321205330426  0.285499404625881  1.0000
  C   C1        1.0  0.8628962798046232  0.2751084794188969  0.4928472510110993  1.0000
  C   C2        1.0  0.7002142786959669  0.49680792809223107  0.6643625404537941  1.0000
  C   C3        1.0  0.13430044995093485  0.7255093620232741  0.5043897863210061  1.0000
  C   C4        1.0  0.2953036170718947  0.5016064527801517  0.341034980470063  1.0000
  C   C5        1.0  0.6484559908658624  0.5022259223558478  0.7636961269559206  1.0000
  C   C6        1.0  0.3466374953692792  0.4959134469556261  0.2415991393429451  1.0000
  C   C7        1.0  0.7372545801670755  0.5617629420205432  0.8175088913159668  1.0000
  C   C8        1.0  0.6745801583818433  0.5617410494799842  0.909998788681598  1.0000
  C   C9        1.0  0.23732912361614916  0.4527367881270196  0.18559062648524355  1.0000
  C   C10       1.0  0.2952353522722149  0.45650180088244247  0.0928096770419558  1.0000
  C   C11       1.0  0.5187696976732425  0.5381936355977855  0.1996077500603377  1.0000
  C   C12       1.0  0.5794739833699579  0.5391161367552328  0.10776574021128481  1.0000
  C   C13       1.0  0.4985622453853438  0.4426585653087969  0.8071399123923013  1.0000
  C   C14       1.0  0.4414139517541855  0.43928874209771623  0.8992398405026591  1.0000
  C   C15       1.0  0.5277539447266693  0.49990565152504735  0.9530892308089917  1.0000
  C   C16       1.0  0.46704116375286014  0.49922979112687915  0.05155623772588311  1.0000
  C   C17       1.0  0.9373230778769324  0.1347949498044088  0.48995699926784647  1.0000
  C   C18       1.0  0.13265414420350646  0.07015474036222709  0.4385734452543914  1.0000
  C   C19       1.0  0.812391088763263  0.06570073051572221  0.5386536294169558  1.0000
  C   C20       1.0  0.2633012538170831  0.13630642777577862  0.3838609294115614  1.0000
  C   C21       1.0  0.4444330717242906  0.07298892494652158  0.3310573447657957  1.0000
  C   C22       1.0  0.06530625701613962  0.8667189872523834  0.49490688279854567  1.0000
  C   C23       1.0  0.8764354585078633  0.9327783292968161  0.5418175308874708  1.0000
  C   C24       1.0  0.1945640247047963  0.9349484672793122  0.4394425991357095  1.0000
  C   C25       1.0  0.37892811936885096  0.8733581180576522  0.382160654933017  1.0000
  C   C26       1.0  0.5012437520172457  0.9407874220314338  0.32931560093588524  1.0000
  Cl  Cl1       1.0  0.9193758344674807  0.6418891272977375  0.7745478578103826  1.0000
  Cl  Cl2       1.0  0.03125795363459358  0.38953875345704614  0.22552019066868206  1.0000
  O   O1        1.0  0.6705784049889161  0.33171411006979656  0.4790935071541325  1.0000
  O   O2        1.0  0.8767986687682806  0.5110756501631145  0.6269446584366989  1.0000
  O   O3        1.0  0.999173225053532  0.6716035304242638  0.4932278493980036  1.0000
  O   O4        1.0  0.43078896562609964  0.528094429877008  0.3805957385959146  1.0000
  O   O5        1.0  0.3246875955357922  0.6703970667606995  0.5217440176472579  1.0000
  O   O6        1.0  0.12195653177775519  0.483467312555895  0.37930584463176586  1.0000
  O   O7        1.0  0.9960616518776462  0.3266932847674581  0.5101131211726865  1.0000
  O   O8        1.0  0.5615679342356471  0.4740430819700806  0.624507918830133  1.0000
  O   O9        1.0  0.2682042186958071  0.43794179215982604  0.5411060355030626  1.0000
  O   O10       1.0  0.7283051128845486  0.5627573968401122  0.4644000385517373  1.0000
  F   F1        1.0  0.7497251466114959  0.873240158140746  0.5956872367794828  1.0000
  F   F2        1.0  0.628103092277257  0.12181585330976219  0.5895589134055896  1.0000
