data_image0
_chemical_formula_structural       Zr6H22C48Br6O32
_chemical_formula_sum              "Zr6 H22 C48 Br6 O32"
_cell_length_a       14.800232715829438
_cell_length_b       14.795879728457876
_cell_length_c       14.800553220018902
_cell_angle_alpha    60.00758607646462
_cell_angle_beta     60.00206196162615
_cell_angle_gamma    59.99852412196048

_space_group_name_H-M_alt    "P 1"
_space_group_IT_number       1

loop_
  _space_group_symop_operation_xyz
  'x, y, z'

loop_
  _atom_site_type_symbol
  _atom_site_label
  _atom_site_symmetry_multiplicity
  _atom_site_fract_x
  _atom_site_fract_y
  _atom_site_fract_z
  _atom_site_occupancy
  Zr  Zr1       1.0  0.8797628293035873  0.879851749088118  0.6201443898176322  1.0000
  Zr  Zr2       1.0  0.11860191021833806  0.11870693234736507  0.38128271311152423  1.0000
  Zr  Zr3       1.0  0.11806366422811009  0.8793427616044199  0.6206944370693179  1.0000
  Zr  Zr4       1.0  0.8793108144223538  0.11821853661228947  0.38168734649062946  1.0000
  Zr  Zr5       1.0  0.11881488233564876  0.8808176679152664  0.3801722046455396  1.0000
  Zr  Zr6       1.0  0.8797272644944697  0.11979186185899236  0.6191941843225877  1.0000
  H   H1        1.0  0.09332262922232819  0.7172575373137704  0.5947675929214213  1.0000
  H   H2        1.0  0.09331908313037468  0.09333793110701552  0.21872909905020071  1.0000
  H   H3        1.0  0.09297685682840046  0.09340668061263813  0.5946258364018034  1.0000
  H   H4        1.0  0.7170802652151808  0.0933180114979422  0.5946496259310194  1.0000
  H   H5        1.0  0.853134660153323  0.5815040050743789  0.644382821934762  1.0000
  H   H6        1.0  0.14339967331162035  0.5909999784006033  0.3545856631593125  1.0000
  H   H7        1.0  0.8607936552718057  0.4116566527195359  0.6372473875962184  1.0000
  H   H8        1.0  0.5824106367260529  0.8519230336222209  0.922236308568749  1.0000
  H   H9        1.0  0.5925408653464503  0.14194128042300486  0.9123924515334493  1.0000
  H   H10       1.0  0.41344325986902675  0.858954516733199  0.09227973066517582  1.0000
  H   H11       1.0  0.14331748939763844  0.8536590095087535  0.08193106557322949  1.0000
  H   H12       1.0  0.8535177833949419  0.144009764321062  0.0914940492992925  1.0000
  H   H13       1.0  0.13624396658840263  0.8613874458226788  0.9119968741525851  1.0000
  H   H14       1.0  0.5825578040855036  0.42199164232397357  0.6426748076550197  1.0000
  H   H15       1.0  0.5926788786995659  0.4117656786739872  0.35271542847597454  1.0000
  H   H16       1.0  0.41333856430033933  0.5920147910232031  0.6346272580798527  1.0000
  H   H17       1.0  0.14223086272175323  0.5816983108701733  0.9224571978198455  1.0000
  H   H18       1.0  0.8524385564820278  0.5914199756592351  0.9123599984147078  1.0000
  H   H19       1.0  0.13496163827425536  0.41184292976717524  0.09182295488059818  1.0000
  H   H20       1.0  0.5811644023392619  0.1425981802214267  0.3535642913059932  1.0000
  H   H21       1.0  0.5910084802786673  0.8527082213134988  0.6437234825228728  1.0000
  H   H22       1.0  0.41166574534724293  0.1350713668808509  0.36107192602731436  1.0000
  C   C1        1.0  0.9955299138107279  0.6987828132334922  0.49883694349941254  1.0000
  C   C2        1.0  0.3059717956523757  0.999605628556189  0.1994061603147371  1.0000
  C   C3        1.0  0.999194568138549  0.3062361490454109  0.4947744852132061  1.0000
  C   C4        1.0  0.6984032548870049  0.9957507724568867  0.8066257425919761  1.0000
  C   C5        1.0  0.9971722379433534  0.6985288719120388  0.8075782679807733  1.0000
  C   C6        1.0  0.6980154516973799  0.9975030734003453  0.4967927091432999  1.0000
  C   C7        1.0  0.9936954952932741  0.3052407792187281  0.1996232616686838  1.0000
  C   C8        1.0  0.3051148949793615  0.9935749225160392  0.5010810729436416  1.0000
  C   C9        1.0  0.3056051145583255  0.6986803521096832  0.4947082930890474  1.0000
  C   C10       1.0  0.9936717108894871  0.9998179641144916  0.8067298283732  1.0000
  C   C11       1.0  0.6984930141836188  0.30616212764854817  0.4986575903022086  1.0000
  C   C12       1.0  0.9977310294580379  0.9958225012625092  0.19931310049019393  1.0000
  C   C13       1.0  0.004162019470101063  0.4064444748729272  0.4918337497017903  1.0000
  C   C14       1.0  0.9972164452169708  0.5970807016821524  0.49840386167861783  1.0000
  C   C15       1.0  0.08508630009450974  0.4575400405651918  0.4121683912284482  1.0000
  C   C16       1.0  0.9173586955069551  0.5465632059609503  0.5794552446451817  1.0000
  C   C17       1.0  0.08101763885483142  0.5518233259252128  0.4158277687887093  1.0000
  C   C18       1.0  0.921672438420849  0.4527846040512243  0.5752837007445848  1.0000
  C   C19       1.0  0.4068451826313506  0.0039009860203406445  0.09789290180619757  1.0000
  C   C20       1.0  0.5974510629402516  0.9967189577447614  0.9077540580948168  1.0000
  C   C21       1.0  0.45809626436278  0.08471176887204727  0.045583163871903275  1.0000
  C   C22       1.0  0.5472680429063036  0.9164841700261233  0.9575368117483903  1.0000
  C   C23       1.0  0.5525902437677105  0.08030712030933526  0.9519928998344087  1.0000
  C   C24       1.0  0.45368429154579104  0.9207396842086694  0.05128287726373048  1.0000
  C   C25       1.0  0.990757905515622  0.004770506155757873  0.906905985375964  1.0000
  C   C26       1.0  0.997457763488164  0.9977887576335004  0.09746862442456455  1.0000
  C   C27       1.0  0.9110023070097737  0.08566659901005366  0.9581329290010958  1.0000
  C   C28       1.0  0.07847291518885421  0.9179462998573623  0.04688893911223595  1.0000
  C   C29       1.0  0.91487100036224  0.08163057589761281  0.05228019061893012  1.0000
  C   C30       1.0  0.0742989366663453  0.9223191227007418  0.9531107724343143  1.0000
  C   C31       1.0  0.4067519854715088  0.5973708625806892  0.4908646254008958  1.0000
  C   C32       1.0  0.5976424812021436  0.4073924674314355  0.49742872831074453  1.0000
  C   C33       1.0  0.45804570903519004  0.5449745492534958  0.41115642656632195  1.0000
  C   C34       1.0  0.5474471720599042  0.45730940069747567  0.5779538424333239  1.0000
  C   C35       1.0  0.5527029449518182  0.4514824000023197  0.4146172963196619  1.0000
  C   C36       1.0  0.4537197619529963  0.5509516416303555  0.5736158168351367  1.0000
  C   C37       1.0  0.9902988918236203  0.40606541773073707  0.0980263715560951  1.0000
  C   C38       1.0  0.9966422457953997  0.5970846974463341  0.9082237462088757  1.0000
  C   C39       1.0  0.9105145794572563  0.45728213375080884  0.04578344241027567  1.0000
  C   C40       1.0  0.0774682325736506  0.5466284939223768  0.957828019791073  1.0000
  C   C41       1.0  0.9140966600636062  0.5518322641944945  0.9522325217728493  1.0000
  C   C42       1.0  0.07342616552379877  0.45267801867973384  0.05128490757920185  1.0000
  C   C43       1.0  0.405817716943574  0.9903684629370699  0.5053244660647422  1.0000
  C   C44       1.0  0.5965870178293289  0.9969590813492673  0.49803929859174195  1.0000
  C   C45       1.0  0.4570394300440557  0.9107141144957182  0.5860955959795858  1.0000
  C   C46       1.0  0.5461836803512911  0.07774701525179485  0.4180148652633734  1.0000
  C   C47       1.0  0.5514249397373235  0.9143107920972113  0.5817543456922606  1.0000
  C   C48       1.0  0.4523756144715137  0.0735586879288164  0.4223958551347522  1.0000
  Br  Br1       1.0  0.2067643405104961  0.4078587173371204  0.2942508725613705  1.0000
  Br  Br2       1.0  0.40836765267451375  0.20657235921817835  0.0913189908919918  1.0000
  Br  Br3       1.0  0.7921585841602977  0.20668972470152616  0.9096338174253803  1.0000
  Br  Br4       1.0  0.4079829544504605  0.5896409828726235  0.29396411861546307  1.0000
  Br  Br5       1.0  0.7926131282034989  0.40788217286582534  0.09108279083406479  1.0000
  Br  Br6       1.0  0.4074948376351843  0.792689159766027  0.7079380680635553  1.0000
  O   O1        1.0  0.919020240645956  0.7367405935763072  0.5767514066599659  1.0000
  O   O2        1.0  0.2643823431994221  0.07338001375985209  0.2430875187420511  1.0000
  O   O3        1.0  0.07350198706731705  0.26421920429574186  0.41938188385408637  1.0000
  O   O4        1.0  0.7367732832250623  0.9188800598967858  0.7675455249085487  1.0000
  O   O5        1.0  0.07464306787601789  0.7370417893998958  0.7683062059577211  1.0000
  O   O6        1.0  0.7362099146523775  0.07517365175369398  0.4203197735269129  1.0000
  O   O7        1.0  0.918250168942791  0.2633178613548139  0.24250703537008883  1.0000
  O   O8        1.0  0.2634780336175666  0.9177653635418395  0.5752286477205288  1.0000
  O   O9        1.0  0.2641559904295933  0.7423206703418683  0.4187337178755398  1.0000
  O   O10       1.0  0.9187002566219604  0.07470928355908063  0.7643321209752116  1.0000
  O   O11       1.0  0.7373103092708109  0.26736096945544563  0.5758171386406374  1.0000
  O   O12       1.0  0.07568172307812637  0.919403310762135  0.23724165564440375  1.0000
  O   O13       1.0  0.07153101071622821  0.9218001681190344  0.7696518974744605  1.0000
  O   O14       1.0  0.7371717212246128  0.26519300000198603  0.4233745357336575  1.0000
  O   O15       1.0  0.9206655112074102  0.07158629292885614  0.23993945470354566  1.0000
  O   O16       1.0  0.2668908981531358  0.7340056798479752  0.5743206891595776  1.0000
  O   O17       1.0  0.9208533477399214  0.7381996772425125  0.7675200061550455  1.0000
  O   O18       1.0  0.26700842952752873  0.07250056739188443  0.42433503014181173  1.0000
  O   O19       1.0  0.07240019270378181  0.2672560382183562  0.23589219291820035  1.0000
  O   O20       1.0  0.7378668637591662  0.9209705002388373  0.5733690877352162  1.0000
  O   O21       1.0  0.7375136277712574  0.07292924914472827  0.7661351056980835  1.0000
  O   O22       1.0  0.07164399718722332  0.7390160490747705  0.42204897464868196  1.0000
  O   O23       1.0  0.26748005182673745  0.9231729844678326  0.23492653982474102  1.0000
  O   O24       1.0  0.9216591925075264  0.2687451943499397  0.5730475234435916  1.0000
  O   O25       1.0  0.7972672254416155  0.06655214229107297  0.5679092480436553  1.0000
  O   O26       1.0  0.06621505334934603  0.06665406788735602  0.5679440594141525  1.0000
  O   O27       1.0  0.06654088233923265  0.06637724403748278  0.2988918528328385  1.0000
  O   O28       1.0  0.06633702043924904  0.7974654764391785  0.568132847063012  1.0000
  O   O29       1.0  0.1473413831025283  0.9497211540737921  0.4515203557778875  1.0000
  O   O30       1.0  0.9495497077827794  0.9493040626846605  0.4510795206670295  1.0000
  O   O31       1.0  0.9494724086254964  0.14807203457669957  0.4509802617730188  1.0000
  O   O32       1.0  0.9493401018636688  0.9498660953136662  0.6494643283520601  1.0000
