data_image0
_chemical_formula_structural       K4H32C32N4O20
_chemical_formula_sum              "K4 H32 C32 N4 O20"
_cell_length_a       4.345751115005634
_cell_length_b       7.79673951200078
_cell_length_c       27.56865132703379
_cell_angle_alpha    90.00002154790222
_cell_angle_beta     90.0001781504162
_cell_angle_gamma    89.99995278548452

_space_group_name_H-M_alt    "P 1"
_space_group_IT_number       1

loop_
  _space_group_symop_operation_xyz
  'x, y, z'

loop_
  _atom_site_type_symbol
  _atom_site_label
  _atom_site_symmetry_multiplicity
  _atom_site_fract_x
  _atom_site_fract_y
  _atom_site_fract_z
  _atom_site_occupancy
  K   K1        1.0  0.6280157782713971  0.5213594650656218  0.9783131821347052  1.0000
  K   K2        1.0  0.8719802123096869  0.47863737075075347  0.4783138078348513  1.0000
  K   K3        1.0  0.1280210985685102  0.9786359885827024  0.021686671931078594  1.0000
  K   K4        1.0  0.371982251817613  0.02136175436042719  0.5216861127705172  1.0000
  H   H1        1.0  0.30790976753504395  0.5860707255527018  0.25836675337468756  1.0000
  H   H2        1.0  0.19209594895843193  0.41392861537887177  0.7583657849553944  1.0000
  H   H3        1.0  0.807901509340823  0.9139272094281733  0.7416357279998563  1.0000
  H   H4        1.0  0.6921013195351263  0.0860795716855804  0.2416333219982718  1.0000
  H   H5        1.0  0.9332195171217278  0.4906653184588876  0.2639569465414482  1.0000
  H   H6        1.0  0.5667814508509463  0.5093312317030508  0.7639570150039885  1.0000
  H   H7        1.0  0.43321429566802994  0.009332495523423702  0.7360430040856798  1.0000
  H   H8        1.0  0.0667840773272701  0.9906693808366424  0.23604317177107956  1.0000
  H   H9        1.0  0.7811045760991177  0.6838614490590658  0.1924695632099116  1.0000
  H   H10       1.0  0.7188972832767603  0.3161311580755282  0.6924693230136751  1.0000
  H   H11       1.0  0.28109801636080073  0.8161352158264775  0.8075310913690925  1.0000
  H   H12       1.0  0.21890406743124657  0.1838706035601092  0.30753052254149077  1.0000
  H   H13       1.0  0.4463678166553393  0.4526725272692432  0.11364914596838097  1.0000
  H   H14       1.0  0.05363964828821819  0.5473253382233096  0.6136492120187711  1.0000
  H   H15       1.0  0.9463583439824744  0.047327845760335704  0.8863504483731787  1.0000
  H   H16       1.0  0.5536473386130112  0.9526778456146019  0.3863498801221751  1.0000
  H   H17       1.0  0.629824557517999  0.7643104189205089  0.07449894266423478  1.0000
  H   H18       1.0  0.8701703733262817  0.2356884439434737  0.5744976799032671  1.0000
  H   H19       1.0  0.12982964566307229  0.7356863164719911  0.9255005495575046  1.0000
  H   H20       1.0  0.37017476444010106  0.26431196459716233  0.4255007888920872  1.0000
  H   H21       1.0  0.5052604911495067  0.046770815972813316  0.1514845043901758  1.0000
  H   H22       1.0  0.9947382589156174  0.9532307146572946  0.6514841043177029  1.0000
  H   H23       1.0  0.005254539923718899  0.4532271974781635  0.8485155991534369  1.0000
  H   H24       1.0  0.49473914767914795  0.5467722635899362  0.34851556680848716  1.0000
  H   H25       1.0  0.8868254280191079  0.9932471223640178  0.13387442869474597  1.0000
  H   H26       1.0  0.6131706736941709  0.0067492544499856005  0.6338744665600301  1.0000
  H   H27       1.0  0.38682047438743433  0.5067482106573635  0.8661251895235083  1.0000
  H   H28       1.0  0.11317816267105478  0.4932487087017917  0.3661256898916747  1.0000
  H   H29       1.0  0.7122826038631302  0.21172044269351178  0.0837852057380317  1.0000
  H   H30       1.0  0.7877194134079203  0.7882771499570821  0.5837850493939527  1.0000
  H   H31       1.0  0.212278227898949  0.2882774742657546  0.9162149993020632  1.0000
  H   H32       1.0  0.287719095797982  0.7117233596056424  0.41621488296814846  1.0000
  C   C1        1.0  0.2133848365232254  0.3920498631704561  0.20145824145500765  1.0000
  C   C2        1.0  0.28661515556957073  0.6079468367508981  0.7014573399690391  1.0000
  C   C3        1.0  0.7133850495055468  0.1079493358621448  0.7985430523191892  1.0000
  C   C4        1.0  0.7866119982667782  0.8920588036761286  0.2985415036587327  1.0000
  C   C5        1.0  0.11548488136647708  0.5275924664597367  0.238559422958552  1.0000
  C   C6        1.0  0.38451584234287844  0.47240941325272706  0.7385589178151759  1.0000
  C   C7        1.0  0.6154769285654708  0.9724094059700404  0.7614415131533504  1.0000
  C   C8        1.0  0.8845193875929453  0.027594836364777095  0.26144064620579843  1.0000
  C   C9        1.0  0.013985224635753498  0.6309241156031077  0.1937646841767133  1.0000
  C   C10       1.0  0.4860192179437418  0.36907385665242737  0.693764217828864  1.0000
  C   C11       1.0  0.5139737034823354  0.869079086723339  0.806236564903287  1.0000
  C   C12       1.0  0.9860257971085744  0.1309277804798725  0.30623575868730757  1.0000
  C   C13       1.0  0.24294842763062258  0.5353930537043468  0.11890361941337348  1.0000
  C   C14       1.0  0.2570591409267279  0.4646035362027305  0.6189034136831423  1.0000
  C   C15       1.0  0.7429405446406533  0.9646061941403656  0.8810966537279014  1.0000
  C   C16       1.0  0.7570673354518219  0.03539820764539311  0.38109608785102  1.0000
  C   C17       1.0  0.06106916074902099  0.5212666460545137  0.0705569943283137  1.0000
  C   C18       1.0  0.4389374544401434  0.47873244460081565  0.570557241997541  1.0000
  C   C19       1.0  0.5610783182561079  0.9787249910349091  0.9294442778398418  1.0000
  C   C20       1.0  0.9389466229074015  0.021265366712576395  0.4294419859747548  1.0000
  C   C21       1.0  0.3480280843049428  0.7153503140730777  0.13301678616900145  1.0000
  C   C22       1.0  0.15197055815627178  0.2846462946428759  0.6330157843580508  1.0000
  C   C23       1.0  0.8480224862305263  0.7846488847940805  0.8669831757590811  1.0000
  C   C24       1.0  0.6519759111716751  0.21535678077451342  0.3669840283848629  1.0000
  C   C25       1.0  0.5420310545083495  0.8167310923282045  0.10839358162569107  1.0000
  C   C26       1.0  0.9579645447239427  0.18326909829158208  0.6083927190743804  1.0000
  C   C27       1.0  0.042033249535251095  0.6832669665729509  0.8916069557456721  1.0000
  C   C28       1.0  0.45797509439323386  0.3167312693279457  0.3916065182267444  1.0000
  C   C29       1.0  0.6438477494731957  0.9932548664671826  0.12179833407252968  1.0000
  C   C30       1.0  0.8561481140923702  0.006746624603195501  0.6217974028686226  1.0000
  C   C31       1.0  0.14384073288950816  0.5067431449796943  0.8782015277522672  1.0000
  C   C32       1.0  0.3561535401075773  0.4932563556481781  0.3782017845141468  1.0000
  N   N1        1.0  0.07919354576927158  0.4822208943752742  0.16257600662131466  1.0000
  N   N2        1.0  0.42080798068800357  0.5177757537312146  0.6625755240858167  1.0000
  N   N3        1.0  0.5791854524342099  0.017779649791918897  0.8374248586305127  1.0000
  N   N4        1.0  0.9208169642709977  0.9822246937973559  0.3374237480658095  1.0000
  O   O1        1.0  0.36170221984244927  0.25950852763507726  0.20179524772748172  1.0000
  O   O2        1.0  0.13828397229195838  0.740488172737585  0.7017928366669464  1.0000
  O   O3        1.0  0.8617114375252726  0.24048931967919165  0.7982072069564836  1.0000
  O   O4        1.0  0.6382717970298799  0.7595201020018648  0.2982052087752009  1.0000
  O   O5        1.0  0.1385858463053324  0.6211173183495191  0.0364530652347739  1.0000
  O   O6        1.0  0.36141779527230256  0.378877879096791  0.5364529015706907  1.0000
  O   O7        1.0  0.6385820151553004  0.8788806955489079  0.9635464312802282  1.0000
  O   O8        1.0  0.8614136842331773  0.12112509870162569  0.4635477393166453  1.0000
  O   O9        1.0  0.8571295280788648  0.40546292300675196  0.06734592721463167  1.0000
  O   O10       1.0  0.6428721650242507  0.5945346477372268  0.5673464047556036  1.0000
  O   O11       1.0  0.3571234573930083  0.0945387742031869  0.9326543488389232  1.0000
  O   O12       1.0  0.14287419047434466  0.9054684945124123  0.432654182055053  1.0000
  O   O13       1.0  0.6149254729984647  0.097781808667861  0.07863621157984817  1.0000
  O   O14       1.0  0.88507184053676  0.9022170597094572  0.5786357523277131  1.0000
  O   O15       1.0  0.11492563480774011  0.40221487108055237  0.9213643084611431  1.0000
  O   O16       1.0  0.38507409153228167  0.5977821218900773  0.4213642277636254  1.0000
  O   O17       1.0  0.22918367516643195  0.7609091593134919  0.17784194822877444  1.0000
  O   O18       1.0  0.27082045342195465  0.2390862265481886  0.6778409998492021  1.0000
  O   O19       1.0  0.729174958436296  0.7390888123601229  0.8221590436255042  1.0000
  O   O20       1.0  0.770824856144955  0.2609167934744505  0.3221588711616547  1.0000
