data_image0
_chemical_formula_structural       Mg2H24C28O12F4
_chemical_formula_sum              "Mg2 H24 C28 O12 F4"
_cell_length_a       6.569190807861607
_cell_length_b       7.284583376571164
_cell_length_c       15.943666772128772
_cell_angle_alpha    109.48437150003227
_cell_angle_beta     90.0008635542337
_cell_angle_gamma    89.99950012526898

_space_group_name_H-M_alt    "P 1"
_space_group_IT_number       1

loop_
  _space_group_symop_operation_xyz
  'x, y, z'

loop_
  _atom_site_type_symbol
  _atom_site_label
  _atom_site_symmetry_multiplicity
  _atom_site_fract_x
  _atom_site_fract_y
  _atom_site_fract_z
  _atom_site_occupancy
  Mg  Mg1       1.0  0.9999917856806277  0.4999980201969265  9.200805663917019e-07  1.0000
  Mg  Mg2       1.0  0.4999992538925042  0.9999929227302644  0.9999982329029108  1.0000
  H   H1        1.0  0.9291735334604851  0.1486589895860106  0.73113751546353  1.0000
  H   H2        1.0  0.4291952405967763  0.3513613523739635  0.26885491263251277  1.0000
  H   H3        1.0  0.0708294643737304  0.8513542988947902  0.26886405556032855  1.0000
  H   H4        1.0  0.5708245020934513  0.648660935002816  0.7311408290759898  1.0000
  H   H5        1.0  0.8279976867568378  0.9828311444730032  0.5711804261134857  1.0000
  H   H6        1.0  0.3280057791806001  0.5171876773843491  0.42881905575640633  1.0000
  H   H7        1.0  0.17201444478813946  0.017180267421124988  0.42881840260265136  1.0000
  H   H8        1.0  0.6720109190178574  0.4828267453192294  0.5711807659696291  1.0000
  H   H9        1.0  0.23426931294235934  0.8680112004275314  0.6561745350406838  1.0000
  H   H10       1.0  0.7342300859998474  0.6319762882625426  0.3438159558748237  1.0000
  H   H11       1.0  0.7657336856667314  0.13198381162344927  0.3438197949712887  1.0000
  H   H12       1.0  0.2657607346423916  0.36800412816162975  0.6561847845299766  1.0000
  H   H13       1.0  0.334743503612401  0.031080892981215375  0.8153232966925827  1.0000
  H   H14       1.0  0.8347146374958924  0.46890166773061276  0.18466437164882168  1.0000
  H   H15       1.0  0.6652564502576156  0.9689187942347315  0.18467348523408586  1.0000
  H   H16       1.0  0.1652731387970832  0.5310768717972393  0.815333626236324  1.0000
  H   H17       1.0  0.3545317908577275  0.5883483799469004  0.9716930981314745  1.0000
  H   H18       1.0  0.8545406165036057  0.9116484822839436  0.028312664260752657  1.0000
  H   H19       1.0  0.6454514176941545  0.4116530050021153  0.02831395093905799  1.0000
  H   H20       1.0  0.14545933740600958  0.08834458034556288  0.9716870899148731  1.0000
  H   H21       1.0  0.3721457460339009  0.3577535741220074  0.9325663404786013  1.0000
  H   H22       1.0  0.8721480954371968  0.14224254125504388  0.0674328434976914  1.0000
  H   H23       1.0  0.6278420293184721  0.6422451186545785  0.06744164088510018  1.0000
  H   H24       1.0  0.1278442471545489  0.8577506273158589  0.9325675522601741  1.0000
  C   C1        1.0  0.6388658205219996  0.10122531235883508  0.7828592181605031  1.0000
  C   C2        1.0  0.1388774082079536  0.398765743441487  0.21712134916592157  1.0000
  C   C3        1.0  0.36112652136957024  0.8987845742277685  0.21714760128669033  1.0000
  C   C4        1.0  0.8611286347691305  0.6012349716687807  0.7828730416157441  1.0000
  C   C5        1.0  0.7777538339962788  0.08687453084654345  0.7140916168278365  1.0000
  C   C6        1.0  0.2777298417171323  0.41314200313991717  0.285910475171164  1.0000
  C   C7        1.0  0.2222567752560991  0.9131318148365679  0.2859110014333268  1.0000
  C   C8        1.0  0.7222685896549519  0.5868611192703667  0.7140898665182434  1.0000
  C   C9        1.0  0.7230627448757971  0.9962228798665506  0.6256600850847249  1.0000
  C   C10       1.0  0.2230259774616528  0.5038100148645057  0.37434123509112976  1.0000
  C   C11       1.0  0.2769402530798217  0.003789984074550997  0.3743389190803157  1.0000
  C   C12       1.0  0.7769663643459808  0.49620794858774525  0.6256627877149581  1.0000
  C   C13       1.0  0.5280155772940985  0.9188234672432924  0.6077643312879744  1.0000
  C   C14       1.0  0.027991615445948494  0.5811773675096247  0.3922426160749381  1.0000
  C   C15       1.0  0.4719995994473293  0.0811674005495888  0.3922307555417817  1.0000
  C   C16       1.0  0.9720144270291724  0.4188238057501223  0.607763149963553  1.0000
  C   C17       1.0  0.3849049687479677  0.9319600305541155  0.6738292779386725  1.0000
  C   C18       1.0  0.8849100813606441  0.5680184740956449  0.32615186643403143  1.0000
  C   C19       1.0  0.6151025967877501  0.06803703709196898  0.3261602696508418  1.0000
  C   C20       1.0  0.11509291750973459  0.4319626519728885  0.6738445577876249  1.0000
  C   C21       1.0  0.44188702191176776  0.024081890323735398  0.762174488368359  1.0000
  C   C22       1.0  0.9418836636929767  0.47590976714294436  0.23782175289678512  1.0000
  C   C23       1.0  0.5581235878074792  0.975918931037583  0.23782054420749427  1.0000
  C   C24       1.0  0.05812237918593869  0.5240835079112429  0.7621792848142163  1.0000
  C   C25       1.0  0.703150284156507  0.20064704304813563  0.8766397694665  1.0000
  C   C26       1.0  0.20313693359659618  0.2993673619199483  0.12336118508717678  1.0000
  C   C27       1.0  0.2968511915392398  0.7993632347006352  0.12336080860045227  1.0000
  C   C28       1.0  0.7968614979085019  0.7006314036527357  0.876638629778661  1.0000
  O   O1        1.0  0.8768646197750057  0.2781207842532395  0.8925267550779736  1.0000
  O   O2        1.0  0.3768596062097629  0.2218910489133492  0.10748012452724248  1.0000
  O   O3        1.0  0.12312011085939639  0.721888996004907  0.1074794225220543  1.0000
  O   O4        1.0  0.6231312138280953  0.7781109394289841  0.8925219665659581  1.0000
  O   O5        1.0  0.5735195207822129  0.20867498466591877  0.9397905074683592  1.0000
  O   O6        1.0  0.0735455121500266  0.2913039958339282  0.06020370708506558  1.0000
  O   O7        1.0  0.4264697774159316  0.7913177592878639  0.06020732137770318  1.0000
  O   O8        1.0  0.9264620530914341  0.7086876147099089  0.9397958716151604  1.0000
  O   O9        1.0  0.279548411121759  0.46798347024733994  0.9369008819447656  1.0000
  O   O10       1.0  0.7795551931504008  0.03202072207854909  0.0631035428697828  1.0000
  O   O11       1.0  0.720436319701619  0.5320165685961056  0.06310663325909618  1.0000
  O   O12       1.0  0.2204417161111891  0.9679766973111511  0.9368967380764129  1.0000
  F   F1        1.0  0.47509436224583373  0.8229852355049018  0.5212437584118205  1.0000
  F   F2        1.0  0.9750929797268169  0.676997927934728  0.47873235831666955  1.0000
  F   F3        1.0  0.5249269029748049  0.1770192336302472  0.4787561175681176  1.0000
  F   F4        1.0  0.024914585729462098  0.3229955258182429  0.5212611544522189  1.0000
