data_image0
_chemical_formula_structural       Ag2H8C22S6N4O6F6
_chemical_formula_sum              "Ag2 H8 C22 S6 N4 O6 F6"
_cell_length_a       9.794946049985109
_cell_length_b       9.83746400128861
_cell_length_c       9.794458988384037
_cell_angle_alpha    67.54163753727308
_cell_angle_beta     77.69416497529913
_cell_angle_gamma    80.12528962003017

_space_group_name_H-M_alt    "P 1"
_space_group_IT_number       1

loop_
  _space_group_symop_operation_xyz
  'x, y, z'

loop_
  _atom_site_type_symbol
  _atom_site_label
  _atom_site_symmetry_multiplicity
  _atom_site_fract_x
  _atom_site_fract_y
  _atom_site_fract_z
  _atom_site_occupancy
  Ag  Ag1       1.0  0.38006847359114454  0.8496503321627387  0.9884342017285878  1.0000
  Ag  Ag2       1.0  0.619938038410602  0.15034702940565836  0.011564644531183912  1.0000
  H   H1        1.0  0.5203822911246833  0.7769323285362049  0.47261276672787744  1.0000
  H   H2        1.0  0.4796146638003125  0.22306848906222143  0.5273849607668808  1.0000
  H   H3        1.0  0.6771323702085185  0.6462428990839585  0.6841681329080348  1.0000
  H   H4        1.0  0.3228692348629778  0.3537601452020099  0.31582103067317757  1.0000
  H   H5        1.0  0.8225603201061628  0.48082663303896556  0.8502468258105227  1.0000
  H   H6        1.0  0.17743015860193628  0.51915987414759  0.14976103958677095  1.0000
  H   H7        1.0  0.007778796006448394  0.2649254277376087  0.9835954562046397  1.0000
  H   H8        1.0  0.992213591637345  0.7350666087952717  0.016407073453414914  1.0000
  C   C1        1.0  0.5528624749151447  0.6564339436706208  0.24845458963448416  1.0000
  C   C2        1.0  0.44712859458889653  0.34356142320506683  0.7515468818734165  1.0000
  C   C3        1.0  0.625051515092288  0.6181647090545256  0.36840769722235217  1.0000
  C   C4        1.0  0.3749375565599848  0.3818273496261001  0.6315972819513364  1.0000
  C   C5        1.0  0.5981415462709592  0.682924580886052  0.4769823379906839  1.0000
  C   C6        1.0  0.4018526581894193  0.3170740903087862  0.5230144623642944  1.0000
  C   C7        1.0  0.6810258937767131  0.6125571491175849  0.5895406315961155  1.0000
  C   C8        1.0  0.31897239210021416  0.3874448014805055  0.41045241601034393  1.0000
  C   C9        1.0  0.771637232288228  0.4940470966114391  0.5678732098434125  1.0000
  C   C10       1.0  0.2283585823291574  0.5059526090272897  0.4321271156480934  1.0000
  C   C11       1.0  0.8670208683120533  0.3973779972199408  0.6659240545614937  1.0000
  C   C12       1.0  0.13297817017772934  0.6026227915866827  0.33407342785053373  1.0000
  C   C13       1.0  0.8815250276164975  0.3993847402824998  0.8041719833552605  1.0000
  C   C14       1.0  0.11846613720971527  0.600610637113171  0.19582844720686401  1.0000
  C   C15       1.0  0.980466478227399  0.2872717558301261  0.8744439201803831  1.0000
  C   C16       1.0  0.019526023601514526  0.7127290877919633  0.12555742031714348  1.0000
  C   C17       1.0  0.04243102539766847  0.2006913708791203  0.7887447028147536  1.0000
  C   C18       1.0  0.9575643190149773  0.7993105138309319  0.2112579583863976  1.0000
  C   C19       1.0  0.14453980063004224  0.08053623133091041  0.8259617497306095  1.0000
  C   C20       1.0  0.8554621853747832  0.9194689565905064  0.17403170891043376  1.0000
  C   C21       1.0  0.7283024401167211  0.9787493308158663  0.6170963475532716  1.0000
  C   C22       1.0  0.27170294403427425  0.0212534836908347  0.3829078175077286  1.0000
  S   S1        1.0  0.7542881564166992  0.4710288075420764  0.40621246238344366  1.0000
  S   S2        1.0  0.2457037578193138  0.5289642922265045  0.5937938374938626  1.0000
  S   S3        1.0  0.9768007667657485  0.2577565740343104  0.623237870380109  1.0000
  S   S4        1.0  0.02320632642280172  0.7422462997163635  0.37675888551910935  1.0000
  S   S5        1.0  0.7436345535338236  0.8794135003896316  0.8192278295854013  1.0000
  S   S6        1.0  0.25637860290782305  0.12059038178127683  0.18076883844757677  1.0000
  N   N1        1.0  0.4866864049993752  0.689002354100751  0.15235836457527796  1.0000
  N   N2        1.0  0.5133113886068302  0.31099186316381383  0.8476386014651922  1.0000
  N   N3        1.0  0.2308973613030362  0.9812041438640404  0.8588577342240388  1.0000
  N   N4        1.0  0.7691030077833504  0.018799879497763104  0.1411435271426172  1.0000
  O   O1        1.0  0.6219801441230571  0.9533968139543707  0.890391196505448  1.0000
  O   O2        1.0  0.37803146865631726  0.0465960017720519  0.10961381603173244  1.0000
  O   O3        1.0  0.8792912737874797  0.9107381289405441  0.8313183441783284  1.0000
  O   O4        1.0  0.12071546338145112  0.08927573097066953  0.1686795582700071  1.0000
  O   O5        1.0  0.7298538017410081  0.7261679830116777  0.8446738991449934  1.0000
  O   O6        1.0  0.27017611533808866  0.27383456350911933  0.15532120179000947  1.0000
  F   F1        1.0  0.8395804667938053  0.9398409921518935  0.52577893650232  1.0000
  F   F2        1.0  0.16041888293151624  0.060170856455144375  0.4742124058384152  1.0000
  F   F3        1.0  0.6094179527454316  0.9489723455880398  0.5868187336659928  1.0000
  F   F4        1.0  0.3905840040766435  0.05102490136832221  0.4131960944044765  1.0000
  F   F5        1.0  0.7198199877388589  0.12810640370157958  0.5795199332451447  1.0000
  F   F6        1.0  0.2801749849942681  0.8718987864353951  0.4204825882102625  1.0000
