data_image0
_chemical_formula_structural       H16Pb2C20O14
_chemical_formula_sum              "H16 Pb2 C20 O14"
_cell_length_a       6.58693090281786
_cell_length_b       8.186842788880265
_cell_length_c       10.744474293429635
_cell_angle_alpha    80.52191251274748
_cell_angle_beta     76.708324389611
_cell_angle_gamma    81.19445739435571

_space_group_name_H-M_alt    "P 1"
_space_group_IT_number       1

loop_
  _space_group_symop_operation_xyz
  'x, y, z'

loop_
  _atom_site_type_symbol
  _atom_site_label
  _atom_site_symmetry_multiplicity
  _atom_site_fract_x
  _atom_site_fract_y
  _atom_site_fract_z
  _atom_site_occupancy
  H   H1        1.0  0.6539795250135472  0.22291881044426287  0.29338531687662334  1.0000
  H   H2        1.0  0.3460115817955582  0.7770751977424482  0.7066041642897289  1.0000
  H   H3        1.0  0.6851259516476207  0.9994715589675425  0.11931296929062533  1.0000
  H   H4        1.0  0.3148806275248008  0.0005234821535325005  0.8806732986930116  1.0000
  H   H5        1.0  0.25118677039677106  0.9014808904399275  0.23718568641692875  1.0000
  H   H6        1.0  0.7488115018124617  0.09852931423450433  0.7628146642952629  1.0000
  H   H7        1.0  0.8486238460693514  0.5278942569165397  0.16998767417170066  1.0000
  H   H8        1.0  0.1513925189906615  0.4720846240900373  0.8300198024887919  1.0000
  H   H9        1.0  0.912269540572396  0.7054932248449152  0.9255536660584411  1.0000
  H   H10       1.0  0.08774567299766292  0.29449440087091017  0.0744547001484079  1.0000
  H   H11       1.0  0.2669125458313175  0.7270380575984278  0.04160365873546109  1.0000
  H   H12       1.0  0.7331089546021659  0.2729731407145053  0.9584007833545698  1.0000
  H   H13       1.0  0.6015122363354167  0.043977460400562114  0.5947022560728074  1.0000
  H   H14       1.0  0.3984903584887861  0.9560239081523464  0.40529026140513474  1.0000
  H   H15       1.0  0.6893015180174873  0.21506317979257972  0.5349743804707146  1.0000
  H   H16       1.0  0.31068997419863115  0.7849395809542659  0.465019498713218  1.0000
  Pb  Pb1       1.0  0.2398614472963629  0.35775759907685517  0.5607488405987057  1.0000
  Pb  Pb2       1.0  0.760132819379358  0.6422476432158394  0.439248055015497  1.0000
  C   C1        1.0  0.048530839728250896  0.18096844007128252  0.3936358140381699  1.0000
  C   C2        1.0  0.9514551247539559  0.8190406473974438  0.6063617368775239  1.0000
  C   C3        1.0  0.9819286724993506  0.09649173554453229  0.3013310994715539  1.0000
  C   C4        1.0  0.018058280828157094  0.9035098544188642  0.6986654230590686  1.0000
  C   C5        1.0  0.7837010843607006  0.13047013463674523  0.26085353213937873  1.0000
  C   C6        1.0  0.2162881407959533  0.8695263815297096  0.7391349550043742  1.0000
  C   C7        1.0  0.7929202469932906  0.0234630538177427  0.17470791396494434  1.0000
  C   C8        1.0  0.20708944490549186  0.9765319601594912  0.825279786709011  1.0000
  C   C9        1.0  0.09718841834305182  0.9701620141026908  0.2362377472559416  1.0000
  C   C10       1.0  0.9028011532881667  0.029843297469518897  0.763760722157542  1.0000
  C   C11       1.0  0.37915459303596327  0.5310310396047627  0.2814312970506165  1.0000
  C   C12       1.0  0.6208323538028113  0.4689705574995673  0.7185661561887003  1.0000
  C   C13       1.0  0.5060571280212754  0.5985695530202266  0.1567666460494692  1.0000
  C   C14       1.0  0.4939395930205563  0.4014282781683392  0.8432429674464715  1.0000
  C   C15       1.0  0.7313808372275333  0.590959442580896  0.11647535428549115  1.0000
  C   C16       1.0  0.26861449009576444  0.4090371549756783  0.8835336817040087  1.0000
  C   C17       1.0  0.7707587503644362  0.6770119650031887  0.9953808188118957  1.0000
  C   C18       1.0  0.2292578504354311  0.3229769014855536  0.0046290556100813925  1.0000
  C   C19       1.0  0.4257029497244887  0.6888663777931828  0.055781226282178326  1.0000
  C   C20       1.0  0.5743215189639842  0.311133639240147  0.9442326273709867  1.0000
  O   O1        1.0  0.9135352120061812  0.28329333599164397  0.4569159001184603  1.0000
  O   O2        1.0  0.08645044665297516  0.7167182244620848  0.5430785809937363  1.0000
  O   O3        1.0  0.2389578685604548  0.1500310333446038  0.4085936956043668  1.0000
  O   O4        1.0  0.7610241634834694  0.8499843244284551  0.5914026591361152  1.0000
  O   O5        1.0  0.984360560974558  0.9238823388953962  0.1590571115479662  1.0000
  O   O6        1.0  0.015642515294814502  0.0761152951867246  0.8409367531548142  1.0000
  O   O7        1.0  0.18389330373128138  0.5349813741826851  0.2965930544014909  1.0000
  O   O8        1.0  0.8161084441330715  0.4650138861776016  0.703414332263911  1.0000
  O   O9        1.0  0.48197613044705173  0.46932207587337876  0.37237789983590364  1.0000
  O   O10       1.0  0.5180165461288269  0.5306708357790627  0.6276338428141912  1.0000
  O   O11       1.0  0.5843084475982893  0.7387020877982309  0.9572226307906888  1.0000
  O   O12       1.0  0.41569614133214833  0.26130689393492196  0.04279096193643987  1.0000
  O   O13       1.0  0.5624656372753308  0.16652021161819164  0.5904153618798773  1.0000
  O   O14       1.0  0.4375311616313979  0.833477533879119  0.4095830831117837  1.0000
