data_image0
_chemical_formula_structural       Zn2H56C56N8O12
_chemical_formula_sum              "Zn2 H56 C56 N8 O12"
_cell_length_a       9.332635334113428
_cell_length_b       11.47633396697083
_cell_length_c       13.090017625813905
_cell_angle_alpha    90.00068454671015
_cell_angle_beta     89.99882943801528
_cell_angle_gamma    97.95981882117088

_space_group_name_H-M_alt    "P 1"
_space_group_IT_number       1

loop_
  _space_group_symop_operation_xyz
  'x, y, z'

loop_
  _atom_site_type_symbol
  _atom_site_label
  _atom_site_symmetry_multiplicity
  _atom_site_fract_x
  _atom_site_fract_y
  _atom_site_fract_z
  _atom_site_occupancy
  Zn  Zn1       1.0  0.769078887747959  0.8513031742123756  0.9928011494450433  1.0000
  Zn  Zn2       1.0  0.23092481483155322  0.14869628573520538  0.49280285321631834  1.0000
  H   H1        1.0  0.9838014378907328  0.0766773734948458  0.9756175462142664  1.0000
  H   H2        1.0  0.01620083780161955  0.9233175157906072  0.475616754811476  1.0000
  H   H3        1.0  0.9930076721167467  0.29374729745725137  0.9895651201393321  1.0000
  H   H4        1.0  0.007001138345344739  0.7062503139586479  0.4895683029519233  1.0000
  H   H5        1.0  0.5285298871844262  0.23666197292781982  0.02993162593386961  1.0000
  H   H6        1.0  0.4714735582870374  0.7633397449344695  0.529928779814604  1.0000
  H   H7        1.0  0.5382546721202885  0.0230029184186549  0.0056898273355657  1.0000
  H   H8        1.0  0.4617437456875281  0.9769968367192803  0.5056878324126188  1.0000
  H   H9        1.0  0.9813424399675055  0.455131175241341  0.07200120476147731  1.0000
  H   H10       1.0  0.018666881164676883  0.5448682743354495  0.5720134038947934  1.0000
  H   H11       1.0  0.9777202273697579  0.6719079648816332  0.06222697797397101  1.0000
  H   H12       1.0  0.0222836803560966  0.32808967580575643  0.5622376188384807  1.0000
  H   H13       1.0  0.5599808062102197  0.6278304330076591  0.9506098196114579  1.0000
  H   H14       1.0  0.440020740629592  0.37216244168647705  0.4506008665631072  1.0000
  H   H15       1.0  0.5427080680215325  0.4097182508943644  0.9567142204009613  1.0000
  H   H16       1.0  0.45729775738622885  0.5902755248219763  0.4567080612221873  1.0000
  H   H17       1.0  0.7064206491353104  0.9787523133142029  0.22699200047517115  1.0000
  H   H18       1.0  0.29358479339332894  0.02124437460368259  0.7269908692194704  1.0000
  H   H19       1.0  0.5413858279800862  0.871163566921808  0.1256505373163606  1.0000
  H   H20       1.0  0.4586196696283692  0.12884088468397434  0.6256496412254223  1.0000
  H   H21       1.0  0.6102439560896186  0.7489199706619658  0.1394629724444627  1.0000
  H   H22       1.0  0.3897514748355633  0.25107855682924907  0.6394674210382904  1.0000
  H   H23       1.0  0.7515634966120003  0.8559476547123309  0.37776851678153633  1.0000
  H   H24       1.0  0.24842683129114104  0.14404281696134547  0.8777754442813189  1.0000
  H   H25       1.0  0.5687310397333859  0.8331214087744526  0.3359309853087211  1.0000
  H   H26       1.0  0.4312723320764248  0.16686937767493493  0.8359400554718948  1.0000
  H   H27       1.0  0.9121822338187826  0.698721724052703  0.33868177184047005  1.0000
  H   H28       1.0  0.08781439332171458  0.3012735668768513  0.8386835320508582  1.0000
  H   H29       1.0  0.918301614738773  0.48348207158148426  0.31935900692339203  1.0000
  H   H30       1.0  0.08170178201135057  0.5165120685593222  0.8193547064794731  1.0000
  H   H31       1.0  0.4690599320811656  0.43363832194415136  0.23520936329813946  1.0000
  H   H32       1.0  0.5309492619712657  0.5663451913777279  0.7352165704857683  1.0000
  H   H33       1.0  0.459774649802611  0.6447843598942594  0.264694072000502  1.0000
  H   H34       1.0  0.5402298059384519  0.35520127020045317  0.764705808397906  1.0000
  H   H35       1.0  0.6101808593800655  0.27895279729739997  0.2501784695240161  1.0000
  H   H36       1.0  0.3898294035682639  0.7210387930919138  0.7501817249825464  1.0000
  H   H37       1.0  0.7922022822563902  0.9538100187052975  0.7435398200182989  1.0000
  H   H38       1.0  0.20780007204778878  0.046195686456570684  0.24352474699102092  1.0000
  H   H39       1.0  0.9642423079950148  0.9364511685448489  0.8437331386337945  1.0000
  H   H40       1.0  0.03576743640647349  0.06354051507964438  0.3437329918784187  1.0000
  H   H41       1.0  0.9459986104112372  0.7921759258484111  0.8494063063743343  1.0000
  H   H42       1.0  0.05399691514858769  0.20781508031302554  0.3494127501288915  1.0000
  H   H43       1.0  0.784053290576601  0.83226888669445  0.6031406549594607  1.0000
  H   H44       1.0  0.21595335006599467  0.16775559295759018  0.10314124968694931  1.0000
  H   H45       1.0  0.9528882126474512  0.826495471541527  0.6607382403397821  1.0000
  H   H46       1.0  0.04711600434824699  0.17351905249896757  0.16074366194990122  1.0000
  H   H47       1.0  0.708940460307133  0.6649433779375042  0.5158218834605677  1.0000
  H   H48       1.0  0.29104851295998907  0.33508214022076993  0.0158345879955633  1.0000
  H   H49       1.0  0.6743198037590544  0.4488697322362681  0.4942641216395458  1.0000
  H   H50       1.0  0.3256591311570105  0.5511582016689118  0.9942886932719335  1.0000
  H   H51       1.0  0.8562621062562528  0.4122141009811528  0.7923347695464927  1.0000
  H   H52       1.0  0.14372257654813578  0.5877905275747537  0.2923698494655511  1.0000
  H   H53       1.0  0.8982121472876727  0.6261300896239204  0.8118183667847347  1.0000
  H   H54       1.0  0.10179398765821189  0.3738718774910694  0.3118464746173615  1.0000
  H   H55       1.0  0.7973524510613854  0.2579815414762833  0.6757913882455924  1.0000
  H   H56       1.0  0.20260809214323666  0.7420309402359282  0.17582645544239742  1.0000
  C   C1        1.0  0.8851661448877902  0.11605838354346079  0.9862242668689519  1.0000
  C   C2        1.0  0.11483633727265638  0.8839392578505212  0.4862262011723573  1.0000
  C   C3        1.0  0.889598478397879  0.23704973800467138  0.9945014034733504  1.0000
  C   C4        1.0  0.11040806130753106  0.7629479477397821  0.4945044280382121  1.0000
  C   C5        1.0  0.760701509727859  0.28467709733131835  0.0086910905053443  1.0000
  C   C6        1.0  0.23930275601409784  0.7153199849516267  0.5086972562800867  1.0000
  C   C7        1.0  0.6315005965236009  0.2061223988965465  0.0138795489617536  1.0000
  C   C8        1.0  0.368503603148703  0.7938809078212117  0.5138800596754152  1.0000
  C   C9        1.0  0.6367914882358363  0.08648702018818707  0.0034671333478187  1.0000
  C   C10       1.0  0.36321110393581785  0.9135117878964677  0.5034697378444903  1.0000
  C   C11       1.0  0.7620346683942498  0.4129269361545695  0.013323525721951104  1.0000
  C   C12       1.0  0.2379717761067538  0.5870710533048109  0.5133268406669914  1.0000
  C   C13       1.0  0.8855428403539276  0.4889388246082688  0.04362931832125841  1.0000
  C   C14       1.0  0.11446402866199885  0.51106035599674  0.5436374675998863  1.0000
  C   C15       1.0  0.8844063257132786  0.6097049022498381  0.0389149154124908  1.0000
  C   C16       1.0  0.1155995994512082  0.39029423913812866  0.5389225478409402  1.0000
  C   C17       1.0  0.6496500487440926  0.585122955826236  0.9785210480287887  1.0000
  C   C18       1.0  0.35035305601815026  0.4148710736352255  0.4785176760342794  1.0000
  C   C19       1.0  0.6411286625301641  0.4636304443926704  0.9823837237981223  1.0000
  C   C20       1.0  0.3588748285395979  0.5363662654570046  0.48238226259906725  1.0000
  C   C21       1.0  0.8901597796690198  0.8924616795536479  0.1966411216832995  1.0000
  C   C22       1.0  0.10984007331015988  0.10752329237040927  0.6966512261934668  1.0000
  C   C23       1.0  0.7247486799130555  0.8865894361786671  0.2171143917415819  1.0000
  C   C24       1.0  0.2752490496745423  0.113404583838971  0.7171152578390547  1.0000
  C   C25       1.0  0.6794452387256695  0.8181649433150893  0.31632737184781234  1.0000
  C   C26       1.0  0.32055026241251733  0.18182660177499332  0.816334401696004  1.0000
  C   C27       1.0  0.6849539692367016  0.688115853712368  0.3048492025617904  1.0000
  C   C28       1.0  0.3150456991273245  0.31187905562489954  0.8048546186874931  1.0000
  C   C29       1.0  0.8142205039763153  0.6401121262382643  0.3182207896317095  1.0000
  C   C30       1.0  0.18578020366364703  0.35988467389284284  0.818223255355804  1.0000
  C   C31       1.0  0.8189031264990375  0.5205076271501737  0.30589088694854644  1.0000
  C   C32       1.0  0.18110383800936342  0.4794863370421252  0.8058916174633526  1.0000
  C   C33       1.0  0.695373008996775  0.44357398507720797  0.27574475333632625  1.0000
  C   C34       1.0  0.3046337806841777  0.556414379939781  0.7757460064059885  1.0000
  C   C35       1.0  0.5660231245719274  0.4907984810213718  0.2595618602434371  1.0000
  C   C36       1.0  0.4339836072322782  0.5091870726285562  0.759567598519574  1.0000
  C   C37       1.0  0.5622967785831463  0.6107176027779103  0.2752721960998201  1.0000
  C   C38       1.0  0.437708536942516  0.38927429814595615  0.7752781524093707  1.0000
  C   C39       1.0  0.6290000934962378  0.8201208846696133  0.7950543799260147  1.0000
  C   C40       1.0  0.37100616269412257  0.1798791444605498  0.2950482453866742  1.0000
  C   C41       1.0  0.7880931673739581  0.860521589402765  0.7650886071164393  1.0000
  C   C42       1.0  0.21191535575228926  0.1394860390140735  0.2650889652155186  1.0000
  C   C43       1.0  0.8359736644299003  0.797587222006683  0.6696869857631357  1.0000
  C   C44       1.0  0.16402792079781392  0.20243182878822097  0.16969252425131742  1.0000
  C   C45       1.0  0.806020974884049  0.6646238873649037  0.6652021762150185  1.0000
  C   C46       1.0  0.19397268126177636  0.3353863836410581  0.1652201266206674  1.0000
  C   C47       1.0  0.7410629820900354  0.6101406011262396  0.5775065340822039  1.0000
  C   C48       1.0  0.2589235307938225  0.38988117415713924  0.07752104704266573  1.0000
  C   C49       1.0  0.7198259011077893  0.48837411433806444  0.5647956035246793  1.0000
  C   C50       1.0  0.280153463637525  0.5116476022491055  0.0648179553392154  1.0000
  C   C51       1.0  0.762279817645897  0.416378499651614  0.6420843455113288  1.0000
  C   C52       1.0  0.23769485768779214  0.5836414213801574  0.142111128999673  1.0000
  C   C53       1.0  0.8238480437326884  0.46794712496320284  0.7314110110783716  1.0000
  C   C54       1.0  0.17613684919758296  0.5320665658909504  0.23143892101919766  1.0000
  C   C55       1.0  0.8464493531565153  0.5901994458289292  0.7418767118409377  1.0000
  C   C56       1.0  0.15354802342128687  0.4098080559580665  0.24189603382529876  1.0000
  N   N1        1.0  0.7611177637724393  0.04153387545741789  0.9901881113760567  1.0000
  N   N2        1.0  0.2388807515756283  0.9584603217640856  0.4901882436362897  1.0000
  N   N3        1.0  0.7694422006818938  0.6575792673624717  0.0052453128216499  1.0000
  N   N4        1.0  0.2305629003685182  0.34241600779239423  0.5052454114555048  1.0000
  N   N5        1.0  0.6371526523073355  0.837830333650295  0.1290820475320587  1.0000
  N   N6        1.0  0.3628484032953024  0.16216802884268583  0.6290836679848086  1.0000
  N   N7        1.0  0.8895600122423487  0.8621005606918284  0.8527714817420176  1.0000
  N   N8        1.0  0.11044142394280947  0.1378939456993464  0.3527717826419233  1.0000
  O   O1        1.0  0.9324263874638702  0.8752587160518033  0.1054750692378619  1.0000
  O   O2        1.0  0.06758080850616469  0.12474022060089845  0.6054806257692179  1.0000
  O   O3        1.0  0.9727519066604273  0.9163052204644655  0.2720102876065482  1.0000
  O   O4        1.0  0.027253169656788097  0.08368488622392789  0.7720137136854462  1.0000
  O   O5        1.0  0.7081730365537808  0.32869219265693056  0.2637639368782061  1.0000
  O   O6        1.0  0.29183818774230014  0.6712951215180424  0.7637658161273111  1.0000
  O   O7        1.0  0.5944588480192861  0.8170787048951167  0.8893211059563343  1.0000
  O   O8        1.0  0.4055389851037318  0.18291357270229006  0.3893221364112449  1.0000
  O   O9        1.0  0.5409132474001339  0.7962796803137091  0.7219564506145986  1.0000
  O   O10       1.0  0.45908937472513844  0.20371257705222223  0.22195462209627692  1.0000
  O   O11       1.0  0.740614528929484  0.29643476544171676  0.6266453946359151  1.0000
  O   O12       1.0  0.2593519291657742  0.7035789095400489  0.12668533918382963  1.0000
