data_image0
_chemical_formula_structural       Zn4H28C20N20O24
_chemical_formula_sum              "Zn4 H28 C20 N20 O24"
_cell_length_a       8.181081091610766
_cell_length_b       9.982180626002137
_cell_length_c       11.140812174652252
_cell_angle_alpha    90.00004845781334
_cell_angle_beta     105.92880327842833
_cell_angle_gamma    90.00004142911105

_space_group_name_H-M_alt    "P 1"
_space_group_IT_number       1

loop_
  _space_group_symop_operation_xyz
  'x, y, z'

loop_
  _atom_site_type_symbol
  _atom_site_label
  _atom_site_symmetry_multiplicity
  _atom_site_fract_x
  _atom_site_fract_y
  _atom_site_fract_z
  _atom_site_occupancy
  Zn  Zn1       1.0  0.24091654052797654  0.1385470755245848  0.2604105551444462  1.0000
  Zn  Zn2       1.0  0.7590836456305253  0.6385481892414262  0.2395900836147362  1.0000
  Zn  Zn3       1.0  0.7590832552267557  0.8614516239577769  0.7395891375592714  1.0000
  Zn  Zn4       1.0  0.2409161501248391  0.36145151202605064  0.7604096090894927  1.0000
  H   H1        1.0  0.2225514481108988  0.13131329616877713  0.5079122380523131  1.0000
  H   H2        1.0  0.7774476506342934  0.6313136564702545  0.992088066977523  1.0000
  H   H3        1.0  0.7774470765282117  0.8686854033130798  0.49208719295560843  1.0000
  H   H4        1.0  0.22255214512107097  0.3686860447972151  0.007911625726705994  1.0000
  H   H5        1.0  0.2675126511182313  0.27821907407778207  0.48182067143046237  1.0000
  H   H6        1.0  0.7324864405092696  0.7782199638046166  0.018179847425763267  1.0000
  H   H7        1.0  0.7324858735215044  0.7217806271891973  0.5181787595779639  1.0000
  H   H8        1.0  0.2675133552460949  0.2217797374628532  0.9818198452784657  1.0000
  H   H9        1.0  0.4640630499351701  0.3343420189152794  0.22473948029211507  1.0000
  H   H10       1.0  0.5359361048247705  0.8343440361255008  0.275261991546806  1.0000
  H   H11       1.0  0.5359354747045727  0.6656576823517  0.7752599507163043  1.0000
  H   H12       1.0  0.46406495422272087  0.16565566514288574  0.7247388588601639  1.0000
  H   H13       1.0  0.39906539312818984  0.9300185379818445  0.39506269187131693  1.0000
  H   H14       1.0  0.6009364326466411  0.43001749073417267  0.10493850448012412  1.0000
  H   H15       1.0  0.6009356659199339  0.0699821650716643  0.6049381585361644  1.0000
  H   H16       1.0  0.399063363108091  0.5699812087481819  0.8950611882236006  1.0000
  H   H17       1.0  0.0877492157251254  0.6829881411850779  0.155900536828554  1.0000
  H   H18       1.0  0.912251034442434  0.1829885046376134  0.344099251039232  1.0000
  H   H19       1.0  0.9122518589687302  0.3170105582973548  0.8440985215640354  1.0000
  H   H20       1.0  0.087748761312298  0.8170101948447408  0.6559004416644925  1.0000
  H   H21       1.0  0.5185717285800706  0.1845300678533519  0.19999406868453923  1.0000
  H   H22       1.0  0.4814297868300771  0.684532076134836  0.3000068784521588  1.0000
  H   H23       1.0  0.48142933046742087  0.8154696334150414  0.8000067817224306  1.0000
  H   H24       1.0  0.5185712800415416  0.3154686269182534  0.6999930759483846  1.0000
  H   H25       1.0  0.5381778778062057  0.0352972348531324  0.3805784268758714  1.0000
  H   H26       1.0  0.4618234411060699  0.5352960563237943  0.11942326476717822  1.0000
  H   H27       1.0  0.4618231734184234  0.9647034682008028  0.6194233195385479  1.0000
  H   H28       1.0  0.5381763546492948  0.46470364494368244  0.8805764279370579  1.0000
  C   C1        1.0  0.23601408865401644  0.9615965912302114  0.035569827548613396  1.0000
  C   C2        1.0  0.7639852504616657  0.4615979820566948  0.4644290854561533  1.0000
  C   C3        1.0  0.7639869703928425  0.0384021082530595  0.9644310228578521  1.0000
  C   C4        1.0  0.2360132820015721  0.5384017192098581  0.535569449545335  1.0000
  C   C5        1.0  0.19459673451940768  0.8341635226240312  0.08106234930021121  1.0000
  C   C6        1.0  0.8054075279480769  0.33416589691534426  0.41893748112010354  1.0000
  C   C7        1.0  0.8054043245274441  0.16583517685923968  0.9189385011062543  1.0000
  C   C8        1.0  0.19459608115543153  0.6658358079238624  0.5810629966725573  1.0000
  C   C9        1.0  0.28045018518382386  0.7597619331120384  0.004693433138434995  1.0000
  C   C10       1.0  0.7195501620487262  0.2597643285138743  0.4953064326700058  1.0000
  C   C11       1.0  0.7195508816871622  0.2402377681559358  0.9953065212616041  1.0000
  C   C12       1.0  0.2804496337085424  0.7402383781089484  0.5046932600357508  1.0000
  C   C13       1.0  0.3192119044510804  0.889710949287881  0.9498116376655548  1.0000
  C   C14       1.0  0.680790055391597  0.38971490664684433  0.5501903490861437  1.0000
  C   C15       1.0  0.6807917202981527  0.11028875198024927  0.050187048112221105  1.0000
  C   C16       1.0  0.3192097168951733  0.6102877999772359  0.4498120316404198  1.0000
  C   C17       1.0  0.032736318914729196  0.8605886338456729  0.23241547384750313  1.0000
  C   C18       1.0  0.967264155789877  0.36058895782709743  0.2675844943176672  1.0000
  C   C19       1.0  0.9672634768406354  0.1394110674218041  0.7675842188567261  1.0000
  C   C20       1.0  0.0327356399654875  0.6394107434403722  0.7324151983865618  1.0000
  N   N1        1.0  0.059425548353239294  0.9901495261827763  0.2645066805913885  1.0000
  N   N2        1.0  0.9405750901521869  0.4901488024223541  0.23549341910156588  1.0000
  N   N3        1.0  0.9405755185177538  0.009850175085190902  0.7354932738086505  1.0000
  N   N4        1.0  0.0594246977796757  0.509850898845535  0.7645071696096012  1.0000
  N   N5        1.0  0.9595124332564636  0.015019206266110498  0.3408318061628606  1.0000
  N   N6        1.0  0.040487604550541796  0.5150188179625131  0.1591678111849504  1.0000
  N   N7        1.0  0.0404873624989079  0.984980495001359  0.6591678865413684  1.0000
  N   N8        1.0  0.9595121912041904  0.4849798815198411  0.8408318815187741  1.0000
  N   N9        1.0  0.87758346282574  0.9074574577877144  0.3548571102362673  1.0000
  N   N10       1.0  0.12241833442600841  0.40745716741181315  0.14514406321188034  1.0000
  N   N11       1.0  0.12241760404525336  0.09254224348025282  0.6451428441637718  1.0000
  N   N12       1.0  0.8775814535058614  0.5925425338560756  0.8548565254992866  1.0000
  N   N13       1.0  0.9197901996898493  0.8072258320529284  0.2873406048182617  1.0000
  N   N14       1.0  0.08020893643315218  0.3072255802487193  0.21265904747768627  1.0000
  N   N15       1.0  0.08020832494989348  0.19277386921405076  0.7126588261901647  1.0000
  N   N16       1.0  0.9197908514980854  0.6927731192340545  0.7873415412329693  1.0000
  N   N17       1.0  0.1090527351502715  0.7872048566658876  0.1591707812404124  1.0000
  N   N18       1.0  0.8909476389530794  0.2872052044554394  0.3408300084335778  1.0000
  N   N19       1.0  0.8909483395442236  0.21279484460166737  0.8408282771526886  1.0000
  N   N20       1.0  0.10905214115528851  0.7127944968128688  0.65917147628452  1.0000
  O   O1        1.0  0.21445818566291308  0.08301201313649641  0.058960431052995026  1.0000
  O   O2        1.0  0.7855394193464917  0.5830133319829544  0.4410360439085609  1.0000
  O   O3        1.0  0.7855428733839458  0.9169866863467744  0.9410404193534702  1.0000
  O   O4        1.0  0.21445786547225507  0.41698737106695916  0.5589595413768222  1.0000
  O   O5        1.0  0.27712268520494376  0.1842906895518084  0.4544326802660665  1.0000
  O   O6        1.0  0.7228762876706155  0.6842915993636823  0.04556774323545199  1.0000
  O   O7        1.0  0.7228758394341597  0.8157080099300487  0.5455667507418483  1.0000
  O   O8        1.0  0.2771222369691201  0.31570810190329  0.9544316877729742  1.0000
  O   O9        1.0  0.3086290372510446  0.6375706685523994  0.9936491218553911  1.0000
  O   O10       1.0  0.6913726038145995  0.1375735891420717  0.5063526089266831  1.0000
  O   O11       1.0  0.6913707506801854  0.3624280309303741  0.0063514668552712315  1.0000
  O   O12       1.0  0.30862844741002954  0.8624271139118563  0.4936491374877364  1.0000
  O   O13       1.0  0.45587877654087805  0.2396112234558174  0.2488107160963509  1.0000
  O   O14       1.0  0.5441215373917461  0.7396132228585018  0.2511900252621189  1.0000
  O   O15       1.0  0.544121019213854  0.7603874760265371  0.7511889766073736  1.0000
  O   O16       1.0  0.45587698724799697  0.2603864784084706  0.7488094057463003  1.0000
  O   O17       1.0  0.3868258325518709  0.9248816027777095  0.8681239812722907  1.0000
  O   O18       1.0  0.6131749084636909  0.4248845952424247  0.6318768834809136  1.0000
  O   O19       1.0  0.6131726686167409  0.07511709670540509  0.13187813775643784  1.0000
  O   O20       1.0  0.3868261584085673  0.5751171095957872  0.36812307092014157  1.0000
  O   O21       1.0  0.44174848973936776  0.9811175760051609  0.33148252894417857  1.0000
  O   O22       1.0  0.5582533928155726  0.4811165633468731  0.1685196152892061  1.0000
  O   O23       1.0  0.558253832600883  0.0188831270492713  0.6685194791660438  1.0000
  O   O24       1.0  0.4417464029397918  0.5188831379206036  0.8314800774150302  1.0000
