data_image0
_chemical_formula_structural       Al4H8C24O20F4
_chemical_formula_sum              "Al4 H8 C24 O20 F4"
_cell_length_a       6.651483182715428
_cell_length_b       14.126663921225791
_cell_length_c       17.346659005669945
_cell_angle_alpha    86.7064063982716
_cell_angle_beta     89.99856337493411
_cell_angle_gamma    89.99529958089624

_space_group_name_H-M_alt    "P 1"
_space_group_IT_number       1

loop_
  _space_group_symop_operation_xyz
  'x, y, z'

loop_
  _atom_site_type_symbol
  _atom_site_label
  _atom_site_symmetry_multiplicity
  _atom_site_fract_x
  _atom_site_fract_y
  _atom_site_fract_z
  _atom_site_occupancy
  Al  Al1       1.0  0.11278745415146571  0.5034298636721958  0.4965085572685411  1.0000
  Al  Al2       1.0  0.6134431341247364  0.4980463869515219  0.49932739435544704  1.0000
  Al  Al3       1.0  0.6202913579289913  0.0015901027298709997  0.0008164962132611002  1.0000
  Al  Al4       1.0  0.11961929382393781  0.9972184232364473  0.0033977957964453002  1.0000
  H   H1        1.0  0.5809392519162628  0.18348347815634014  0.8002505715559212  1.0000
  H   H2        1.0  0.0818494382281756  0.7930133329486537  0.18424406267457982  1.0000
  H   H3        1.0  0.578622055202267  0.31732445043686397  0.7021824670860755  1.0000
  H   H4        1.0  0.0806323859991593  0.7111214106795815  0.31648686707365675  1.0000
  H   H5        1.0  0.3528522430212675  0.38036297924699625  0.5284403822375128  1.0000
  H   H6        1.0  0.857549279913151  0.615785616153154  0.5288538467415834  1.0000
  H   H7        1.0  0.36163068391682174  0.1210319346638471  0.9747479605054467  1.0000
  H   H8        1.0  0.8656124753425375  0.8838800874106809  0.9720277171655171  1.0000
  C   C1        1.0  0.35765385859596693  0.6110853664405839  0.6005922462048475  1.0000
  C   C2        1.0  0.8707377544807003  0.39365332684128856  0.3962404309106589  1.0000
  C   C3        1.0  0.37319371743448226  0.6085670710865755  0.3875994129628141  1.0000
  C   C4        1.0  0.8603399101610592  0.38057960950209246  0.6034169262761111  1.0000
  C   C5        1.0  0.7235558194842684  0.2168704692067465  0.7835026622239384  1.0000
  C   C6        1.0  0.22286773522630912  0.7817328754883947  0.21555775420272744  1.0000
  C   C7        1.0  0.8786654787360888  0.1919783523248313  0.8307534912458439  1.0000
  C   C8        1.0  0.3808335296586094  0.8319317320098066  0.18598566534714683  1.0000
  C   C9        1.0  0.721773586216891  0.2835868563430779  0.717579597698979  1.0000
  C   C10       1.0  0.22150054819334747  0.7199970009200952  0.2846353883272101  1.0000
  C   C11       1.0  0.8743219135619357  0.3079396689128799  0.6689527465363839  1.0000
  C   C12       1.0  0.3762940950131793  0.6670620282479122  0.31355843578809584  1.0000
  C   C13       1.0  0.8719016659140663  0.16802326916904778  0.16732176714580763  1.0000
  C   C14       1.0  0.368346361845262  0.8289289057164239  0.8349601099734798  1.0000
  C   C15       1.0  0.8685373181942994  0.220848307629268  0.22071358748745948  1.0000
  C   C16       1.0  0.3680061512043693  0.7782825279588935  0.7800842696422451  1.0000
  C   C17       1.0  0.8668325728677218  0.2792237718562518  0.27955864246365547  1.0000
  C   C18       1.0  0.36618373047006975  0.7223468245533056  0.7195584333170119  1.0000
  C   C19       1.0  0.8669982643414825  0.33200639821921374  0.3329989889090826  1.0000
  C   C20       1.0  0.362990013731455  0.671734237895471  0.6646952808298252  1.0000
  C   C21       1.0  0.3791213485569714  0.8908641376099453  0.11214352362679852  1.0000
  C   C22       1.0  0.866635170703617  0.1195474338026514  0.8965258645098972  1.0000
  C   C23       1.0  0.3644680337906578  0.8895242575578949  0.8990993790443583  1.0000
  C   C24       1.0  0.877000796781175  0.1064909708593902  0.10402102267813972  1.0000
  O   O1        1.0  0.5407585345887256  0.5738087206841911  0.40957754247659034  1.0000
  O   O2        1.0  0.0243718959365964  0.40110360167035  0.568769671110154  1.0000
  O   O3        1.0  0.18507582047819685  0.5809105622735088  0.5817852757248048  1.0000
  O   O4        1.0  0.7063839646841287  0.40401037287159614  0.43232324877670447  1.0000
  O   O5        1.0  0.20609777109334002  0.5995735864617303  0.4232842353702965  1.0000
  O   O6        1.0  0.6869859659544275  0.4151518009237521  0.587991601396169  1.0000
  O   O7        1.0  0.03916327529714889  0.4312250288375665  0.41085487225873163  1.0000
  O   O8        1.0  0.5255922123564929  0.5939243314397941  0.5689976210928693  1.0000
  O   O9        1.0  0.3609317083672679  0.44288010381605863  0.502449085069472  1.0000
  O   O10       1.0  0.8612067927394164  0.5592500832369254  0.4996374596465358  1.0000
  O   O11       1.0  0.1922131483202634  0.9199057588588317  0.9180834950510645  1.0000
  O   O12       1.0  0.7124175123766108  0.0952376719773866  0.06829392929981991  1.0000
  O   O13       1.0  0.5474456752941634  0.9247629183261736  0.09007091770542533  1.0000
  O   O14       1.0  0.0312180672098279  0.09931317666115551  0.9308631656234496  1.0000
  O   O15       1.0  0.5327645288448579  0.9063791999771597  0.9305709756889871  1.0000
  O   O16       1.0  0.046046748783375294  0.0698820951472072  0.08892908244056491  1.0000
  O   O17       1.0  0.6936482510540429  0.08491090163479237  0.9124544244145556  1.0000
  O   O18       1.0  0.21193675164604292  0.9009799009935762  0.07670059944212683  1.0000
  O   O19       1.0  0.36813958293838317  0.05704617547253581  0.9979795095191692  1.0000
  O   O20       1.0  0.868440483500585  0.9410622206042446  0.0004328655884932998  1.0000
  F   F1        1.0  0.06163937866094221  0.2332019918518924  0.8229931619236767  1.0000
  F   F2        1.0  0.5592225114365093  0.8338012363652253  0.22316102431193496  1.0000
  F   F3        1.0  0.056903852883976896  0.2660461728764929  0.6752371472300781  1.0000
  F   F4        1.0  0.5530791372891032  0.6620305889195777  0.27562806801881123  1.0000
