data_image0
_chemical_formula_structural       Cd2H14C14N2O14
_chemical_formula_sum              "Cd2 H14 C14 N2 O14"
_cell_length_a       7.058439146719932
_cell_length_b       7.099704515268889
_cell_length_c       11.045761610457513
_cell_angle_alpha    105.58243824400039
_cell_angle_beta     98.3676296542987
_cell_angle_gamma    112.71695677037623

_space_group_name_H-M_alt    "P 1"
_space_group_IT_number       1

loop_
  _space_group_symop_operation_xyz
  'x, y, z'

loop_
  _atom_site_type_symbol
  _atom_site_label
  _atom_site_symmetry_multiplicity
  _atom_site_fract_x
  _atom_site_fract_y
  _atom_site_fract_z
  _atom_site_occupancy
  Cd  Cd1       1.0  0.2822939788967815  0.5692850393837504  0.5176767158903176  1.0000
  Cd  Cd2       1.0  0.7176975050187977  0.4307125988800777  0.48232065775876987  1.0000
  H   H1        1.0  0.2632717141238672  0.3041609452948819  0.6824206259983754  1.0000
  H   H2        1.0  0.7367177033092605  0.695835075201437  0.31757354237811347  1.0000
  H   H3        1.0  0.14572213989918484  0.4494031733799346  0.7339618017102155  1.0000
  H   H4        1.0  0.8542771886842573  0.5505962005145193  0.26603937443695  1.0000
  H   H5        1.0  0.47917038753595176  0.84405256563948  0.3791451076882809  1.0000
  H   H6        1.0  0.5208246734235117  0.15594676518992398  0.6208529188050917  1.0000
  H   H7        1.0  0.24472161177220642  0.6657341746775742  0.29351539828638107  1.0000
  H   H8        1.0  0.7552743210653999  0.3342570612683105  0.7064822055465712  1.0000
  H   H9        1.0  0.5113958059963792  0.1584509971077352  0.21009231334256387  1.0000
  H   H10       1.0  0.4886032040010236  0.8415612977742202  0.7899129005879788  1.0000
  H   H11       1.0  0.29975636915843057  0.8470494092049138  0.9998637250265646  1.0000
  H   H12       1.0  0.7002535286347609  0.15296478601457858  0.00013928596720089615  1.0000
  H   H13       1.0  0.7207329887749552  0.764891077195287  0.11111984267949992  1.0000
  H   H14       1.0  0.27926931429241364  0.23511169920833203  0.8888758871895419  1.0000
  C   C1        1.0  0.8825625290144001  0.0863087079435942  0.33922393361353903  1.0000
  C   C2        1.0  0.11742544650127948  0.9136839999523971  0.6607722280345244  1.0000
  C   C3        1.0  0.009630566318229202  0.0275484400229473  0.2514034692076095  1.0000
  C   C4        1.0  0.9903572965433938  0.9724474754537695  0.7485950527536431  1.0000
  C   C5        1.0  0.2391427979580314  0.139780246412613  0.2829873900318844  1.0000
  C   C6        1.0  0.7608556420000595  0.8602206409854956  0.7170193945098191  1.0000
  C   C7        1.0  0.3383079075677813  0.0695897201534308  0.18800728825142707  1.0000
  C   C8        1.0  0.6616961046437455  0.9304209985145703  0.8120017709859442  1.0000
  C   C9        1.0  0.22193524643597573  0.8996844974003791  0.07086753600431446  1.0000
  C   C10       1.0  0.7780732068108519  0.10032966835332499  0.9291353256830847  1.0000
  C   C11       1.0  0.9980538067523524  0.7896565883881975  0.04406678079828198  1.0000
  C   C12       1.0  0.0019584294703563067  0.21034955652432066  0.9559350562632006  1.0000
  C   C13       1.0  0.8941147880579267  0.8532803786330022  0.13406344358281794  1.0000
  C   C14       1.0  0.1058868763261316  0.1467142280890243  0.8659344160541169  1.0000
  N   N1        1.0  0.8735139229489945  0.6086641022881238  0.9260146539428433  1.0000
  N   N2        1.0  0.1264984259277782  0.3913388350436549  0.07398482280545692  1.0000
  O   O1        1.0  0.9352646504959806  0.2903246783740626  0.3970463611944837  1.0000
  O   O2        1.0  0.06472096984296619  0.7096694984490453  0.6029561601199873  1.0000
  O   O3        1.0  0.7230885370394873  0.9325273656456545  0.3466907236575453  1.0000
  O   O4        1.0  0.2769045727204897  0.0674638567009609  0.6533038798279948  1.0000
  O   O5        1.0  0.3553671263249427  0.2955395093874813  0.39536669682249953  1.0000
  O   O6        1.0  0.6446219363988066  0.7044595524711711  0.604639738227668  1.0000
  O   O7        1.0  0.9687005693853904  0.5544407263835823  0.8435504228620873  1.0000
  O   O8        1.0  0.03132393053546425  0.4455705861344939  0.15644991972572345  1.0000
  O   O9        1.0  0.6768100099002793  0.5061137964092381  0.9055477007554272  1.0000
  O   O10       1.0  0.32321048022537  0.4938779404549011  0.09445244128579591  1.0000
  O   O11       1.0  0.2572201746827503  0.446285182577391  0.6919768201110231  1.0000
  O   O12       1.0  0.7427749549207121  0.5537109104497587  0.3080206472256179  1.0000
  O   O13       1.0  0.33059589521955246  0.767711404294445  0.3837346418623895  1.0000
  O   O14       1.0  0.669398502422666  0.2322830248771551  0.6162642723991567  1.0000
