data_image0
_chemical_formula_structural       U2H28C32N4O16
_chemical_formula_sum              "U2 H28 C32 N4 O16"
_cell_length_a       9.666245558342014
_cell_length_b       10.168687708144093
_cell_length_c       10.779725663675528
_cell_angle_alpha    64.5488933345748
_cell_angle_beta     69.96859768673555
_cell_angle_gamma    74.76646661338269

_space_group_name_H-M_alt    "P 1"
_space_group_IT_number       1

loop_
  _space_group_symop_operation_xyz
  'x, y, z'

loop_
  _atom_site_type_symbol
  _atom_site_label
  _atom_site_symmetry_multiplicity
  _atom_site_fract_x
  _atom_site_fract_y
  _atom_site_fract_z
  _atom_site_occupancy
  U   U1        1.0  0.5432653299678804  0.09910304435121019  0.6795897603219316  1.0000
  U   U2        1.0  0.45673642475151127  0.9008980647217446  0.32040805720198035  1.0000
  H   H1        1.0  0.7515941645213288  0.9103414659980089  0.8717108832800802  1.0000
  H   H2        1.0  0.24840318948164253  0.0896595996704974  0.12828922326951894  1.0000
  H   H3        1.0  0.5862377954777782  0.8734696588298192  0.970033379924338  1.0000
  H   H4        1.0  0.4137608189898713  0.12653031675669268  0.029966777831923277  1.0000
  H   H5        1.0  0.35316021351531646  0.4574418033399329  0.4438601294908295  1.0000
  H   H6        1.0  0.646839500783791  0.542558181459029  0.5561396886922905  1.0000
  H   H7        1.0  0.184554939862508  0.6892494348077349  0.3626817458257463  1.0000
  H   H8        1.0  0.8154438352383622  0.3107494414843118  0.6373188027103109  1.0000
  H   H9        1.0  0.9547056543528142  0.470455174554111  0.24253712707753974  1.0000
  H   H10       1.0  0.04529548104418513  0.529542620868398  0.7574631330920524  1.0000
  H   H11       1.0  0.12285045594000364  0.23821065580579415  0.3252971494900265  1.0000
  H   H12       1.0  0.877150520214364  0.7617882454657805  0.6747017891666259  1.0000
  H   H13       1.0  0.8474193079087511  0.7315524849762485  0.27466253952469805  1.0000
  H   H14       1.0  0.15257962782532525  0.2684452920213404  0.7253383997911698  1.0000
  H   H15       1.0  0.989145489257062  0.8251875186448461  0.25857136965306904  1.0000
  H   H16       1.0  0.010853607110234986  0.17480915905829164  0.741429960442602  1.0000
  H   H17       1.0  0.21439738201164  0.8205760294735642  0.050357655835377116  1.0000
  H   H18       1.0  0.7856023308968786  0.17942394877078982  0.9496430930808798  1.0000
  H   H19       1.0  0.1433446368424426  0.9199122127361153  0.8978047340895969  1.0000
  H   H20       1.0  0.8566550746754941  0.08008775895363131  0.10219694555978974  1.0000
  H   H21       1.0  0.31310196712679067  0.5551736040930281  0.11154996945738556  1.0000
  H   H22       1.0  0.6868966459502701  0.4448263649388693  0.8884511190320052  1.0000
  H   H23       1.0  0.42287885326817326  0.34921949325332247  0.029591115107500336  1.0000
  H   H24       1.0  0.5771196005662631  0.6507815816276475  0.9704086518689576  1.0000
  H   H25       1.0  0.28940073469384936  0.6047174550257639  0.640617056919659  1.0000
  H   H26       1.0  0.7105986555576534  0.395284715252899  0.3593838411701211  1.0000
  H   H27       1.0  0.1715180808549093  0.8084595809255006  0.7270348165450287  1.0000
  H   H28       1.0  0.8284827318850745  0.191540406531317  0.2729655927980871  1.0000
  C   C1        1.0  0.35762230840288095  0.19856502290809896  0.4257043121564196  1.0000
  C   C2        1.0  0.6423805461479686  0.8014360953773193  0.5742931657943584  1.0000
  C   C3        1.0  0.24995809915507283  0.3343846728898328  0.3872359016494968  1.0000
  C   C4        1.0  0.7500438148069505  0.665615330334049  0.612763237387355  1.0000
  C   C5        1.0  0.26568897738778924  0.4610260713563721  0.39981831158882386  1.0000
  C   C6        1.0  0.7343105748875159  0.5389750061824402  0.6001820465476227  1.0000
  C   C7        1.0  0.17026648271735909  0.590603008705543  0.35465612103685357  1.0000
  C   C8        1.0  0.8297332315817485  0.4093969760934258  0.6453436971462735  1.0000
  C   C9        1.0  0.05944206620214486  0.5952032446010876  0.2963045603289132  1.0000
  C   C10       1.0  0.9405585872952074  0.4047978487047957  0.7036945275012625  1.0000
  C   C11       1.0  0.040583599196800386  0.4671124660201614  0.28854215705941033  1.0000
  C   C12       1.0  0.9594172135431833  0.5328875214366563  0.7114582522837053  1.0000
  C   C13       1.0  0.13484814681969226  0.337342287964475  0.33378556285001076  1.0000
  C   C14       1.0  0.8651528279440864  0.6626566067524919  0.6662143065397785  1.0000
  C   C15       1.0  0.967034281623114  0.7391958601622975  0.23426701018046692  1.0000
  C   C16       1.0  0.03296575255184556  0.2608019194931402  0.7657345202953962  1.0000
  C   C17       1.0  0.1522766803009857  0.8137089206310365  0.9856785951247602  1.0000
  C   C18       1.0  0.8477230312169509  0.18629105105870994  0.014323084524619384  1.0000
  C   C19       1.0  0.22829957374306528  0.6930330803407686  0.9283615743937332  1.0000
  C   C20       1.0  0.7717001391654533  0.3069668979035925  0.07163917452252379  1.0000
  C   C21       1.0  0.30350678270615816  0.5646868894693428  0.010264043003729677  1.0000
  C   C22       1.0  0.6964929302023605  0.4353130887750113  0.9897367059125202  1.0000
  C   C23       1.0  0.35848516602477787  0.46103777092738357  0.8319204789915132  1.0000
  C   C24       1.0  0.6415143862505273  0.5389633066114285  0.1680798791449334  1.0000
  C   C25       1.0  0.3665702293011036  0.44890647396045597  0.9637618560968589  1.0000
  C   C26       1.0  0.6334296456312244  0.5510924115440545  0.03623835286606432  1.0000
  C   C27       1.0  0.29021486520234413  0.5924234043579163  0.7458021424415762  1.0000
  C   C28       1.0  0.7097848477061817  0.4075765738864448  0.2541986064746736  1.0000
  C   C29       1.0  0.42270697972324456  0.3372932659553031  0.7829094755897542  1.0000
  C   C30       1.0  0.5772925725520607  0.6627078115835091  0.21709088254669237  1.0000
  C   C31       1.0  0.22493447231654778  0.7071109265024234  0.7940438547665208  1.0000
  C   C32       1.0  0.7750650799587574  0.2928901510363886  0.2059565033699259  1.0000
  N   N1        1.0  0.00037317712689597646  0.7890768767377239  0.07840931821492349  1.0000
  N   N2        1.0  0.9996255965833852  0.21092199299971534  0.9215921610542706  1.0000
  N   N3        1.0  0.8862378774134286  0.8206500557781808  0.02752441349284141  1.0000
  N   N4        1.0  0.11376183688567919  0.17934992902078054  0.9724754046902787  1.0000
  O   O1        1.0  0.37277099479790365  0.0184691845452249  0.7756820069160425  1.0000
  O   O2        1.0  0.6272307640932411  0.9815319441915521  0.22431301840847337  1.0000
  O   O3        1.0  0.7172582375609123  0.17489350298639292  0.5876685738426629  1.0000
  O   O4        1.0  0.28274021488293494  0.8251075653399628  0.4123321238669177  1.0000
  O   O5        1.0  0.41376703965050143  0.34668400060694904  0.6637341899381823  1.0000
  O   O6        1.0  0.5862347122877267  0.6533170953567834  0.3362654890519962  1.0000
  O   O7        1.0  0.49007284121145034  0.21686013046490163  0.8583816544022154  1.0000
  O   O8        1.0  0.5099268744782463  0.7831398608886744  0.14161723304777488  1.0000
  O   O9        1.0  0.45860224448347947  0.19615763222519436  0.47834233249052727  1.0000
  O   O10       1.0  0.5414017126800059  0.8038435083818953  0.5216529444208434  1.0000
  O   O11       1.0  0.34567397073242023  0.08959917758116381  0.4029353085022222  1.0000
  O   O12       1.0  0.6543288824278475  0.91040193414964  0.5970631001816855  1.0000
  O   O13       1.0  0.6435136458929378  0.9274891622813615  0.8706606335078603  1.0000
  O   O14       1.0  0.35648370811004065  0.07251190338714511  0.12933947304173898  1.0000
  O   O15       1.0  0.9147404271002271  0.874164184236328  0.892682719890935  1.0000
  O   O16       1.0  0.08525818736742248  0.1258357913501769  0.10731743786532628  1.0000
