data_image0
_chemical_formula_structural       Cd4H36C40N12O24
_chemical_formula_sum              "Cd4 H36 C40 N12 O24"
_cell_length_a       6.821180815068008
_cell_length_b       12.249113343125199
_cell_length_c       13.762069767017021
_cell_angle_alpha    90.00017120348548
_cell_angle_beta     89.99993823680205
_cell_angle_gamma    90.0004981175712

_space_group_name_H-M_alt    "P 1"
_space_group_IT_number       1

loop_
  _space_group_symop_operation_xyz
  'x, y, z'

loop_
  _atom_site_type_symbol
  _atom_site_label
  _atom_site_symmetry_multiplicity
  _atom_site_fract_x
  _atom_site_fract_y
  _atom_site_fract_z
  _atom_site_occupancy
  Cd  Cd1       1.0  0.0311114529951908  0.9919727588207153  0.7667340846653727  1.0000
  Cd  Cd2       1.0  0.9688936344848289  0.0080270908441662  0.2667321291217988  1.0000
  Cd  Cd3       1.0  0.4688930061769058  0.4919768056510776  0.2667321930108386  1.0000
  Cd  Cd4       1.0  0.5311076832397107  0.5080230439992947  0.7667318408729855  1.0000
  H   H1        1.0  0.1162881298273248  0.3025153161335369  0.5276797141405538  1.0000
  H   H2        1.0  0.8837218151305779  0.6974796464249735  0.027679636979307497  1.0000
  H   H3        1.0  0.38371681601486785  0.8025162211261475  0.02767120568123  1.0000
  H   H4        1.0  0.6162887309151373  0.19748200694198206  0.5276750660163145  1.0000
  H   H5        1.0  0.38895057659074445  0.8953836854428944  0.7033378626487874  1.0000
  H   H6        1.0  0.6110546327123744  0.10461350153350683  0.20333710319447817  1.0000
  H   H7        1.0  0.11104812541271514  0.3953851524330433  0.20333691105052762  1.0000
  H   H8        1.0  0.888948287803217  0.6046177492210278  0.703338054802927  1.0000
  H   H9        1.0  0.3830525701176271  0.8840875429362358  0.8220111324268515  1.0000
  H   H10       1.0  0.6169494790748331  0.11591167652049708  0.3220082194972278  1.0000
  H   H11       1.0  0.11694426457813022  0.3840882226017115  0.32201017731041043  1.0000
  H   H12       1.0  0.8830519205311662  0.6159118132298644  0.822011354521159  1.0000
  H   H13       1.0  0.5852586998103321  0.0079167686519526  0.7626278546899171  1.0000
  H   H14       1.0  0.4147478615771121  0.9920822508002091  0.2626259316110762  1.0000
  H   H15       1.0  0.9147440901596298  0.5079161937954099  0.26262732070639316  1.0000
  H   H16       1.0  0.08525367514481272  0.4920885403270816  0.7626221057954864  1.0000
  H   H17       1.0  0.6771160331207611  0.10503085976073122  0.7013915276047058  1.0000
  H   H18       1.0  0.3228862478974008  0.8949687698109585  0.2013915817917962  1.0000
  H   H19       1.0  0.8228912955658599  0.6050306486253731  0.2013910484060375  1.0000
  H   H20       1.0  0.1771080534455152  0.39497306285740313  0.7013862479176607  1.0000
  H   H21       1.0  0.9984845100567198  0.5133588734591826  0.5279158868462233  1.0000
  H   H22       1.0  0.0015107742630889002  0.4866393553852079  0.027906330704887197  1.0000
  H   H23       1.0  0.5015070863098003  0.013360617017561098  0.027907007595146596  1.0000
  H   H24       1.0  0.49848673200278887  0.9866392445907836  0.5279130300539094  1.0000
  H   H25       1.0  0.8846720622398794  0.8109264708142376  0.656971757423058  1.0000
  H   H26       1.0  0.115315643946488  0.18907464187199713  0.1569693376098158  1.0000
  H   H27       1.0  0.6153253144752355  0.31092714249402326  0.1569671700979072  1.0000
  H   H28       1.0  0.384672653850771  0.689071521050849  0.6569681118495652  1.0000
  H   H29       1.0  0.13058146310468996  0.8066266713707435  0.36753586216318007  1.0000
  H   H30       1.0  0.8694102363985721  0.19336698669476254  0.8675301143715117  1.0000
  H   H31       1.0  0.3694111644170023  0.30662864655294436  0.867529686956793  1.0000
  H   H32       1.0  0.6305849332143654  0.6933723589829698  0.36752974987234666  1.0000
  H   H33       1.0  0.1122414324839269  0.6035384688325607  0.37442046401034185  1.0000
  H   H34       1.0  0.8877546518859988  0.3964592943580882  0.8744130637186629  1.0000
  H   H35       1.0  0.38775246606333985  0.1035389016244039  0.8744128245933639  1.0000
  H   H36       1.0  0.6122406862963103  0.8964629434834422  0.37441852323726  1.0000
  C   C1        1.0  0.0011446808119686001  0.6021914056320128  0.5209762122021573  1.0000
  C   C2        1.0  0.9988506168670386  0.3978100653863238  0.020970185565012393  1.0000
  C   C3        1.0  0.498846944346525  0.10219233455438831  0.0209677629605025  1.0000
  C   C4        1.0  0.5011454212742379  0.8978066872925227  0.5209742749949839  1.0000
  C   C5        1.0  0.9410154174740272  0.7687952898051903  0.5933715130902825  1.0000
  C   C6        1.0  0.05897534300492421  0.23120724143648633  0.0933677852924717  1.0000
  C   C7        1.0  0.5589799694689148  0.26879323466273775  0.0933676860014145  1.0000
  C   C8        1.0  0.44101518904077613  0.7312043982711531  0.5933687058339885  1.0000
  C   C9        1.0  0.0077845572953024  0.8266786756179414  0.5119458893868867  1.0000
  C   C10       1.0  0.9922063596542403  0.1733203158178611  0.0119407249149148  1.0000
  C   C11       1.0  0.4922105270947128  0.3266779390646519  0.0119425305463636  1.0000
  C   C12       1.0  0.5077921180232394  0.6733202360144259  0.511944083750862  1.0000
  C   C13       1.0  0.0708964098688725  0.766057981216541  0.43140412615659324  1.0000
  C   C14       1.0  0.9290951669097964  0.2339391575139231  0.9313977236752393  1.0000
  C   C15       1.0  0.4290940068563884  0.2660578013612209  0.9313950088109947  1.0000
  C   C16       1.0  0.5709005019798853  0.7339401537486268  0.431398848037297  1.0000
  C   C17       1.0  0.0640785340993091  0.6525664919532447  0.4357826795948512  1.0000
  C   C18       1.0  0.9359159663095653  0.34743066152928737  0.9357743939808144  1.0000
  C   C19       1.0  0.4359145322083862  0.15256797847683154  0.9357750114541118  1.0000
  C   C20       1.0  0.5640814342619721  0.8474340733193629  0.43577988222295255  1.0000
  C   C21       1.0  0.020072197608286  0.9458612139874417  0.5143759107446684  1.0000
  C   C22       1.0  0.9799275108265634  0.05414105119811552  0.014371164313125498  1.0000
  C   C23       1.0  0.4799261754655505  0.445859600496668  0.0143689260561857  1.0000
  C   C24       1.0  0.520074998976547  0.5541402155282925  0.5143737891886033  1.0000
  C   C25       1.0  0.053026437079204  0.11425326787949071  0.46670319037041  1.0000
  C   C26       1.0  0.9469724019945859  0.8857480716981602  0.9666999582847067  1.0000
  C   C27       1.0  0.44696158429275823  0.6142529031677596  0.9666961143841561  1.0000
  C   C28       1.0  0.553025526622399  0.38574925274948413  0.4666968613871276  1.0000
  C   C29       1.0  0.0704177263544565  0.11032421779511031  0.5682729310145191  1.0000
  C   C30       1.0  0.9295892086164488  0.8896806781133152  0.0682740625973679  1.0000
  C   C31       1.0  0.4295768646288921  0.610324532438284  0.0682709349133646  1.0000
  C   C32       1.0  0.5704198081537443  0.38967464873082497  0.5682673390753692  1.0000
  C   C33       1.0  0.10877237695858352  0.19596655060869483  0.6402091601915103  1.0000
  C   C34       1.0  0.8912432158538195  0.8040345056950503  0.1402122675292787  1.0000
  C   C35       1.0  0.3912424470843803  0.6959617780033087  0.1402238995555152  1.0000
  C   C36       1.0  0.6087614174719392  0.3040302980517282  0.6402106075848194  1.0000
  C   C37       1.0  0.0628598175039343  0.20633086124901473  0.3979040651740533  1.0000
  C   C38       1.0  0.9371464839013799  0.7936702466229665  0.8979056813188818  1.0000
  C   C39       1.0  0.43713561190640604  0.7063263661719147  0.8978991749496144  1.0000
  C   C40       1.0  0.5628618933589138  0.2936722925043966  0.3979003986542864  1.0000
  N   N1        1.0  0.0204154832353254  0.010475825204636599  0.4340546304755506  1.0000
  N   N2        1.0  0.9795760884556942  0.989522955235259  0.9340545605677875  1.0000
  N   N3        1.0  0.4795710097758957  0.5104797031274231  0.9340489883152614  1.0000
  N   N4        1.0  0.5204234940227935  0.48952642477682673  0.4340522097531903  1.0000
  N   N5        1.0  0.0475044295453557  0.004166322188936501  0.5971659801305478  1.0000
  N   N6        1.0  0.9524980518579299  0.9958419365641692  0.09716374627829082  1.0000
  N   N7        1.0  0.45249727436326037  0.504161851452082  0.0971632437200469  1.0000
  N   N8        1.0  0.5475066729693765  0.4958341615178696  0.5971650294023476  1.0000
  N   N9        1.0  0.9411641106184662  0.6597604685648548  0.5987913381498444  1.0000
  N   N10       1.0  0.05882957148179461  0.34024126455295084  0.09878717282948907  1.0000
  N   N11       1.0  0.5588354582669696  0.15976086185435892  0.0987860578818882  1.0000
  N   N12       1.0  0.4411611558797476  0.8402408712657775  0.598789546557029  1.0000
  O   O1        1.0  0.12178160930344012  0.17507215843556173  0.7288898300441531  1.0000
  O   O2        1.0  0.8782572694126572  0.8249275638439715  0.2288879140741074  1.0000
  O   O3        1.0  0.37824591823068243  0.6750763019505969  0.22887914495416337  1.0000
  O   O4        1.0  0.6217533778890785  0.32491933826046454  0.7288731669494696  1.0000
  O   O5        1.0  0.130316372812679  0.29698937237434825  0.6083993922443938  1.0000
  O   O6        1.0  0.8697022131866918  0.70301239317768  0.10840151800896788  1.0000
  O   O7        1.0  0.3696956632630162  0.7969893918745613  0.1083952519578517  1.0000
  O   O8        1.0  0.6303126605321127  0.20300420977639536  0.6083940321295742  1.0000
  O   O9        1.0  0.09518337985276301  0.30354864638066914  0.43151904085930676  1.0000
  O   O10       1.0  0.9048067306645964  0.6964476763692884  0.931525505023899  1.0000
  O   O11       1.0  0.40481054350002676  0.8035472575472157  0.9315119900132629  1.0000
  O   O12       1.0  0.5951898292056939  0.19645151435552322  0.431515116632859  1.0000
  O   O13       1.0  0.039941451090193404  0.1889555187218406  0.3083085142325857  1.0000
  O   O14       1.0  0.9600620904461011  0.8110436546083976  0.8083196090181133  1.0000
  O   O15       1.0  0.46006707832425775  0.6889527693930902  0.8083050636073139  1.0000
  O   O16       1.0  0.5399379292533979  0.3110472203031307  0.3083092535811928  1.0000
  O   O17       1.0  0.36651483703987253  0.9372243185762344  0.7680404016073225  1.0000
  O   O18       1.0  0.6334887818962115  0.0627739027119105  0.2680373379593846  1.0000
  O   O19       1.0  0.13348584813542172  0.43722507974963065  0.2680394366263741  1.0000
  O   O20       1.0  0.8665104407026193  0.562774774294148  0.7680397562144561  1.0000
  O   O21       1.0  0.7067893225828853  0.05169409798618568  0.7529730787359554  1.0000
  O   O22       1.0  0.29321579133646486  0.9483048889463672  0.2529732920023164  1.0000
  O   O23       1.0  0.7932141571430977  0.5516929242248949  0.2529726172349527  1.0000
  O   O24       1.0  0.2067880248480591  0.4483199412400793  0.7529643072690605  1.0000
