data_image0
_chemical_formula_structural       Bi2H34C26N4O20
_chemical_formula_sum              "Bi2 H34 C26 N4 O20"
_cell_length_a       9.690720756971698
_cell_length_b       9.937934834145432
_cell_length_c       11.587555345498554
_cell_angle_alpha    65.49777628834889
_cell_angle_beta     66.96256376793876
_cell_angle_gamma    63.863564745342664

_space_group_name_H-M_alt    "P 1"
_space_group_IT_number       1

loop_
  _space_group_symop_operation_xyz
  'x, y, z'

loop_
  _atom_site_type_symbol
  _atom_site_label
  _atom_site_symmetry_multiplicity
  _atom_site_fract_x
  _atom_site_fract_y
  _atom_site_fract_z
  _atom_site_occupancy
  Bi  Bi1       1.0  0.2778593330161527  0.3803774393502408  0.27131856842485297  1.0000
  Bi  Bi2       1.0  0.7221410178276456  0.6196192596269442  0.7286835287013035  1.0000
  H   H1        1.0  0.7656727060774744  0.16979057647434811  0.841233482529077  1.0000
  H   H2        1.0  0.23433026929901501  0.8302049864112178  0.15876383923495033  1.0000
  H   H3        1.0  0.9626996811029404  0.10950029749388081  0.7385454932895925  1.0000
  H   H4        1.0  0.03730289304311194  0.8904964344587684  0.26145240941045966  1.0000
  H   H5        1.0  0.933818549205661  0.11511194370329748  0.899348369839224  1.0000
  H   H6        1.0  0.06618330818758263  0.884883609333315  0.10064932286906712  1.0000
  H   H7        1.0  0.5881578977348951  0.10737285862769852  0.4295340050526661  1.0000
  H   H8        1.0  0.4118403359202106  0.8926332292901193  0.570465463542199  1.0000
  H   H9        1.0  0.5946146528713638  0.4829284777128323  0.39070046287206145  1.0000
  H   H10       1.0  0.4053918999370865  0.5170729863916605  0.6092961825820069  1.0000
  H   H11       1.0  0.8085040277583317  0.4089759282098697  0.3498863559850208  1.0000
  H   H12       1.0  0.19149957549686283  0.5910243339612863  0.6501116845001816  1.0000
  H   H13       1.0  0.6987188327214895  0.3950116468432868  0.5162672395768765  1.0000
  H   H14       1.0  0.30128436297115957  0.6049897910337166  0.4837296555755515  1.0000
  H   H15       1.0  0.822508355766331  0.9987152822876982  0.4678908087104785  1.0000
  H   H16       1.0  0.17749331754657052  0.0012873181268134007  0.5321061751878204  1.0000
  H   H17       1.0  0.8517632425547673  0.0905499541441515  0.5564092734511732  1.0000
  H   H18       1.0  0.14823923955112406  0.9094503014974437  0.4435882748438829  1.0000
  H   H19       1.0  0.9419038675079034  0.12489149890715373  0.3848669965921303  1.0000
  H   H20       1.0  0.05810013697772831  0.8751075941969335  0.6151304629570545  1.0000
  H   H21       1.0  0.34695883127580635  0.04809407699208631  0.20217269179025274  1.0000
  H   H22       1.0  0.6530361499678959  0.9519084477317609  0.7978308334455662  1.0000
  H   H23       1.0  0.46396887931945247  0.871152694624797  0.10254418596289118  1.0000
  H   H24       1.0  0.5360290324811531  0.12885105194870053  0.8974527654353893  1.0000
  H   H25       1.0  0.5788044620500657  0.6904290387122458  0.19261857220494955  1.0000
  H   H26       1.0  0.42119416650335484  0.30957588677727454  0.8073785891850989  1.0000
  H   H27       1.0  0.6756490610335177  0.8131235616817634  0.05152530458424563  1.0000
  H   H28       1.0  0.32434845586877253  0.1868813473200248  0.9484739540188585  1.0000
  H   H29       1.0  0.6998750069273995  0.9189180947320424  0.3105765724543231  1.0000
  H   H30       1.0  0.3001237136661885  0.08108330706853199  0.6894209433407212  1.0000
  H   H31       1.0  0.8160021270194168  0.8348792270408582  0.17867163510523212  1.0000
  H   H32       1.0  0.1839944528139057  0.16511862805347022  0.8213278401177035  1.0000
  H   H33       1.0  0.7270614980418982  0.7203084012261416  0.33309021153436197  1.0000
  H   H34       1.0  0.2729327569508158  0.2796929545398327  0.666910514306487  1.0000
  C   C1        1.0  0.06465280174789716  0.551431479443842  0.060216632126738986  1.0000
  C   C2        1.0  0.9353500879205472  0.4485676004919057  0.9397820615011058  1.0000
  C   C3        1.0  0.008316305131010917  0.6590961215700375  0.9493840149828543  1.0000
  C   C4        1.0  0.9916922633277848  0.3408994872409182  0.0506123151943144  1.0000
  C   C5        1.0  0.9403708916412513  0.615887976131205  0.888351232751141  1.0000
  C   C6        1.0  0.05964528555018942  0.3841018233116175  0.1116437905622618  1.0000
  C   C7        1.0  0.025373382267993308  0.8173076101437149  0.896057318387179  1.0000
  C   C8        1.0  0.9746310487765445  0.18269028733819678  0.10394646530119181  1.0000
  C   C9        1.0  0.8881367849804251  0.0918744715546751  0.8393329325529707  1.0000
  C   C10       1.0  0.11186507557887643  0.9081210781625517  0.16066562328971667  1.0000
  C   C11       1.0  0.015556809720081253  0.5802284869384098  0.46844869834063724  1.0000
  C   C12       1.0  0.9844324737369164  0.4197775288265434  0.5315520115394534  1.0000
  C   C13       1.0  0.5023898048870308  0.4371789405309556  0.9745929085766604  1.0000
  C   C14       1.0  0.49761208733285395  0.5628165759923931  0.025414278610021965  1.0000
  C   C15       1.0  0.5732250431438927  0.22636534779795883  0.42312994729697806  1.0000
  C   C16       1.0  0.4267705438161117  0.7736418994471849  0.5768682547192157  1.0000
  C   C17       1.0  0.6991770616250791  0.39124513733649025  0.4226704583118917  1.0000
  C   C18       1.0  0.3008265416301158  0.6087551248346657  0.5773275821733179  1.0000
  C   C19       1.0  0.8361157535370938  0.10512906957278291  0.4624129246867098  1.0000
  C   C20       1.0  0.16388520618905028  0.8948723486063132  0.5375847123542246  1.0000
  C   C21       1.0  0.44374054960458414  0.0146279807719907  0.24674040931587632  1.0000
  C   C22       1.0  0.5562544316391184  0.9853745439518491  0.7532631159199424  1.0000
  C   C23       1.0  0.5724950527786348  0.8123565694728968  0.13677542310350077  1.0000
  C   C24       1.0  0.42750133980828764  0.18764833631871622  0.863222480175054  1.0000
  C   C25       1.0  0.7116698973217764  0.8383131606645194  0.2630649253648231  1.0000
  C   C26       1.0  0.28832618607488314  0.16168939050521663  0.7369339132547452  1.0000
  N   N1        1.0  0.6967152532415355  0.24015347472165163  0.43587555877932965  1.0000
  N   N2        1.0  0.30328530842024287  0.7598491092051277  0.5641235223320251  1.0000
  N   N3        1.0  0.5700203418875774  0.8934339353784111  0.2177650063177764  1.0000
  N   N4        1.0  0.4299764582619048  0.1065697947073545  0.7822340422935526  1.0000
  O   O1        1.0  0.11586601772610544  0.5878717209980949  0.12468635816740913  1.0000
  O   O2        1.0  0.8841317022528797  0.41212612070947335  0.875318788052077  1.0000
  O   O3        1.0  0.8866277888570689  0.7061728046443394  0.7886236477917237  1.0000
  O   O4        1.0  0.11338686912068849  0.2938181540165985  0.2113723274019534  1.0000
  O   O5        1.0  0.1520714329987953  0.8406177684131181  0.8582065682452509  1.0000
  O   O6        1.0  0.8479289526716516  0.15937889405079628  0.14180502335930356  1.0000
  O   O7        1.0  0.8827708400120432  0.9330115061680431  0.894725305088059  1.0000
  O   O8        1.0  0.1172310110490784  0.0669840535073476  0.1052706613514331  1.0000
  O   O9        1.0  0.9245914367353196  0.6888200295501649  0.5211886087613634  1.0000
  O   O10       1.0  0.075399779830029  0.3111836446520471  0.47881402084003355  1.0000
  O   O11       1.0  0.13116977174475145  0.5922104158950746  0.3679809638309949  1.0000
  O   O12       1.0  0.8688256043972657  0.40779094640047486  0.6320202542000005  1.0000
  O   O13       1.0  0.43080030920717866  0.3405579430236473  0.053643231441846156  1.0000
  O   O14       1.0  0.5691974107717996  0.6594398986839208  0.9463619147776329  1.0000
  O   O15       1.0  0.5767393409743703  0.4392476487206096  0.8565895987325194  1.0000
  O   O16       1.0  0.4232629524759517  0.5607466987356702  0.14341700751813846  1.0000
  O   O17       1.0  0.44701459955074085  0.33937283376177874  0.40626657125549315  1.0000
  O   O18       1.0  0.5529829173515495  0.6606320752400165  0.593732687347604  1.0000
  O   O19       1.0  0.43094427877181823  0.08701222012419411  0.319681393563684  1.0000
  O   O20       1.0  0.5690478512909182  0.9129855723385988  0.6803256073770639  1.0000
