data_image0
_chemical_formula_structural       Nd2H12C20N4O14
_chemical_formula_sum              "Nd2 H12 C20 N4 O14"
_cell_length_a       7.560120537974511
_cell_length_b       9.011837600422021
_cell_length_c       9.772328210319385
_cell_angle_alpha    117.4512295503926
_cell_angle_beta     92.41859567614645
_cell_angle_gamma    98.96601820572444

_space_group_name_H-M_alt    "P 1"
_space_group_IT_number       1

loop_
  _space_group_symop_operation_xyz
  'x, y, z'

loop_
  _atom_site_type_symbol
  _atom_site_label
  _atom_site_symmetry_multiplicity
  _atom_site_fract_x
  _atom_site_fract_y
  _atom_site_fract_z
  _atom_site_occupancy
  Nd  Nd1       1.0  0.12540759293225526  0.3462018308731983  0.3200261917167779  1.0000
  Nd  Nd2       1.0  0.8745984258932393  0.6537993370514952  0.6799731373638876  1.0000
  H   H1        1.0  0.725258026052657  0.21204658061068213  0.004494866814432878  1.0000
  H   H2        1.0  0.2747416671306127  0.7879559359394931  0.9955058367711445  1.0000
  H   H3        1.0  0.5381423001311347  0.22071617866007637  0.21501432559386302  1.0000
  H   H4        1.0  0.46185948554448697  0.7792837894830456  0.7849832973158898  1.0000
  H   H5        1.0  0.6642252789119353  0.26209609444709503  0.7310267897787455  1.0000
  H   H6        1.0  0.33576957113943695  0.7379026124043475  0.2689741157975263  1.0000
  H   H7        1.0  0.08011681593232106  0.37715458668372986  0.9452946259515969  1.0000
  H   H8        1.0  0.9198827286436284  0.6228414753170383  0.05470632491770996  1.0000
  H   H9        1.0  0.8272237102620322  0.08072669429208897  0.3633883911786242  1.0000
  H   H10       1.0  0.17278051478448475  0.9192783171261281  0.6366135716724557  1.0000
  H   H11       1.0  0.7519939347755128  0.2541218458169182  0.4323656426961406  1.0000
  H   H12       1.0  0.24800366591539807  0.7458832191403032  0.5676381415652543  1.0000
  C   C1        1.0  0.49409206873001915  0.2642562674518486  0.9048917128142976  1.0000
  C   C2        1.0  0.505904587655607  0.735738615650291  0.09510554464077366  1.0000
  C   C3        1.0  0.3307434940907683  0.29802846528083643  0.967883033345565  1.0000
  C   C4        1.0  0.6692549309633122  0.7019625348393459  0.03211361904067193  1.0000
  C   C5        1.0  0.4913443515971919  0.24021803353831211  0.11906268554098179  1.0000
  C   C6        1.0  0.5086508097228233  0.7597819881438141  0.880936758779093  1.0000
  C   C7        1.0  0.5346606190793467  0.2799209314761981  0.7740439374811671  1.0000
  C   C8        1.0  0.46534213751084513  0.7200776439981028  0.22595823119539202  1.0000
  C   C9        1.0  0.20338717567052098  0.3446404223477941  0.8958910402828195  1.0000
  C   C10       1.0  0.796607712046665  0.6553583437362959  0.10410682224109993  1.0000
  C   C11       1.0  0.462072100019263  0.3305552999393625  0.5564345287693726  1.0000
  C   C12       1.0  0.5379283281415396  0.6694446275766022  0.4435660957344893  1.0000
  C   C13       1.0  0.10026219971872047  0.42697117233192466  0.7064548964175116  1.0000
  C   C14       1.0  0.899737493464549  0.5730313442182434  0.2935458071680658  1.0000
  C   C15       1.0  0.40691450111251726  0.3265336754950069  0.7012936036996607  1.0000
  C   C16       1.0  0.5930890155657451  0.6734623504335174  0.29870645719361016  1.0000
  C   C17       1.0  0.2391134592247113  0.3579610274552393  0.7618363180787995  1.0000
  C   C18       1.0  0.7608890739837193  0.6420363713978855  0.23816021139845836  1.0000
  C   C19       1.0  0.9486783310944914  0.045412986490809694  0.9657747379791745  1.0000
  C   C20       1.0  0.05131529955001911  0.9545858969198446  0.034218011332555386  1.0000
  N   N1        1.0  0.3337224212838237  0.2827352664238915  0.10350085453928412  1.0000
  N   N2        1.0  0.666273761171837  0.7172634415662809  0.8964990781444512  1.0000
  N   N3        1.0  0.5911018783449791  0.2266262331697816  0.003208660953767175  1.0000
  N   N4        1.0  0.4088979649443445  0.7733711239174567  0.9967918430101291  1.0000
  O   O1        1.0  0.1320589321046057  0.4833939460721054  0.6074532768435857  1.0000
  O   O2        1.0  0.867945006783806  0.516609790003855  0.392548118562118  1.0000
  O   O3        1.0  0.9537823370647729  0.44161018843175254  0.7653657072519165  1.0000
  O   O4        1.0  0.04621871363331553  0.5583923687455792  0.23463199473955137  1.0000
  O   O5        1.0  0.6286831752967997  0.39026802800265153  0.5596341884746252  1.0000
  O   O6        1.0  0.3713167663787686  0.609735704657126  0.44037012560868766  1.0000
  O   O7        1.0  0.9293068566929817  0.19504756149741806  0.06170339665749941  1.0000
  O   O8        1.0  0.07069070838802817  0.8049512266083454  0.938291505730561  1.0000
  O   O9        1.0  0.3490003714804856  0.26258021403719295  0.4347236357934533  1.0000
  O   O10       1.0  0.6509955729822321  0.7374235152064016  0.5652835969674612  1.0000
  O   O11       1.0  0.8907515097201255  0.9676147675284099  0.8230942828012785  1.0000
  O   O12       1.0  0.10925150997353938  0.03237882618089569  0.1768985570965285  1.0000
  O   O13       1.0  0.8388068679499056  0.19044692019498646  0.3650932916069891  1.0000
  O   O14       1.0  0.16119496589087837  0.809559344543814  0.6349121988253188  1.0000
