data_image0
_chemical_formula_structural       Dy4H12C16O36
_chemical_formula_sum              "Dy4 H12 C16 O36"
_cell_length_a       10.655551626261648
_cell_length_b       9.93607156630674
_cell_length_c       12.000546317859087
_cell_angle_alpha    90.00087530162122
_cell_angle_beta     107.43207961669889
_cell_angle_gamma    90.00050029009519

_space_group_name_H-M_alt    "P 1"
_space_group_IT_number       1

loop_
  _space_group_symop_operation_xyz
  'x, y, z'

loop_
  _atom_site_type_symbol
  _atom_site_label
  _atom_site_symmetry_multiplicity
  _atom_site_fract_x
  _atom_site_fract_y
  _atom_site_fract_z
  _atom_site_occupancy
  Dy  Dy1       1.0  0.2057790460240128  0.5706494128173389  0.885218055914052  1.0000
  Dy  Dy2       1.0  0.29422748447593966  0.0706476563923886  0.6147852230556338  1.0000
  Dy  Dy3       1.0  0.7941962164027457  0.42934786703148103  0.11476764128112647  1.0000
  Dy  Dy4       1.0  0.7058081452603915  0.9293546556751262  0.38522815856062204  1.0000
  H   H1        1.0  0.09254256920020507  0.7571320424182701  0.6610593156606226  1.0000
  H   H2        1.0  0.4074542129498012  0.25713033571542343  0.8389452195126308  1.0000
  H   H3        1.0  0.9074568727563558  0.24286322458678455  0.33893779613176617  1.0000
  H   H4        1.0  0.5925457191088269  0.742869963529422  0.16105700517047689  1.0000
  H   H5        1.0  0.13160759001458902  0.5500150632271  0.6121582430724573  1.0000
  H   H6        1.0  0.3683978115744678  0.05001620021631939  0.8878496676511672  1.0000
  H   H7        1.0  0.8684226486944978  0.4499922808120544  0.38783903376775436  1.0000
  H   H8        1.0  0.6315470625082964  0.949986112176937  0.11215015947860954  1.0000
  H   H9        1.0  0.9833963944497909  0.66172337848829  0.6841184412983097  1.0000
  H   H10       1.0  0.516604427799109  0.1617244756399501  0.8158936640352009  1.0000
  H   H11       1.0  0.016589324265595493  0.3382688689697133  0.31585592031587584  1.0000
  H   H12       1.0  0.4834081649186857  0.8382637469189618  0.18415033531539388  1.0000
  C   C1        1.0  0.34486755046216183  0.8168694859022524  0.8014457082470796  1.0000
  C   C2        1.0  0.1551336949705657  0.31687170150717486  0.6985568313589353  1.0000
  C   C3        1.0  0.6551147368647962  0.18313886500886406  0.1985631025389551  1.0000
  C   C4        1.0  0.8448745697215189  0.6831366489709721  0.3014319704272737  1.0000
  C   C5        1.0  0.2849386975881956  0.8765053802096858  0.8942357736942695  1.0000
  C   C6        1.0  0.2150706020740287  0.3765082975952082  0.6057721607212656  1.0000
  C   C7        1.0  0.7150119765824812  0.12349693201196735  0.10575431651110989  1.0000
  C   C8        1.0  0.7849694391001591  0.6235050851617385  0.3942370659236757  1.0000
  C   C9        1.0  0.4954646233205508  0.4403135769936027  0.9577728306376725  1.0000
  C   C10       1.0  0.004541668897573499  0.9403139156787503  0.5422141209280014  1.0000
  C   C11       1.0  0.504513417013804  0.5597008120581605  0.04220170292673938  1.0000
  C   C12       1.0  0.9954997610824279  0.059698460556901985  0.4577895238344708  1.0000
  C   C13       1.0  0.9471766293249928  0.5397345168531161  0.9522234101320348  1.0000
  C   C14       1.0  0.5528296477471031  0.0397366322700066  0.5477829339617201  1.0000
  C   C15       1.0  0.05279830610744089  0.4602426342695977  0.04775887835164379  1.0000
  C   C16       1.0  0.447208595271917  0.9602405191782989  0.4522476818906325  1.0000
  O   O1        1.0  0.3430232349774657  0.6904894843582381  0.7954698232704515  1.0000
  O   O2        1.0  0.15697712086780766  0.1904898359924658  0.7045323696665589  1.0000
  O   O3        1.0  0.6569543962962214  0.3095198728934889  0.20453055199440226  1.0000
  O   O4        1.0  0.8430318790391665  0.8095165015798998  0.29545406723910606  1.0000
  O   O5        1.0  0.38599070969000576  0.8984388416509715  0.7398107239439182  1.0000
  O   O6        1.0  0.1140075057861623  0.39844026098471363  0.7601952195165393  1.0000
  O   O7        1.0  0.6140227004969816  0.10157152228650544  0.2602217286886486  1.0000
  O   O8        1.0  0.8859770692289641  0.6015590316333785  0.2397872804501872  1.0000
  O   O9        1.0  0.20980563168760105  0.8055003933478347  0.9303561515806958  1.0000
  O   O10       1.0  0.2902057994534104  0.30550343777662897  0.5696558133853314  1.0000
  O   O11       1.0  0.79014414393405  0.1944908479719203  0.06962456497875273  1.0000
  O   O12       1.0  0.7098414299384855  0.6945059194135934  0.4303681968801455  1.0000
  O   O13       1.0  0.315773211148624  0.9993369878932583  0.9324139756525652  1.0000
  O   O14       1.0  0.18424332143539596  0.49933715890772845  0.5676013699709087  1.0000
  O   O15       1.0  0.6841458499363853  0.0006774015931724998  0.06756742824878609  1.0000
  O   O16       1.0  0.8158208994087772  0.5006832689112316  0.432419271334794  1.0000
  O   O17       1.0  0.3805330749899127  0.410400061768378  0.8915872199246806  1.0000
  O   O18       1.0  0.1194692686303966  0.9104009698393368  0.608407919193688  1.0000
  O   O19       1.0  0.6194452919181898  0.5896072822921639  0.10839072216057129  1.0000
  O   O20       1.0  0.8805683217624106  0.0896104001282012  0.39160584560868716  1.0000
  O   O21       1.0  0.5998114753828219  0.37995113558469734  0.9605029588076943  1.0000
  O   O22       1.0  0.9001916914730046  0.8799488884827226  0.5394762273291461  1.0000
  O   O23       1.0  0.4001677085510664  0.620063253487494  0.03947347060313431  1.0000
  O   O24       1.0  0.09985022882609938  0.12005543606564117  0.4605124619331774  1.0000
  O   O25       1.0  0.9870562918181989  0.5993644177547707  0.875981391353136  1.0000
  O   O26       1.0  0.5129512590978891  0.09936311885199699  0.6240298586507294  1.0000
  O   O27       1.0  0.012917581638667698  0.40060971405723933  0.12399985340550047  1.0000
  O   O28       1.0  0.48708837245487757  0.9006090004818219  0.3760052094404357  1.0000
  O   O29       1.0  0.8309633594337738  0.5377364976307247  0.9588823348575699  1.0000
  O   O30       1.0  0.6690426108645084  0.03774414074694479  0.5411214248091838  1.0000
  O   O31       1.0  0.1690148435493342  0.46224669213382436  0.04110393692259609  1.0000
  O   O32       1.0  0.33099310005237464  0.9622400556633787  0.4589028429720584  1.0000
  O   O33       1.0  0.07610681860909099  0.6642557605790101  0.6871301959835205  1.0000
  O   O34       1.0  0.4238942770654218  0.16425111170070744  0.8128777853415201  1.0000
  O   O35       1.0  0.9238849448335034  0.33573950632965927  0.3128570534542163  1.0000
  O   O36       1.0  0.5761090855041786  0.8357441555782473  0.18714016099506378  1.0000
