data_image0
_chemical_formula_structural       La2H38C32N4Cl8O18
_chemical_formula_sum              "La2 H38 C32 N4 Cl8 O18"
_cell_length_a       9.370123092406164
_cell_length_b       10.992196040364913
_cell_length_c       12.524
_cell_angle_alpha    89.56607875852623
_cell_angle_beta     72.39741534554499
_cell_angle_gamma    79.94692857522773

_space_group_name_H-M_alt    "P 1"
_space_group_IT_number       1

loop_
  _space_group_symop_operation_xyz
  'x, y, z'

loop_
  _atom_site_type_symbol
  _atom_site_label
  _atom_site_symmetry_multiplicity
  _atom_site_fract_x
  _atom_site_fract_y
  _atom_site_fract_z
  _atom_site_occupancy
  La  La1       1.0  0.12763893735856158  0.5444386844664848  0.10837380617564919  1.0000
  La  La2       1.0  0.872363170921126  0.4555604578773611  0.8916254829715057  1.0000
  H   H1        1.0  0.4148968443321052  0.21995661400928412  0.7968722842861098  1.0000
  H   H2        1.0  0.58510679509628  0.7800406783428501  0.2031282676583075  1.0000
  H   H3        1.0  0.44044053495987623  0.3530348424648295  0.7190528863256488  1.0000
  H   H4        1.0  0.5595619848214638  0.6469624498873046  0.2809487174139917  1.0000
  H   H5        1.0  0.2716270890025996  0.2882916076867446  0.7353892984901833  1.0000
  H   H6        1.0  0.7283754307787478  0.7117056846653966  0.2646131037163996  1.0000
  H   H7        1.0  0.5039083468105475  0.3311207656981878  0.0840575948827507  1.0000
  H   H8        1.0  0.4960933499674951  0.6688802266373628  0.9159433720066373  1.0000
  H   H9        1.0  0.6217656483739447  0.0597695320735099  0.18025156685653337  1.0000
  H   H10       1.0  0.3782362541549205  0.9402305352661885  0.8197485611617379  1.0000
  H   H11       1.0  0.6487870855464379  0.1561938748359637  0.06291315863072806  1.0000
  H   H12       1.0  0.3512136973353818  0.8438061925037347  0.9370872227158242  1.0000
  H   H13       1.0  0.5456160971297024  0.031642258158513  0.07022860154646078  1.0000
  H   H14       1.0  0.4543835661050722  0.9683578091811853  0.9297720331283728  1.0000
  H   H15       1.0  0.3528442699782133  0.1184013192471411  0.3368354911473901  1.0000
  H   H16       1.0  0.6471551875057387  0.8815996730884096  0.6631643854646679  1.0000
  H   H17       1.0  0.29787972343924457  0.0485447073905831  0.23091848546304303  1.0000
  H   H18       1.0  0.7021219733387981  0.9514562849449675  0.7690816829594024  1.0000
  H   H19       1.0  0.20786923363463933  0.20249176729825544  0.2844838187029595  1.0000
  H   H20       1.0  0.7921313434963582  0.7975092250372954  0.7155150061138824  1.0000
  H   H21       1.0  0.03028965125998441  0.3527961935346156  0.34495613431352723  1.0000
  H   H22       1.0  0.969707566929884  0.6472047988009351  0.655045845888985  1.0000
  H   H23       1.0  0.9170999727498952  0.2549603070996298  0.48897386217917926  1.0000
  H   H24       1.0  0.08289592004210529  0.7450416102317732  0.5110276132888386  1.0000
  H   H25       1.0  0.7198949857844923  0.3152145370004007  0.5520434197181459  1.0000
  H   H26       1.0  0.2800995816096332  0.6847883053268546  0.44795834948232727  1.0000
  H   H27       1.0  0.8559026127732422  0.3449346537752263  0.6179144210957118  1.0000
  H   H28       1.0  0.14409216037171296  0.6550672635561767  0.38208810616752226  1.0000
  H   H29       1.0  0.790845240418811  0.6373230680973734  0.4797947392540962  1.0000
  H   H30       1.0  0.20915177202022758  0.3626788492340296  0.5202040874848137  1.0000
  H   H31       1.0  0.7290635333158236  0.5670067333015966  0.612351519127003  1.0000
  H   H32       1.0  0.27093683806434404  0.4329951840298066  0.3876473460940133  1.0000
  H   H33       1.0  0.6359479247700861  0.5561852068108237  0.5081282303461803  1.0000
  H   H34       1.0  0.36404929341978226  0.443815785524734  0.4918729513893823  1.0000
  H   H35       1.0  0.3094180853259303  0.7227593851154168  0.16277476282783707  1.0000
  H   H36       1.0  0.6905824918050598  0.2772416072201338  0.8372248604559474  1.0000
  H   H37       1.0  0.4578272079161323  0.6149751682754143  0.1030936542449581  1.0000
  H   H38       1.0  0.5421735749656875  0.3850248990642839  0.8969075255685367  1.0000
  C   C1        1.0  0.07726072535147215  0.8525242784235161  0.22164167726323566  1.0000
  C   C2        1.0  0.9227371100908712  0.1474739389244704  0.7783593832598045  1.0000
  C   C3        1.0  0.966112947363435  0.9750159293350933  0.24842787927866536  1.0000
  C   C4        1.0  0.0338855962243017  0.024984138004605  0.751570613323615  1.0000
  C   C5        1.0  0.8422031999104432  0.9946952161195455  0.3467653208823265  1.0000
  C   C6        1.0  0.1577975829713836  0.0053048512201528  0.6532334635303344  1.0000
  C   C7        1.0  0.7390366931302736  0.10781381670731352  0.3721571745335979  1.0000
  C   C8        1.0  0.26096388400072373  0.8921871756282371  0.6278416502832441  1.0000
  C   C9        1.0  0.7628274125456613  0.2030828396486797  0.29681580298606036  1.0000
  C   C10       1.0  0.2371733703361656  0.7969172276910186  0.7031829814266075  1.0000
  C   C11       1.0  0.8871664732851272  0.18686951232751173  0.19941535814027134  1.0000
  C   C12       1.0  0.11283430959669263  0.8131305550121866  0.8005834262723964  1.0000
  C   C13       1.0  0.9861668506206629  0.0728378734925812  0.1763844389932529  1.0000
  C   C14       1.0  0.013832812614118983  0.9271621938471172  0.8236130018138041  1.0000
  C   C15       1.0  0.27603113226796694  0.3876176624418122  0.8821189299447524  1.0000
  C   C16       1.0  0.7239700621155052  0.6123805549061814  0.1178821690603938  1.0000
  C   C17       1.0  0.3539706501676747  0.3073779721290606  0.7762970447931322  1.0000
  C   C18       1.0  0.6460329892607106  0.6926193202230806  0.22370510408517671  1.0000
  C   C19       1.0  0.4071985311427325  0.3063567767067283  0.1506731258728067  1.0000
  C   C20       1.0  0.5928020459882646  0.6936442156288223  0.8493280943448622  1.0000
  C   C21       1.0  0.5691175836590858  0.1043774571113474  0.11903410454827673  1.0000
  C   C22       1.0  0.430883199222734  0.895622610228351  0.8809662767982757  1.0000
  C   C23       1.0  0.3150981451755471  0.1362380142913011  0.26223107596136686  1.0000
  C   C24       1.0  0.6849026377062728  0.8637620530483971  0.737767708451301  1.0000
  C   C25       1.0  0.9581627755962714  0.44387776024692027  0.3745683800443516  1.0000
  C   C26       1.0  0.041836681887680506  0.5561232320886305  0.6254322950346561  1.0000
  C   C27       1.0  0.8354868782566457  0.3340826024212831  0.5370779762832782  1.0000
  C   C28       1.0  0.1645078948883167  0.665919314910127  0.46292295404607126  1.0000
  C   C29       1.0  0.7460528775419065  0.5582238976720646  0.5219179002679155  1.0000
  C   C30       1.0  0.25394525454417766  0.4417780196593455  0.47808147160965575  1.0000
  C   C31       1.0  0.9204386880099662  0.2931506109054851  0.1236656567046666  1.0000
  C   C32       1.0  0.07956291787515828  0.7068457564508037  0.8763313691574125  1.0000
  N   N1        1.0  0.4285477157256494  0.1876603837823012  0.1764544327336424  1.0000
  N   N2        1.0  0.5714528614053479  0.8123406085532495  0.8235459890170842  1.0000
  N   N3        1.0  0.8532115053706519  0.44544840320626383  0.4744744799928782  1.0000
  N   N4        1.0  0.14678550706839394  0.5545535141251463  0.5255259436799165  1.0000
  Cl  Cl1       1.0  0.8179462761933821  0.8781309386375682  0.43982258383910267  1.0000
  Cl  Cl2       1.0  0.18205338704139254  0.1218691287021301  0.5601764539018389  1.0000
  Cl  Cl3       1.0  0.5871316730794547  0.1300534920144116  0.4923730533420141  1.0000
  Cl  Cl4       1.0  0.41287002369858794  0.8699475003211391  0.5076255181465469  1.0000
  Cl  Cl5       1.0  0.6382343981403266  0.3429357377356865  0.3235492877106338  1.0000
  Cl  Cl6       1.0  0.3617672986377158  0.6570652545998641  0.6764500822448696  1.0000
  Cl  Cl7       1.0  0.137007218854805  0.054547005484323605  0.05403778088113851  1.0000
  Cl  Cl8       1.0  0.8629924443799696  0.9454530618553747  0.9459620553267456  1.0000
  O   O1        1.0  0.027683085942243214  0.7617165104838648  0.19291961992205836  1.0000
  O   O2        1.0  0.9723160748979682  0.23828078186826931  0.8070811468685333  1.0000
  O   O3        1.0  0.2082463983850431  0.8530006512880989  0.22975276916193368  1.0000
  O   O4        1.0  0.7917480781161785  0.1469975660598877  0.7702498498128917  1.0000
  O   O5        1.0  0.8484080122632136  0.3149379632401903  0.053211784498287805  1.0000
  O   O6        1.0  0.15159665591929897  0.685054704132682  0.946783774623597  1.0000
  O   O7        1.0  0.018946825216985992  0.3486420371562886  0.1412430534049847  1.0000
  O   O8        1.0  0.9810513068690984  0.6513598801751215  0.858755520005644  1.0000
  O   O9        1.0  0.13180822831938602  0.41996384244487933  0.9146719427550067  1.0000
  O   O10       1.0  0.8681940857111317  0.5800343749031072  0.08532570905408926  1.0000
  O   O11       1.0  0.3547378394843648  0.4224502312992442  0.939838775606155  1.0000
  O   O12       1.0  0.6452609098541943  0.5775489110446017  0.060164467393612114  1.0000
  O   O13       1.0  0.28915638590626  0.38410082820658437  0.19675486442483248  1.0000
  O   O14       1.0  0.7108466362696505  0.615899239133114  0.8032450102651651  1.0000
  O   O15       1.0  0.9766291076938604  0.5371404671819136  0.3170371688780093  1.0000
  O   O16       1.0  0.023370555540921597  0.4628596001577847  0.682963465796817  1.0000
  O   O17       1.0  0.3449191244459727  0.6399648562551405  0.12048915269095054  1.0000
  O   O18       1.0  0.6550844001245012  0.3600379860721219  0.8795057990816274  1.0000
