data_image0
_chemical_formula_structural       Zn2H28C32O12
_chemical_formula_sum              "Zn2 H28 C32 O12"
_cell_length_a       5.546820957292328
_cell_length_b       7.905242884086419
_cell_length_c       15.531536166024448
_cell_angle_alpha    90.000120784999
_cell_angle_beta     95.77616752795403
_cell_angle_gamma    90.00044900048019

_space_group_name_H-M_alt    "P 1"
_space_group_IT_number       1

loop_
  _space_group_symop_operation_xyz
  'x, y, z'

loop_
  _atom_site_type_symbol
  _atom_site_label
  _atom_site_symmetry_multiplicity
  _atom_site_fract_x
  _atom_site_fract_y
  _atom_site_fract_z
  _atom_site_occupancy
  Zn  Zn1       1.0  0.008849872937872807  0.9142825413755558  0.42459449235401786  1.0000
  Zn  Zn2       1.0  0.9911443694841611  0.41428537488207695  0.5754069302596817  1.0000
  H   H1        1.0  0.18562558678313218  0.7431325175161587  0.745197530555579  1.0000
  H   H2        1.0  0.8143719540800304  0.24313851556411237  0.2548025336090873  1.0000
  H   H3        1.0  0.41542647965572854  0.7444754584397443  0.8886518434939816  1.0000
  H   H4        1.0  0.5845747686618877  0.2444811341317532  0.1113470919119521  1.0000
  H   H5        1.0  0.880227496564217  0.07937510653211888  0.9804645275641235  1.0000
  H   H6        1.0  0.11978239644685118  0.5793778429496683  0.0195365037703468  1.0000
  H   H7        1.0  0.6536381374752905  0.0756944856492723  0.8377886821347573  1.0000
  H   H8        1.0  0.3463752983246735  0.5757089110390223  0.1622131391505874  1.0000
  H   H9        1.0  0.6058933063229334  0.7591284036961949  0.9989505633232197  1.0000
  H   H10       1.0  0.3941102424668728  0.25911761152431717  0.0010426921989434917  1.0000
  H   H11       1.0  0.8325885854223003  0.7624899120939971  0.1426711958688927  1.0000
  H   H12       1.0  0.16742403201224929  0.26249213906751107  0.8573230930361007  1.0000
  H   H13       1.0  0.28057601541220123  0.07127908353261597  0.2388408825164277  1.0000
  H   H14       1.0  0.7194263265023652  0.5713099097018243  0.7611636818282292  1.0000
  H   H15       1.0  0.0494482095365072  0.06759086254571399  0.0967430440801991  1.0000
  H   H16       1.0  0.9505613984044246  0.5676043034870517  0.9032605364866839  1.0000
  H   H17       1.0  0.7431545413969189  0.1531101866280835  0.6945086517259824  1.0000
  H   H18       1.0  0.2568472756529019  0.653115777527496  0.3054914833046496  1.0000
  H   H19       1.0  0.359107047536142  0.9066634374131083  0.6092976561424307  1.0000
  H   H20       1.0  0.6408705577149335  0.4066601654132  0.39070755799054513  1.0000
  H   H21       1.0  0.3429691604053318  0.12973089115117628  0.5959042968341136  1.0000
  H   H22       1.0  0.6570357789103553  0.629727376513074  0.4040998058246075  1.0000
  H   H23       1.0  0.3281543560577589  0.039689513523199986  0.7006203282761803  1.0000
  H   H24       1.0  0.6718366084675365  0.539680675743277  0.29938564568015374  1.0000
  H   H25       1.0  0.4034947603019887  0.0679008578535729  0.39047128865576036  1.0000
  H   H26       1.0  0.5964968343288178  0.5679002351174062  0.6095295951162996  1.0000
  H   H27       1.0  0.22412244936603537  0.20876395698706315  0.4291155257047592  1.0000
  H   H28       1.0  0.7758746155681138  0.7087552353240979  0.5708851198885725  1.0000
  C   C1        1.0  0.9054619361308622  0.9076745109519563  0.7819428631510021  1.0000
  C   C2        1.0  0.09454335844089462  0.4076793900783144  0.2180538691919622  1.0000
  C   C3        1.0  0.12019841261813718  0.814996141238737  0.7979402022063411  1.0000
  C   C4        1.0  0.8798019652501239  0.3150022910758849  0.2020581390603553  1.0000
  C   C5        1.0  0.24877220934327238  0.8178010551711593  0.8794253454707216  1.0000
  C   C6        1.0  0.7512283380293282  0.3178025180127548  0.12057043060516291  1.0000
  C   C7        1.0  0.16833867863645216  0.9120207169400201  0.9480738367432407  1.0000
  C   C8        1.0  0.8316594916292956  0.4120160292411228  0.05192131035001071  1.0000
  C   C9        1.0  0.9515956366698574  0.004321213331685699  0.9300664803366131  1.0000
  C   C10       1.0  0.0483989963855223  0.504326291223677  0.0699299465438799  1.0000
  C   C11       1.0  0.8213059910518011  0.0036212272975148993  0.8485464350537484  1.0000
  C   C12       1.0  0.17869950334765858  0.5036246758211647  0.1514504524029121  1.0000
  C   C13       1.0  0.3066168255612213  0.9133339089835244  0.034685989093262  1.0000
  C   C14       1.0  0.6933810613841658  0.41332514752660626  0.9653149432209742  1.0000
  C   C15       1.0  0.5302452580320817  0.8278152890546548  0.0506539727718476  1.0000
  C   C16       1.0  0.4697662552636359  0.3278142343182394  0.9493429254708372  1.0000
  C   C17       1.0  0.6602608281720422  0.8289339834836581  0.1319273287970972  1.0000
  C   C18       1.0  0.33974536444493  0.3289383552118891  0.8680674128982346  1.0000
  C   C19       1.0  0.5727329000604869  0.916940030428698  0.2008269323789591  1.0000
  C   C20       1.0  0.42726510013357444  0.41694840547237527  0.7991727212749353  1.0000
  C   C21       1.0  0.35049369006731007  0.0018391789888169995  0.1862342523808493  1.0000
  C   C22       1.0  0.6495206733107962  0.5018521211663795  0.8137662294844361  1.0000
  C   C23       1.0  0.22069524487699968  0.9997233134530317  0.1049604322525681  1.0000
  C   C24       1.0  0.7793090561905771  0.4997362528208881  0.8950434547512741  1.0000
  C   C25       1.0  0.7965006549491775  0.0497774297129396  0.5702193600003511  1.0000
  C   C26       1.0  0.20349439649380227  0.5497730376728639  0.4297803604019563  1.0000
  C   C27       1.0  0.6860425132935005  0.040146979651026996  0.6565845317280719  1.0000
  C   C28       1.0  0.31396858633988234  0.5401504423975182  0.343418434466308  1.0000
  C   C29       1.0  0.41152378665444184  0.028250376838016695  0.639854409456845  1.0000
  C   C30       1.0  0.588474377647394  0.5282527098569431  0.360149924423922  1.0000
  C   C31       1.0  0.7171432337683044  0.9250680389838237  0.2861641188780979  1.0000
  C   C32       1.0  0.2828442008472578  0.4250779618809658  0.7138312321453668  1.0000
  O   O1        1.0  0.8311479680629147  0.19124559870203228  0.5358608186119795  1.0000
  O   O2        1.0  0.168814515193354  0.6912335569182486  0.4641370483104765  1.0000
  O   O3        1.0  0.8419837382750469  0.9092438018948739  0.5340007793698334  1.0000
  O   O4        1.0  0.1580122175947665  0.4092384027498852  0.46600135379217983  1.0000
  O   O5        1.0  0.7825100949301812  0.8906043958480722  0.7013211986815975  1.0000
  O   O6        1.0  0.2174966582072315  0.3906139316270013  0.2986781504613559  1.0000
  O   O7        1.0  0.6474000694107361  0.012614029778198699  0.34840283522062526  1.0000
  O   O8        1.0  0.35259275862126316  0.5126199354226697  0.6515954570635003  1.0000
  O   O9        1.0  0.9198470841250668  0.8452658201862772  0.29779923533601493  1.0000
  O   O10       1.0  0.08014801470592661  0.34526079664760795  0.7022034266274702  1.0000
  O   O11       1.0  0.2662234815179971  0.08650468866471069  0.4269694934724626  1.0000
  O   O12       1.0  0.7337721094935503  0.5865020922734911  0.5730290071397235  1.0000
