data_image0
_chemical_formula_structural       Gd2H26C44O18
_chemical_formula_sum              "Gd2 H26 C44 O18"
_cell_length_a       6.099235202997816
_cell_length_b       13.357909316580352
_cell_length_c       14.373668270931988
_cell_angle_alpha    60.6660043066262
_cell_angle_beta     79.16477054364432
_cell_angle_gamma    77.97674323694756

_space_group_name_H-M_alt    "P 1"
_space_group_IT_number       1

loop_
  _space_group_symop_operation_xyz
  'x, y, z'

loop_
  _atom_site_type_symbol
  _atom_site_label
  _atom_site_symmetry_multiplicity
  _atom_site_fract_x
  _atom_site_fract_y
  _atom_site_fract_z
  _atom_site_occupancy
  Gd  Gd1       1.0  0.5891028658073694  0.45499116818252355  0.8237873622804699  1.0000
  Gd  Gd2       1.0  0.410890870848533  0.5450047473523583  0.1762234832168872  1.0000
  H   H1        1.0  0.8785577983813936  0.5629073459132243  0.6016696914073449  1.0000
  H   H2        1.0  0.12141857814325621  0.43709826811281954  0.3983399871534773  1.0000
  H   H3        1.0  0.04403580108541411  0.4681250758359353  0.6866294321339765  1.0000
  H   H4        1.0  0.9559489430077335  0.5318751656015338  0.31337378599276616  1.0000
  H   H5        1.0  0.8862228570179268  0.41645659178446676  0.20576562125847894  1.0000
  H   H6        1.0  0.113767188797013  0.5835374226362048  0.7942303542765005  1.0000
  H   H7        1.0  0.6379724569196411  0.8410824588690176  0.7337315102871926  1.0000
  H   H8        1.0  0.36201905234270987  0.1589099466957649  0.26627554377143525  1.0000
  H   H9        1.0  0.09097467171041268  0.8059375199138401  0.0005937878412539019  1.0000
  H   H10       1.0  0.9090338096156431  0.19406161176657824  0.9994061861567333  1.0000
  H   H11       1.0  0.19253759668368528  0.0169818970283799  0.6027302042070417  1.0000
  H   H12       1.0  0.807453240089835  0.9830078311325108  0.3972711731061197  1.0000
  H   H13       1.0  0.14284820087290476  0.1835045391318957  0.4202680187831902  1.0000
  H   H14       1.0  0.8571563803940663  0.8164910979546247  0.5797282742440615  1.0000
  H   H15       1.0  0.426177416867489  0.22173114096415247  0.5037156034971845  1.0000
  H   H16       1.0  0.5738298769637069  0.7782678943777909  0.49627614717152835  1.0000
  H   H17       1.0  0.474115722632497  0.053440599213871585  0.6843523135243288  1.0000
  H   H18       1.0  0.5258718560264697  0.9465568968290582  0.31564222898853  1.0000
  H   H19       1.0  0.8611146634995492  0.1525387793706301  0.7259195817450672  1.0000
  H   H20       1.0  0.13890720550563887  0.8474679850488867  0.27407384173884003  1.0000
  H   H21       1.0  0.05214172361541361  0.3088330758816511  0.6989773384266442  1.0000
  H   H22       1.0  0.9478912922569053  0.6911684155306687  0.30101912645066164  1.0000
  H   H23       1.0  0.5414344097503658  0.06122836339415019  0.9094378327818048  1.0000
  H   H24       1.0  0.45855136364593824  0.9387728316337484  0.09057252831857476  1.0000
  H   H25       1.0  0.3603494119152159  0.9010985386374984  0.9310934125563148  1.0000
  H   H26       1.0  0.6396509004649572  0.09890509906997381  0.06891340774826922  1.0000
  C   C1        1.0  0.5874306101747135  0.6495103685070446  0.9130301337591078  1.0000
  C   C2        1.0  0.41256488636326344  0.3504932687812712  0.0869735455339509  1.0000
  C   C3        1.0  0.9150410817123171  0.6168195272718505  0.07039638407295723  1.0000
  C   C4        1.0  0.08497110175915881  0.3831778498426814  0.9296048352171906  1.0000
  C   C5        1.0  0.8770174216333118  0.7236408896355114  0.9661153691793487  1.0000
  C   C6        1.0  0.12299990465930927  0.2763572334354691  0.033879576969432924  1.0000
  C   C7        1.0  0.7402109855588037  0.7349243499065069  0.8919567548814769  1.0000
  C   C8        1.0  0.25978260279197224  0.2650809986428158  0.10804348520208865  1.0000
  C   C9        1.0  0.7369374628143889  0.8345577691649022  0.7927247402018625  1.0000
  C   C10       1.0  0.26304477369190243  0.16544596320438387  0.20727773938586583  1.0000
  C   C11       1.0  0.8569687303865832  0.9255049563798323  0.765379540221332  1.0000
  C   C12       1.0  0.14303417468300236  0.07448987606916548  0.23462072156198135  1.0000
  C   C13       1.0  0.9845720667295979  0.9179810069208753  0.8424060524638153  1.0000
  C   C14       1.0  0.015440803358075095  0.08202232765248849  0.15758541041956417  1.0000
  C   C15       1.0  0.9934427649513464  0.8153922942659475  0.9400451127877576  1.0000
  C   C16       1.0  0.006572090653470808  0.1846084904135594  0.0599522586269643  1.0000
  C   C17       1.0  0.8367638246080062  0.024739814338758492  0.6562104291487358  1.0000
  C   C18       1.0  0.16322705541931987  0.9752568402475885  0.3437884451992946  1.0000
  C   C19       1.0  0.024664471928403514  0.06224864962894119  0.5809789933498237  1.0000
  C   C20       1.0  0.9753354105482759  0.9377522548173046  0.419017983310667  1.0000
  C   C21       1.0  0.9975956496190932  0.1552689413756667  0.4791440742622441  1.0000
  C   C22       1.0  0.0023993765845063578  0.8447319719609611  0.5208504558698194  1.0000
  C   C23       1.0  0.7811757735879323  0.21376996532874407  0.45128715853584117  1.0000
  C   C24       1.0  0.21882530273837392  0.7862387912047167  0.5487123746838307  1.0000
  C   C25       1.0  0.5931957768130758  0.17555726394965626  0.525601646737961  1.0000
  C   C26       1.0  0.40679713480810875  0.82445070290332  0.4743988246942339  1.0000
  C   C27       1.0  0.6203986195984472  0.08122636168788937  0.6261815380341884  1.0000
  C   C28       1.0  0.3795991964993134  0.9187771112713178  0.37381091906118535  1.0000
  C   C29       1.0  0.7435594120208721  0.3162091976786029  0.34601172769244937  1.0000
  C   C30       1.0  0.2564282432591014  0.6837935754527675  0.6539873339482797  1.0000
  C   C31       1.0  0.098557559190013  0.0135433111133523  0.8273577934996508  1.0000
  C   C32       1.0  0.9014549101206127  0.9864609365693011  0.17263675592672473  1.0000
  C   C33       1.0  0.015286142764047411  0.13042934653846316  0.7633519062818337  1.0000
  C   C34       1.0  0.984723893466736  0.8695706177081488  0.23664618240940188  1.0000
  C   C35       1.0  0.12221291038237328  0.21980445043815414  0.7491465095071917  1.0000
  C   C36       1.0  0.8778083932992827  0.7801963285938668  0.25085458693416746  1.0000
  C   C37       1.0  0.3124529382729051  0.19605618707829106  0.801764953549707  1.0000
  C   C38       1.0  0.6875641383707033  0.8039403518225609  0.19824187607382282  1.0000
  C   C39       1.0  0.393875526910655  0.0800252461245421  0.8682127416508081  1.0000
  C   C40       1.0  0.6061280903697224  0.9199783701400858  0.13179455220089428  1.0000
  C   C41       1.0  0.290292799046263  0.9902912203458099  0.8802330091119547  1.0000
  C   C42       1.0  0.709706359206244  0.009710671686178795  0.1197726099563781  1.0000
  C   C43       1.0  0.4196021872509377  0.2911758661898671  0.7934123284414413  1.0000
  C   C44       1.0  0.580401791084526  0.7088207305537324  0.20659052354434243  1.0000
  O   O1        1.0  0.6113187918173183  0.6112976675630007  0.8459565884276118  1.0000
  O   O2        1.0  0.38869251983379627  0.38870401443043084  0.15404061805056557  1.0000
  O   O3        1.0  0.8862482570619078  0.4906125886573561  0.6682494457855626  1.0000
  O   O4        1.0  0.1137421051364669  0.5093797112593988  0.3317486904606994  1.0000
  O   O5        1.0  0.43460977431797687  0.6283344085618339  0.990306486062508  1.0000
  O   O6        1.0  0.5653919794468578  0.3716656139466891  0.009690766002513802  1.0000
  O   O7        1.0  0.8031974748355069  0.5313616372598986  0.10318362918712871  1.0000
  O   O8        1.0  0.1967928859450083  0.4686428940994318  0.8968186066711822  1.0000
  O   O9        1.0  0.05750975808272331  0.6140236335070384  0.12507065307996612  1.0000
  O   O10       1.0  0.9424903563837717  0.3859747550406709  0.874933731546065  1.0000
  O   O11       1.0  0.5523396783801927  0.3736663833256131  0.3276230511359017  1.0000
  O   O12       1.0  0.44764471243047416  0.6263364019390564  0.6723748424746178  1.0000
  O   O13       1.0  0.9231041415681601  0.3416309793429235  0.27601148589281627  1.0000
  O   O14       1.0  0.07687491628028913  0.6583613351117065  0.7239804787983745  1.0000
  O   O15       1.0  0.35928551440370876  0.39777170668400424  0.7277070087463002  1.0000
  O   O16       1.0  0.6407206111724548  0.6022223029275152  0.2722989738383887  1.0000
  O   O17       1.0  0.5686910451521289  0.2645239042333429  0.8571734889074136  1.0000
  O   O18       1.0  0.43131516128580927  0.7354700867590651  0.14283110471106403  1.0000
