data_image0
_chemical_formula_structural       Zn5H16C28N18O10F8
_chemical_formula_sum              "Zn5 H16 C28 N18 O10 F8"
_cell_length_a       10.026388841726147
_cell_length_b       10.264103060640538
_cell_length_c       12.865726766904993
_cell_angle_alpha    74.67863345539861
_cell_angle_beta     83.17088078896718
_cell_angle_gamma    60.90280817783416

_space_group_name_H-M_alt    "P 1"
_space_group_IT_number       1

loop_
  _space_group_symop_operation_xyz
  'x, y, z'

loop_
  _atom_site_type_symbol
  _atom_site_label
  _atom_site_symmetry_multiplicity
  _atom_site_fract_x
  _atom_site_fract_y
  _atom_site_fract_z
  _atom_site_occupancy
  Zn  Zn1       1.0  0.5000006250234962  0.5000001255427762  0.9999999298696522  1.0000
  Zn  Zn2       1.0  0.484127193116052  0.40991711837244776  0.283676557377362  1.0000
  Zn  Zn3       1.0  0.5158733214447653  0.5900836450227728  0.7163236480788768  1.0000
  Zn  Zn4       1.0  0.15564678596243203  0.11295395347049457  0.1469234732226781  1.0000
  Zn  Zn5       1.0  0.8443537285983781  0.8870468099247261  0.8530767322335608  1.0000
  H   H1        1.0  0.2998574548885742  0.3084467004925884  0.9806693834077294  1.0000
  H   H2        1.0  0.7001415212830865  0.69155520976323  0.019329938863492734  1.0000
  H   H3        1.0  0.31679614311003945  0.8892585308125901  0.9886183243279023  1.0000
  H   H4        1.0  0.683202365421508  0.11074223548619945  0.011381282484173003  1.0000
  H   H5        1.0  0.8710264737942737  0.17008735958965812  0.3347232642706928  1.0000
  H   H6        1.0  0.12897403408655356  0.8299134088419392  0.665277717987131  1.0000
  H   H7        1.0  0.8709792140702391  0.2999663862402002  0.9950983456412176  1.0000
  H   H8        1.0  0.1290192877813255  0.700034385094966  0.004902037972442528  1.0000
  H   H9        1.0  0.2707711308189076  0.23266999341954184  0.3173829481960625  1.0000
  H   H10       1.0  0.7292299291364017  0.7673296170122937  0.6826166759207412  1.0000
  H   H11       1.0  0.29659934562161544  0.7707412565594467  0.32662517818176445  1.0000
  H   H12       1.0  0.703402714008334  0.22925835493879276  0.6733751336579062  1.0000
  H   H13       1.0  0.1055436694198875  0.129734374216298  0.38793298563722095  1.0000
  H   H14       1.0  0.894457397215419  0.8702652311791608  0.6120658616779977  1.0000
  H   H15       1.0  0.24763791180067335  0.9654922145539685  0.400343842985933  1.0000
  H   H16       1.0  0.752361596405514  0.034508552811225  0.5996564515490164  1.0000
  C   C1        1.0  0.8355607396183659  0.2239200861076611  0.25118108349053614  1.0000
  C   C2        1.0  0.16443977494245124  0.7760806772875597  0.7488191219657028  1.0000
  C   C3        1.0  0.834105656359945  0.2915886706945727  0.07888968927445462  1.0000
  C   C4        1.0  0.16589439056075864  0.7084109487436052  0.9211108007226373  1.0000
  C   C5        1.0  0.2944264572986696  0.2713192554964933  0.23411973193064037  1.0000
  C   C6        1.0  0.705574602656647  0.7286803549353421  0.7658798921861631  1.0000
  C   C7        1.0  0.3108737051600556  0.30985588620758614  0.06297749064688674  1.0000
  C   C8        1.0  0.6891258030461317  0.6901448811576073  0.9370228038880627  1.0000
  C   C9        1.0  0.3212444985082286  0.7647508624070125  0.2431633586408283  1.0000
  C   C10       1.0  0.678756561447088  0.23524874802482287  0.7568362654759754  1.0000
  C   C11       1.0  0.33217138530191914  0.8231778302309677  0.07137073791683697  1.0000
  C   C12       1.0  0.6678275841897516  0.17682408506122727  0.9286293611559701  1.0000
  C   C13       1.0  0.4912097016656035  0.27301075575083905  0.5087354964546478  1.0000
  C   C14       1.0  0.50879088396961  0.7269877157603373  0.4912651890045866  1.0000
  C   C15       1.0  0.3976776046425741  0.25851047683915596  0.6079567822573395  1.0000
  C   C16       1.0  0.6023225200325159  0.741486845678608  0.39204341094116313  1.0000
  C   C17       1.0  0.30173607515295947  0.3844654077433489  0.6514861666987173  1.0000
  C   C18       1.0  0.6982619657384747  0.6155342145983979  0.348513724654211  1.0000
  C   C19       1.0  0.396998209819735  0.12012103446608083  0.6569564361823838  1.0000
  C   C20       1.0  0.6030013761408455  0.8798774359786845  0.3430435615539766  1.0000
  C   C21       1.0  0.2109091394004068  0.3715582155542378  0.7401163910499663  1.0000
  C   C22       1.0  0.789087837421981  0.6284436925687726  0.25988155577551453  1.0000
  C   C23       1.0  0.30663436899798313  0.10800002743732758  0.7460430162934842  1.0000
  C   C24       1.0  0.6933636008190547  0.8920018867884706  0.2539563950564557  1.0000
  C   C25       1.0  0.21101491298331615  0.23329015883895468  0.7891343878583045  1.0000
  C   C26       1.0  0.7889821215534881  0.7667094674727649  0.21086559257334167  1.0000
  C   C27       1.0  0.10557530188801684  0.22124348946373829  0.8831028488613201  1.0000
  C   C28       1.0  0.8944226679290146  0.7787584247620527  0.11689656248861983  1.0000
  N   N1        1.0  0.6907631477175046  0.3162851775393207  0.2196716193159389  1.0000
  N   N2        1.0  0.30923688584321957  0.6837144519716174  0.7803304242843226  1.0000
  N   N3        1.0  0.690017223975275  0.359212501041057  0.10900262086114765  1.0000
  N   N4        1.0  0.30998336165993845  0.6407859704701194  0.8909980645980868  1.0000
  N   N5        1.0  0.929581389073377  0.2057508260895133  0.16530177148055003  1.0000
  N   N6        1.0  0.07041865784732  0.7942487933486715  0.8346987185165421  1.0000
  N   N7        1.0  0.3693051839916848  0.35159824047615  0.20246278623480415  1.0000
  N   N8        1.0  0.6306943308944852  0.6484025218526668  0.7975367314985605  1.0000
  N   N9        1.0  0.3798059564785561  0.3770843259098058  0.09250951693964282  1.0000
  N   N10       1.0  0.6201940193677444  0.6229175854124236  0.9074904930544535  1.0000
  N   N11       1.0  0.2559291441118675  0.24120203247539954  0.149311418764178  1.0000
  N   N12       1.0  0.7440709094888264  0.7587975819264016  0.8506882944313361  1.0000
  N   N13       1.0  0.39769896352465395  0.6339285084174902  0.2116265730869672  1.0000
  N   N14       1.0  0.6023020964306625  0.36607110201433807  0.7883730510298365  1.0000
  N   N15       1.0  0.4041840315961948  0.6710312715672018  0.10110365029586894  1.0000
  N   N16       1.0  0.5958144702553625  0.3289694997679646  0.8988967333177911  1.0000
  N   N17       1.0  0.2788162011128606  0.8870875001063112  0.15759936108495523  1.0000
  N   N18       1.0  0.7211823074186867  0.11291326619247849  0.84240024572712  1.0000
  O   O1        1.0  0.41108999951298847  0.38218318928107203  0.4297160839916502  1.0000
  O   O2        1.0  0.5889105861222248  0.6178152822301044  0.5702846014675843  1.0000
  O   O3        1.0  0.6315004824772004  0.183827934057426  0.5079416976820853  1.0000
  O   O4        1.0  0.3685011095126427  0.8161705334837775  0.4920588986984385  1.0000
  O   O5        1.0  0.9705597592524883  0.26828072564857297  0.8592722360883231  1.0000
  O   O6        1.0  0.029438749279059186  0.7317200406502095  0.14072737072375938  1.0000
  O   O7        1.0  0.17206517665961482  0.1632574643653513  0.9754231327923152  1.0000
  O   O8        1.0  0.8279317868027931  0.8367444538304124  0.024576367636335358  1.0000
  O   O9        1.0  0.16519133433127564  0.050541481425966595  0.34886401066711414  1.0000
  O   O10       1.0  0.8348097189440512  0.9494581340422453  0.651136390251267  1.0000
  F   F1        1.0  0.2970518942778213  0.5224022318925705  0.6077744239805156  1.0000
  F   F2        1.0  0.7029471596482323  0.4775973814428339  0.39222460149212424  1.0000
  F   F3        1.0  0.4807392789829875  0.9960030099587982  0.6147791132492844  1.0000
  F   F4        1.0  0.5192618320067623  0.003994323698123  0.38522332127525527  1.0000
  F   F5        1.0  0.11939996704811771  0.49763018817871074  0.7793867160972926  1.0000
  F   F6        1.0  0.8805965488141467  0.5023705709508874  0.2206107384674638  1.0000
  F   F7        1.0  0.3103515101203983  0.97037776065833  0.7904339024477381  1.0000
  F   F8        1.0  0.6896475237656859  0.0296218677862043  0.2095674534296492  1.0000
