data_image0
_chemical_formula_structural       Zn2H24C54I2N6O16
_chemical_formula_sum              "Zn2 H24 C54 I2 N6 O16"
_cell_length_a       9.511041625265484
_cell_length_b       10.849017999195407
_cell_length_c       27.976735760700077
_cell_angle_alpha    87.12628885128962
_cell_angle_beta     87.75403060706797
_cell_angle_gamma    85.40299328112201

_space_group_name_H-M_alt    "P 1"
_space_group_IT_number       1

loop_
  _space_group_symop_operation_xyz
  'x, y, z'

loop_
  _atom_site_type_symbol
  _atom_site_label
  _atom_site_symmetry_multiplicity
  _atom_site_fract_x
  _atom_site_fract_y
  _atom_site_fract_z
  _atom_site_occupancy
  Zn  Zn1       1.0  0.34597685954076934  0.5106154640823136  0.49832028654942917  1.0000
  Zn  Zn2       1.0  0.6421516795374415  0.48754618096359786  0.5023045328223006  1.0000
  H   H1        1.0  0.3002373715881673  0.49471571775800527  0.34551467471303  1.0000
  H   H2        1.0  0.24338556564910618  0.4966436939086948  0.6523258905471323  1.0000
  H   H3        1.0  0.3210387999018777  0.4975617757377294  0.2557009664444436  1.0000
  H   H4        1.0  0.23346493917552644  0.4933974838902983  0.7421950194925274  1.0000
  H   H5        1.0  0.636783746890586  0.18829774350039236  0.1230515354926425  1.0000
  H   H6        1.0  0.3756106766045448  0.81424540289332  0.8777574493777249  1.0000
  H   H7        1.0  0.6842343469633576  0.555404871061576  0.6509993905095113  1.0000
  H   H8        1.0  0.7514059823450339  0.45545023354113573  0.3523920478890048  1.0000
  H   H9        1.0  0.6748731975584475  0.5542505154929458  0.7408579291221855  1.0000
  H   H10       1.0  0.773403375687927  0.4598501745249521  0.2625843367091889  1.0000
  H   H11       1.0  0.48070985070415867  0.20049459464873826  0.8811273976420819  1.0000
  H   H12       1.0  0.5306136511923539  0.8020114015257535  0.11937033197096267  1.0000
  H   H13       1.0  0.5016529439789109  0.19280994920237757  0.9686818624857522  1.0000
  H   H14       1.0  0.5100457714420513  0.8093570885630041  0.031775411687000585  1.0000
  H   H15       1.0  0.5017712217980302  0.0467200821577265  0.5839637950302361  1.0000
  H   H16       1.0  0.49832842087074164  0.9512514735666288  0.4143711780727273  1.0000
  H   H17       1.0  0.2832972382255505  0.9295511267181096  0.5397827605242327  1.0000
  H   H18       1.0  0.7159160297124173  0.06858757453680649  0.45858769807742306  1.0000
  H   H19       1.0  0.10469510987122989  0.41430850268204716  0.5724132708342893  1.0000
  H   H20       1.0  0.8836197097678279  0.5830958699103945  0.4277783249208369  1.0000
  H   H21       1.0  0.9277119421067254  0.28769505150719965  0.5111538854797857  1.0000
  H   H22       1.0  0.060293934350696084  0.7094107153655216  0.4890552138800714  1.0000
  H   H23       1.0  0.10871040005567774  0.3834565814133413  0.4353116019060366  1.0000
  H   H24       1.0  0.879577470414347  0.6137305172245249  0.5648231071376271  1.0000
  C   C1        1.0  0.5066435222349381  0.2584517533149082  0.5075966572696301  1.0000
  C   C2        1.0  0.49079150851964926  0.7392300793425903  0.49195392446630837  1.0000
  C   C3        1.0  0.5116317101512279  0.47925922828102335  0.4075477118461777  1.0000
  C   C4        1.0  0.4715554929021124  0.5200354475893931  0.5930423307384416  1.0000
  C   C5        1.0  0.5795338933553963  0.3717563706237215  0.18012305582598737  1.0000
  C   C6        1.0  0.4325439224153199  0.6310253174899002  0.8205678048297285  1.0000
  C   C7        1.0  0.5409087968945199  0.6025000670617047  0.17916968971946548  1.0000
  C   C8        1.0  0.46868999710069653  0.4001196699312216  0.8214194703374034  1.0000
  C   C9        1.0  0.6701952568728871  0.46751679022994336  0.2809962663708987  1.0000
  C   C10       1.0  0.5810188249793667  0.5412272343842163  0.7211283645080541  1.0000
  C   C11       1.0  0.6579646360292626  0.4652662284844736  0.33079404025853165  1.0000
  C   C12       1.0  0.586269592965344  0.5418428949254092  0.6713409596573711  1.0000
  C   C13       1.0  0.4031148797476332  0.4872415786296855  0.32694409464092894  1.0000
  C   C14       1.0  0.3372436734038402  0.5088083821821029  0.6721354323946684  1.0000
  C   C15       1.0  0.4147103332014907  0.48876469736672584  0.2772232226738963  1.0000
  C   C16       1.0  0.33163120474575436  0.5073316959582855  0.7219587456446988  1.0000
  C   C17       1.0  0.5481938226583267  0.48003056401645233  0.2545985835879279  1.0000
  C   C18       1.0  0.45405523945712634  0.5226907659301504  0.7460662775352203  1.0000
  C   C19       1.0  0.542276001647515  0.4934585466164022  0.1015230220608458  1.0000
  C   C20       1.0  0.47002149257124143  0.5089438450269412  0.8990658312825559  1.0000
  C   C21       1.0  0.5726841563133078  0.3795727854085626  0.12718008128814517  1.0000
  C   C22       1.0  0.4400638500387684  0.6230454450187821  0.8734817409864988  1.0000
  C   C23       1.0  0.6035742423320584  0.27295714212623773  0.10254392827581428  1.0000
  C   C24       1.0  0.4088478800903274  0.7295110859136145  0.89819086233679  1.0000
  C   C25       1.0  0.5349460364293036  0.6044263438041213  0.1263432034037777  1.0000
  C   C26       1.0  0.4765876184496634  0.3980642270328972  0.8742090376888995  1.0000
  C   C27       1.0  0.5246519521202869  0.4762988394495125  0.3540364326021574  1.0000
  C   C28       1.0  0.4646819621971544  0.5246301962494115  0.6465610521961053  1.0000
  C   C29       1.0  0.5144112966971973  0.3888037067078329  0.9747465084868664  1.0000
  C   C30       1.0  0.4978554233515027  0.6132363855702678  0.025851705602960396  1.0000
  C   C31       1.0  0.46788751439227344  0.6201090621391643  0.9748527870147327  1.0000
  C   C32       1.0  0.5442648188807624  0.38189556997325264  0.025781806115467994  1.0000
  C   C33       1.0  0.48741919172857  0.5068586934334719  0.9497354289001122  1.0000
  C   C34       1.0  0.5249954059102605  0.4952551628117518  0.0508629135657515  1.0000
  C   C35       1.0  0.5008215961062061  0.2822411203651214  0.9494622235363791  1.0000
  C   C36       1.0  0.5111980773275205  0.7199649024148301  0.05105342313438399  1.0000
  C   C37       1.0  0.4855331642569212  0.285470847520756  0.9000129556659217  1.0000
  C   C38       1.0  0.526200202732852  0.7169664689302734  0.10050595672737467  1.0000
  C   C39       1.0  0.5965400798902677  0.2747968430997716  0.0525218208219513  1.0000
  C   C40       1.0  0.4151175913263144  0.7272220864960061  0.9482287460608987  1.0000
  C   C41       1.0  0.4990646381761791  0.024656153536987798  0.5463687327776725  1.0000
  C   C42       1.0  0.5002663529842194  0.9731860215484927  0.45200557100972816  1.0000
  C   C43       1.0  0.6142430690464095  0.941578454175598  0.519211365383768  1.0000
  C   C44       1.0  0.38495709503531816  0.056410886290876816  0.4790391720064875  1.0000
  C   C45       1.0  0.4937266655669103  0.8757673045259436  0.4957705450954747  1.0000
  C   C46       1.0  0.504775888686815  0.1222887035761531  0.5027391043081764  1.0000
  C   C47       1.0  0.37923959656929895  0.9613845600226794  0.5222899795084288  1.0000
  C   C48       1.0  0.6198878042096182  0.03689471434184811  0.4761058615226759  1.0000
  C   C49       1.0  0.9636947206360985  0.38065004019974685  0.5063186579492224  1.0000
  C   C50       1.0  0.024581988059153972  0.6163443170913325  0.4938349389745653  1.0000
  C   C51       1.0  0.0484968592003057  0.45078896853203065  0.5408055822780042  1.0000
  C   C52       1.0  0.9396980737126271  0.5461867475264979  0.459363561888992  1.0000
  C   C53       1.0  0.051331119066325884  0.434356387542877  0.4636539785827337  1.0000
  C   C54       1.0  0.9369566963389173  0.5626862721363467  0.5365040318465688  1.0000
  I   I1        1.0  0.6947171578855205  0.10794564649449259  0.025384915340175996  1.0000
  I   I2        1.0  0.3142818613964095  0.8926283791810261  0.9756713142108991  1.0000
  N   N1        1.0  0.5574042535037476  0.48467523746913355  0.20289845678509263  1.0000
  N   N2        1.0  0.4513075408975026  0.5180090438989993  0.7977912564562287  1.0000
  N   N3        1.0  0.13514931898884439  0.5047333191617868  0.49815552976848204  1.0000
  N   N4        1.0  0.8531019556649397  0.49229311167458445  0.5020154732963746  1.0000
  N   N5        1.0  0.7343016072156627  0.8707209227045141  0.5411114502683319  1.0000
  N   N6        1.0  0.2645881775752556  0.1264333406172895  0.45688180241777576  1.0000
  O   O1        1.0  0.3882179870100231  0.32034630050510776  0.5042802631574332  1.0000
  O   O2        1.0  0.6094105433480621  0.6784317441362971  0.486503425164365  1.0000
  O   O3        1.0  0.6253694262206934  0.2984703555540662  0.5147475776195306  1.0000
  O   O4        1.0  0.3693893245339764  0.6980031930027336  0.4947277793185875  1.0000
  O   O5        1.0  0.38853620449659587  0.5030159203834329  0.42601097370864227  1.0000
  O   O6        1.0  0.5935285852890003  0.520301349317542  0.5723925205303002  1.0000
  O   O7        1.0  0.6248347218796296  0.45915167296767123  0.4306583025140539  1.0000
  O   O8        1.0  0.35585328196978583  0.5149256444214744  0.5720819987256007  1.0000
  O   O9        1.0  0.6006841961386941  0.2731634513347601  0.20325926149700985  1.0000
  O   O10       1.0  0.41247161209255245  0.7297919220042035  0.79744496375735  1.0000
  O   O11       1.0  0.47861236323453227  0.30558789169679557  0.7986944247826884  1.0000
  O   O12       1.0  0.5299170866824169  0.6971107433053161  0.2018508025370025  1.0000
  O   O13       1.0  0.7112107699555777  0.8171671706318052  0.5805599977410125  1.0000
  O   O14       1.0  0.8494978621768249  0.8668026148415682  0.5185642808819181  1.0000
  O   O15       1.0  0.15032719103604109  0.133100158760648  0.4800030509253047  1.0000
  O   O16       1.0  0.28636121901774897  0.17627021420933178  0.41667789481092393  1.0000
