data_image0
_chemical_formula_structural       Cd2H28C24S2N8O14
_chemical_formula_sum              "Cd2 H28 C24 S2 N8 O14"
_cell_length_a       7.449710324117732
_cell_length_b       8.25652815687328
_cell_length_c       15.77724510519811
_cell_angle_alpha    83.68531432414741
_cell_angle_beta     76.35248634647881
_cell_angle_gamma    62.25454031471073

_space_group_name_H-M_alt    "P 1"
_space_group_IT_number       1

loop_
  _space_group_symop_operation_xyz
  'x, y, z'

loop_
  _atom_site_type_symbol
  _atom_site_label
  _atom_site_symmetry_multiplicity
  _atom_site_fract_x
  _atom_site_fract_y
  _atom_site_fract_z
  _atom_site_occupancy
  Cd  Cd1       1.0  0.06548435247947276  0.5750019577724075  0.35164154848546747  1.0000
  Cd  Cd2       1.0  0.41716933755196073  0.07491728846858338  0.6484297983428817  1.0000
  H   H1        1.0  0.6167541369645445  0.653396768281766  0.4857054483556665  1.0000
  H   H2        1.0  0.1024067531713157  0.15345109721710062  0.5144048718349052  1.0000
  H   H3        1.0  0.2770643283298071  0.6642061141969152  0.4804614096243823  1.0000
  H   H4        1.0  0.7575333000323212  0.16424434609329813  0.5195945815025239  1.0000
  H   H5        1.0  0.505818873007982  0.49227875396442755  0.2216140926833886  1.0000
  H   H6        1.0  0.7272856813526829  0.9924935080746949  0.7785105811180627  1.0000
  H   H7        1.0  0.8401379908086284  0.463447813448191  0.14602903296307798  1.0000
  H   H8        1.0  0.9864012360994249  0.9631110984958156  0.8540497940447549  1.0000
  H   H9        1.0  0.010526857927025903  0.3146672070768517  0.21445798946221115  1.0000
  H   H10       1.0  0.2250849734141624  0.8143344275381496  0.78555609145571  1.0000
  H   H11       1.0  0.7357532295593927  0.873480935144457  0.22008103727853975  1.0000
  H   H12       1.0  0.9565517700422814  0.3730311291030262  0.7797844673230115  1.0000
  H   H13       1.0  0.9369581338988909  0.8900169230934836  0.13813155380955777  1.0000
  H   H14       1.0  0.07571700043725847  0.3895750755693755  0.8617684570113223  1.0000
  H   H15       1.0  0.45062557788129715  0.8718300007608022  0.18079586053119098  1.0000
  H   H16       1.0  0.6317964379146516  0.37190409633930693  0.8190085130652774  1.0000
  H   H17       1.0  0.27946960434425694  0.8425976824544178  0.07002688609438928  1.0000
  H   H18       1.0  0.34974425810735704  0.34293389298377974  0.9297934686562568  1.0000
  H   H19       1.0  0.47591880551444604  0.7604282256925714  0.916512215932016  1.0000
  H   H20       1.0  0.39245685988926476  0.2610359993199651  0.0833257273044268  1.0000
  H   H21       1.0  0.8382031359709998  0.7124849506981619  0.8744240455484513  1.0000
  H   H22       1.0  0.712589887043613  0.2130263826558121  0.12553335391265105  1.0000
  H   H23       1.0  0.013553649203686355  0.734873970574597  0.986131147310736  1.0000
  H   H24       1.0  0.9998366396019304  0.2350723328200743  0.013811356959585868  1.0000
  H   H25       1.0  0.8658766899001404  0.6385640033485416  0.5411302257002857  1.0000
  H   H26       1.0  0.40694021022243015  0.138497886188695  0.4589371398551377  1.0000
  H   H27       1.0  0.10176554956716885  0.5008739286044773  0.5415239247090893  1.0000
  H   H28       1.0  0.6432455529294997  0.0008576473220855991  0.458558798217723  1.0000
  C   C1        1.0  0.5936139072627283  0.6166449779378951  0.42630684535330216  1.0000
  C   C2        1.0  0.019861286181232053  0.1166923801954596  0.5737908234753987  1.0000
  C   C3        1.0  0.40496958203286937  0.6232105024711956  0.42368994498119145  1.0000
  C   C4        1.0  0.8286169536567201  0.1232742727681142  0.5763937063648538  1.0000
  C   C5        1.0  0.5321499657891877  0.5284797497783771  0.2804160404106922  1.0000
  C   C6        1.0  0.8124864561413289  0.028601362184652104  0.7196988994965421  1.0000
  C   C7        1.0  0.7222875132612357  0.5210853428467672  0.2827629022008082  1.0000
  C   C8        1.0  0.005050437095810912  0.021049403898736302  0.717341497058342  1.0000
  C   C9        1.0  0.8987457057106523  0.45747496701466167  0.20452533827821634  1.0000
  C   C10       1.0  0.1034245547265228  0.9571558541827585  0.7955344898089077  1.0000
  C   C11       1.0  0.8482941793378773  0.8122530465671641  0.15961269179501866  1.0000
  C   C12       1.0  0.008441821876374447  0.3118577094200958  0.8403053913663852  1.0000
  C   C13       1.0  0.744003129444671  0.8028976175138781  0.09110415558757266  1.0000
  C   C14       1.0  0.83544162353747  0.3028493303452323  0.9087773952840335  1.0000
  C   C15       1.0  0.5369531290545237  0.8337271114385914  0.11397111993131395  1.0000
  C   C16       1.0  0.6512586105029076  0.3338245557998079  0.8858511244834159  1.0000
  C   C17       1.0  0.44034989854480944  0.8193125754139674  0.051259932517631106  1.0000
  C   C18       1.0  0.49187263748878945  0.31957809999169484  0.9485659193340505  1.0000
  C   C19       1.0  0.5488149647810444  0.7749444689174678  0.965342266766356  1.0000
  C   C20       1.0  0.5143179086125044  0.2753064460701039  0.034501989397639876  1.0000
  C   C21       1.0  0.7543273666184546  0.7468641219308835  0.9418270911172896  1.0000
  C   C22       1.0  0.6962495456096888  0.24722634760406242  0.05809743168828868  1.0000
  C   C23       1.0  0.8518355463707935  0.7597216106933403  0.004283409888714101  1.0000
  C   C24       1.0  0.8562895645694438  0.25989913169992457  0.9956405549467318  1.0000
  S   S1        1.0  0.04741079384536572  0.5850313634022652  0.18341844273953703  1.0000
  S   S2        1.0  0.23116416142709528  0.08458827698994041  0.8166439903418021  1.0000
  N   N1        1.0  0.7495859911232685  0.5662882095556868  0.3561843698674635  1.0000
  N   N2        1.0  0.10576041593345296  0.066248013205751  0.643919725720515  1.0000
  N   N3        1.0  0.37642022898936717  0.5783302581598379  0.35055469171337705  1.0000
  N   N4        1.0  0.7268919281985617  0.07847238251142839  0.6495369626340659  1.0000
  N   N5        1.0  0.9363997683985587  0.0031545596666830997  0.3354473920818747  1.0000
  N   N6        1.0  0.27166985936256766  0.5031117944375724  0.6646438383581239  1.0000
  N   N7        1.0  0.35465921099268627  0.149708407704729  0.31475838299430586  1.0000
  N   N8        1.0  0.6687957449669144  0.6495494045138699  0.6852345765139061  1.0000
  O   O1        1.0  0.002224872853012932  0.5666946387450481  0.5026417658483949  1.0000
  O   O2        1.0  0.5048094678335104  0.06653036327045922  0.49742365495266927  1.0000
  O   O3        1.0  0.0667421667837898  0.9432742725490755  0.26578151461328037  1.0000
  O   O4        1.0  0.33239148077559844  0.4433206788613333  0.7343243920435965  1.0000
  O   O5        1.0  0.8580564880349537  0.16532976985308068  0.3599118135849223  1.0000
  O   O6        1.0  0.2178471099965409  0.6652450211850436  0.6400976655307173  1.0000
  O   O7        1.0  0.8781123424251259  0.8914815879181078  0.3859051188995933  1.0000
  O   O8        1.0  0.2637217933968896  0.39139611046195455  0.6142559211025753  1.0000
  O   O9        1.0  0.4394335684198227  0.980527954108247  0.32467927974361277  1.0000
  O   O10       1.0  0.7637925196026953  0.4803953046181065  0.675243008700427  1.0000
  O   O11       1.0  0.367989825764738  0.22589824430646394  0.24172401562915974  1.0000
  O   O12       1.0  0.6083213957712204  0.7255628424838179  0.758342760647764  1.0000
  O   O13       1.0  0.24855528616044617  0.2532143926845194  0.38395265508565757  1.0000
  O   O14       1.0  0.6323440845349778  0.7532552877532696  0.6160433215470319  1.0000
