data_image0
_chemical_formula_structural       Sm2H26C24S6N12O16
_chemical_formula_sum              "Sm2 H26 C24 S6 N12 O16"
_cell_length_a       9.801711771076265
_cell_length_b       10.307788344430818
_cell_length_c       11.032850789380038
_cell_angle_alpha    104.27308010545941
_cell_angle_beta     109.77211414799746
_cell_angle_gamma    94.8088736510154

_space_group_name_H-M_alt    "P 1"
_space_group_IT_number       1

loop_
  _space_group_symop_operation_xyz
  'x, y, z'

loop_
  _atom_site_type_symbol
  _atom_site_label
  _atom_site_symmetry_multiplicity
  _atom_site_fract_x
  _atom_site_fract_y
  _atom_site_fract_z
  _atom_site_occupancy
  Sm  Sm1       1.0  0.7695971787629076  0.0090919183484885  0.500266331179823  1.0000
  Sm  Sm2       1.0  0.23040298492732353  0.9909047161302807  0.4997348113805841  1.0000
  H   H1        1.0  0.5425391047163187  0.8471042721222447  0.5731513387731438  1.0000
  H   H2        1.0  0.45745910466446554  0.1528934238680577  0.4268476652630042  1.0000
  H   H3        1.0  0.6933631784694326  0.8635230507684497  0.6903965614611636  1.0000
  H   H4        1.0  0.3066337378934207  0.1364736173533672  0.3096027109915553  1.0000
  H   H5        1.0  0.6720768489465172  0.2241661221832345  0.3374219824486318  1.0000
  H   H6        1.0  0.32792198771595343  0.775834643998806  0.6625770528817013  1.0000
  H   H7        1.0  0.5508283578017482  0.08713061732606059  0.2665043748503066  1.0000
  H   H8        1.0  0.4491715543891956  0.9128700644422167  0.7334994941961385  1.0000
  H   H9        1.0  0.4258667625027144  0.5476337174756979  0.5977008623093099  1.0000
  H   H10       1.0  0.574129538431009  0.45236000593909853  0.4022911611117052  1.0000
  H   H11       1.0  0.3330102292116948  0.37199264149834477  0.5266038003837821  1.0000
  H   H12       1.0  0.6669869031590493  0.6280051232201344  0.47339127215344223  1.0000
  H   H13       1.0  0.43868084367223753  0.4365849991150128  0.700123990833717  1.0000
  H   H14       1.0  0.5613182533789498  0.563411813891065  0.2998669047074287  1.0000
  H   H15       1.0  0.49623260119787466  0.6876184496941986  0.937817128108243  1.0000
  H   H16       1.0  0.503766401165393  0.31238840011479135  0.062185256049040995  1.0000
  H   H17       1.0  0.6065808649346492  0.6459989424244057  0.08288403124005574  1.0000
  H   H18       1.0  0.39342226650012435  0.35400692801494665  0.9171157233986662  1.0000
  H   H19       1.0  0.5640482647565435  0.8112609409896195  0.10206630421701843  1.0000
  H   H20       1.0  0.4359516104614229  0.18874486897924206  0.897936993617165  1.0000
  H   H21       1.0  0.9561505330083763  0.7834036551465073  0.8656740108547681  1.0000
  H   H22       1.0  0.043852836591554506  0.21659802683302593  0.134331137252623  1.0000
  H   H23       1.0  0.9130838721831436  0.6970541946867711  0.9737137052869185  1.0000
  H   H24       1.0  0.08691620719015697  0.30295258639404204  0.02629261036929618  1.0000
  H   H25       1.0  0.057396523663705075  0.8404695781344386  0.044149070164131374  1.0000
  H   H26       1.0  0.9426046416090514  0.1595372283317289  0.9558557636878647  1.0000
  C   C1        1.0  0.060067737352227396  0.27085254127209885  0.5794154421219133  1.0000
  C   C2        1.0  0.939934584802792  0.7291440028070822  0.42059085678477  1.0000
  C   C3        1.0  0.10699509262020261  0.42215028328817544  0.6294040807747976  1.0000
  C   C4        1.0  0.8930130703058977  0.5778483613128882  0.3705990403204781  1.0000
  C   C5        1.0  0.23368760593267265  0.5050969573652466  0.6409302263062671  1.0000
  C   C6        1.0  0.766315148238128  0.4949017799072664  0.3590676727694273  1.0000
  C   C7        1.0  0.3646270373202397  0.46318296651709545  0.613322730468127  1.0000
  C   C8        1.0  0.6353740155219753  0.5368128006630285  0.38666940138008227  1.0000
  C   C9        1.0  0.4230788635104545  0.8203171796778437  0.30241900025271923  1.0000
  C   C10       1.0  0.5769273436246252  0.17968251074915997  0.6975828845354927  1.0000
  C   C11       1.0  0.3443184977882368  0.7076162854548969  0.1765220973674673  1.0000
  C   C12       1.0  0.6556814188474148  0.2923844433701532  0.8234790650274064  1.0000
  C   C13       1.0  0.38393831952109986  0.6567337532715173  0.06621204224396143  1.0000
  C   C14       1.0  0.6160620157962029  0.3432690275765538  0.9337888402746373  1.0000
  C   C15       1.0  0.5200918250107165  0.7039062520117553  0.045673898970598224  1.0000
  C   C16       1.0  0.47990676015246686  0.29609856145980024  0.954327862845773  1.0000
  C   C17       1.0  0.9312973482746756  0.9821765035398753  0.24429509545690556  1.0000
  C   C18       1.0  0.06869840231649961  0.017830332855389496  0.7557081252442686  1.0000
  C   C19       1.0  0.8364787308873858  0.9674450768304723  0.10106213056960206  1.0000
  C   C20       1.0  0.16352073009364423  0.032558728172134  0.8989387404892851  1.0000
  C   C21       1.0  0.8416231774482341  0.887535797194225  0.9811744745067301  1.0000
  C   C22       1.0  0.15837240892371796  0.11246497125969057  0.018824495150298  1.0000
  C   C23       1.0  0.9486481379234772  0.7971902999069869  0.9647905474784294  1.0000
  C   C24       1.0  0.051351735812915  0.2028154943762885  0.035213652572949186  1.0000
  S   S1        1.0  0.9971081384998685  0.5249403170870791  0.6778948682545476  1.0000
  S   S2        1.0  0.002898979944454461  0.4750532209847973  0.322107599205637  1.0000
  S   S3        1.0  0.17850147035208855  0.617358463036794  0.14883494524991647  1.0000
  S   S4        1.0  0.8214989063828994  0.38263923666745814  0.8511638018293725  1.0000
  S   S5        1.0  0.6910476590156803  0.0479319595917644  0.06210314647412924  1.0000
  S   S6        1.0  0.3089531319562511  0.9520677450787433  0.9378980273804487  1.0000
  N   N1        1.0  0.23004318284296232  0.6404477921903081  0.6847151310330873  1.0000
  N   N2        1.0  0.7699572027814412  0.3595500016274897  0.315278202743059  1.0000
  N   N3        1.0  0.11188495459851573  0.6673318327804055  0.7092224098333588  1.0000
  N   N4        1.0  0.8881132607085434  0.33266592595225564  0.29077298533403  1.0000
  N   N5        1.0  0.28014999028913223  0.5504813806211571  0.9695478698063413  1.0000
  N   N6        1.0  0.7198514309276262  0.4495214256122749  0.030451530908038565  1.0000
  N   N7        1.0  0.1661487329250022  0.517361068821984  0.9985032768013298  1.0000
  N   N8        1.0  0.8338507354638762  0.48264281460857456  0.0014930831716100065  1.0000
  N   N9        1.0  0.7294195771719458  0.8957024900644724  0.870373652947066  1.0000
  N   N10       1.0  0.27057838663581885  0.10429931595769662  0.12962446870636776  1.0000
  N   N11       1.0  0.6406820972428092  0.9764124432024628  0.896513851633287  1.0000
  N   N12       1.0  0.3593130689659247  0.0235862575428385  0.10348630011721131  1.0000
  O   O1        1.0  0.9351434727890721  0.22526240244457085  0.579154559679779  1.0000
  O   O2        1.0  0.06486796851109486  0.7747310175704951  0.42085461160419857  1.0000
  O   O3        1.0  0.64897819387366  0.854647446070338  0.5925783960383697  1.0000
  O   O4        1.0  0.35101938822542417  0.1453471797282262  0.4074205767036005  1.0000
  O   O5        1.0  0.14691342247893147  0.20278478307708528  0.5410607655426816  1.0000
  O   O6        1.0  0.8530945348102674  0.7972128747264334  0.4589402399477578  1.0000
  O   O7        1.0  0.6222858490908365  0.14468283015070676  0.35442304779562755  1.0000
  O   O8        1.0  0.37771469186336043  0.8553209374949018  0.6455799503278071  1.0000
  O   O9        1.0  0.5529752547654068  0.8733892596800031  0.322733054245397  1.0000
  O   O10       1.0  0.44701599245343004  0.1266114542892325  0.6772691359769212  1.0000
  O   O11       1.0  0.35483786532469  0.8529029212746267  0.3816869967615233  1.0000
  O   O12       1.0  0.6451566691576432  0.14709266222215692  0.6183158303463613  1.0000
  O   O13       1.0  0.8675634939142896  0.9989885491891358  0.32790330873803003  1.0000
  O   O14       1.0  0.13243730150234256  0.0010112025381375034  0.6720951584649768  1.0000
  O   O15       1.0  0.066239123207751  0.975867931315612  0.27023807922721227  1.0000
  O   O16       1.0  0.9337599989638505  0.02412362800515669  0.7297606052637138  1.0000
