data_image0
_chemical_formula_structural       Zn2H48C42N8O8
_chemical_formula_sum              "Zn2 H48 C42 N8 O8"
_cell_length_a       9.992950168163315
_cell_length_b       11.244600500867511
_cell_length_c       11.7274
_cell_angle_alpha    117.87247973089491
_cell_angle_beta     92.97037085854822
_cell_angle_gamma    102.7720070404326

_space_group_name_H-M_alt    "P 1"
_space_group_IT_number       1

loop_
  _space_group_symop_operation_xyz
  'x, y, z'

loop_
  _atom_site_type_symbol
  _atom_site_label
  _atom_site_symmetry_multiplicity
  _atom_site_fract_x
  _atom_site_fract_y
  _atom_site_fract_z
  _atom_site_occupancy
  Zn  Zn1       1.0  0.2632026340586719  0.3504095578418713  0.1698420561001726  1.0000
  Zn  Zn2       1.0  0.7367952312010785  0.6495921591487246  0.8301560611835015  1.0000
  H   H1        1.0  0.1027946464383476  0.7221361902062924  0.4156884826493935  1.0000
  H   H2        1.0  0.8972026391278475  0.2778634322547546  0.5843103755541676  1.0000
  H   H3        1.0  0.9300175071113159  0.6155392976810248  0.380306432378859  1.0000
  H   H4        1.0  0.06997906624988559  0.3844613720448038  0.6196920111185946  1.0000
  H   H5        1.0  0.9541408991616577  0.759736137471485  0.26825019017412893  1.0000
  H   H6        1.0  0.045860684458404  0.2402645322543364  0.7317476218502178  1.0000
  H   H7        1.0  0.08938277442564409  0.6911968469186718  0.194697434948587  1.0000
  H   H8        1.0  0.9106182295008479  0.3088017282776008  0.8053011179956542  1.0000
  H   H9        1.0  0.8725721389404697  0.5740592344194653  0.0323730546173522  1.0000
  H   H10       1.0  0.1274254364725067  0.4259414353063562  0.9676254331262584  1.0000
  H   H11       1.0  0.924252392898964  0.4526917194885911  0.06623081362549495  1.0000
  H   H12       1.0  0.0757461845657801  0.5473089502372304  0.9337660129564326  1.0000
  H   H13       1.0  0.698923478885689  0.5960538892523104  0.18444285997073  1.0000
  H   H14       1.0  0.3010776823761674  0.4039488750030671  0.8155592831111136  1.0000
  H   H15       1.0  0.75206257514494  0.4732484797835141  0.21733335855739708  1.0000
  H   H16       1.0  0.24794059022045897  0.5267542844718633  0.7826671676089205  1.0000
  H   H17       1.0  0.6117360603965878  0.421111450157845  0.9532462675106571  1.0000
  H   H18       1.0  0.388264388660275  0.5788923613623069  0.04675631356899865  1.0000
  H   H19       1.0  0.6817588231305223  0.2964743745952205  0.9713247843456401  1.0000
  H   H20       1.0  0.31824033402779145  0.703528389660157  0.02867641753994823  1.0000
  H   H21       1.0  0.9291561087929877  0.21763523496702666  0.07466904436335402  1.0000
  H   H22       1.0  0.07084246867175639  0.7823654347587947  0.9253294876264277  1.0000
  H   H23       1.0  0.8224339107761479  0.9849242460055337  0.8247658534787021  1.0000
  H   H24       1.0  0.17756479920002016  0.0150732819259645  0.1752372449527755  1.0000
  H   H25       1.0  0.2652292316175958  0.0959242171895198  0.8927510470858238  1.0000
  H   H26       1.0  0.734769188511791  0.9040722634772039  0.10725327450952443  1.0000
  H   H27       1.0  0.9554567292157898  0.8062357408060734  0.6635718817718086  1.0000
  H   H28       1.0  0.0445464113256762  0.1937596925958687  0.3364304734025367  1.0000
  H   H29       1.0  0.13739101920772612  0.8725370265318375  0.6843617350496984  1.0000
  H   H30       1.0  0.8626137030790701  0.1274605013996606  0.3156467450823115  1.0000
  H   H31       1.0  0.2393920308112811  0.0211798828368472  0.5915160319592445  1.0000
  H   H32       1.0  0.76061727937617  0.9788197396241998  0.4084918842375344  1.0000
  H   H33       1.0  0.7937256308773896  0.8899980721478755  0.5614530679342521  1.0000
  H   H34       1.0  0.20628209756473123  0.10999945578362261  0.43855213412055594  1.0000
  H   H35       1.0  0.2143963494186565  0.42923194123364533  0.4689696391195  1.0000
  H   H36       1.0  0.7856019381993062  0.5707676812274087  0.5310258525145315  1.0000
  H   H37       1.0  0.4087650476489415  0.4009505559483841  0.6295821573148928  1.0000
  H   H38       1.0  0.5912309460186903  0.5990480192478813  0.3704136162867541  1.0000
  H   H39       1.0  0.4868189158661379  0.2225249142077956  0.23914788324360362  1.0000
  H   H40       1.0  0.5131790819050437  0.7774736609884769  0.7608479788503714  1.0000
  H   H41       1.0  0.6512546145525492  0.3431771472964229  0.5832597638391944  1.0000
  H   H42       1.0  0.3487406669100963  0.6568224751646312  0.4167381531681115  1.0000
  H   H43       1.0  0.6652580358916609  0.24595641631378842  0.4161255958874007  1.0000
  H   H44       1.0  0.3347424131652019  0.7540473952063707  0.583874427080481  1.0000
  H   H45       1.0  0.6186105283858367  0.22566670853683493  0.7014482891935501  1.0000
  H   H46       1.0  0.3813904755406554  0.7743318666594377  0.2985485583428442  1.0000
  H   H47       1.0  0.4618315162678002  0.9918466661771888  0.2847927820286245  1.0000
  H   H48       1.0  0.5381677734019306  0.0081529562838654  0.7152053119633448  1.0000
  C   C1        1.0  0.07796736295836129  0.5046716593978076  0.29044948859642256  1.0000
  C   C2        1.0  0.9220312145063828  0.49532901032801396  0.709550748801206  1.0000
  C   C3        1.0  0.022463875835143192  0.6319645984332496  0.33724640465690914  1.0000
  C   C4        1.0  0.9775349914763892  0.3680371185573463  0.6627517568729218  1.0000
  C   C5        1.0  0.9912209189471781  0.6653660612100651  0.22731410451542894  1.0000
  C   C6        1.0  0.008779372774327514  0.3346335612509819  0.7726840337227046  1.0000
  C   C7        1.0  0.8841557794901078  0.54541654278637  0.10943670935010637  1.0000
  C   C8        1.0  0.115843377668206  0.4545862214690075  0.890561934423708  1.0000
  C   C9        1.0  0.7412720875517708  0.504880065088301  0.14211265822435593  1.0000
  C   C10       1.0  0.2587277818115297  0.49512165190230206  0.85788810566342  1.0000
  C   C11       1.0  0.6367137931859616  0.3844226232480779  0.021875661775375504  1.0000
  C   C12       1.0  0.36328665587090103  0.6155811882720741  0.9781260666003533  1.0000
  C   C13       1.0  0.5028961774016594  0.3318206080617117  0.05996263453702968  1.0000
  C   C14       1.0  0.4971029797566472  0.6681821561936658  0.9400377146446316  1.0000
  C   C15       1.0  0.9815715476475262  0.1583160635051755  0.9976286723331071  1.0000
  C   C16       1.0  0.018425315560456616  0.8416856534854276  0.0023719588161695898  1.0000
  C   C17       1.0  0.9284605106401215  0.0445129420538564  0.8751748244655387  1.0000
  C   C18       1.0  0.07153677492607358  0.9554866804071905  0.12482744455372344  1.0000
  C   C19       1.0  0.1592045593780682  0.0991770215848504  0.9066754415746345  1.0000
  C   C20       1.0  0.8407941505981001  0.9008205063466476  0.0933268041529231  1.0000
  C   C21       1.0  0.0384517554249584  0.8997721943055197  0.6851461465012179  1.0000
  C   C22       1.0  0.9615523871682751  0.1002232390964224  0.3148588110310655  1.0000
  C   C23       1.0  0.018643455106015908  0.9496900698701083  0.5877789932600948  1.0000
  C   C24       1.0  0.981361979385774  0.0503064107966082  0.412223932650555  1.0000
  C   C25       1.0  0.13388055225252057  0.0116235917526737  0.5517711975453635  1.0000
  C   C26       1.0  0.866128178241361  0.9883739361788173  0.44823319605168166  1.0000
  C   C27       1.0  0.8846765428538318  0.9386466628035278  0.5351282536917381  1.0000
  C   C28       1.0  0.1153298936897329  0.06134981786319571  0.46487642187292266  1.0000
  C   C29       1.0  0.2996499036538083  0.3815018017868468  0.44606207227862177  1.0000
  C   C30       1.0  0.7003483839641547  0.6184978206742073  0.5539334193554026  1.0000
  C   C31       1.0  0.3935026919822207  0.3671846450294041  0.5255422456205706  1.0000
  C   C32       1.0  0.6064955956357423  0.6328149774316429  0.4744540987173806  1.0000
  C   C33       1.0  0.4371698948896422  0.272386237474457  0.3228652235203526  1.0000
  C   C34       1.0  0.5628283927283206  0.72761338498659  0.6771319735215258  1.0000
  C   C35       1.0  0.5942360699922133  0.2571673857445802  0.48676595544780815  1.0000
  C   C36       1.0  0.4057620851143255  0.7428353785107973  0.5132334967837693  1.0000
  C   C37       1.0  0.5447703371167805  0.12349032063252711  0.4928531409439003  1.0000
  C   C38       1.0  0.45522966475793675  0.8765082545637455  0.5071436623463227  1.0000
  C   C39       1.0  0.5662160169344688  0.1265923189000659  0.6133804651668839  1.0000
  C   C40       1.0  0.4337829828884878  0.8734062562962066  0.3866154411732552  1.0000
  C   C41       1.0  0.4783571599806676  0.9961435935545353  0.3796600189765513  1.0000
  C   C42       1.0  0.5216418398422816  0.0038549816417373  0.6203367400675148  1.0000
  N   N1        1.0  0.1256361583855679  0.191010622557954  0.01588108393403329  1.0000
  N   N2        1.0  0.8743621292323951  0.808988999903093  0.984119523923546  1.0000
  N   N3        1.0  0.042094266578736494  0.0085194989555859  0.8194607426468821  1.0000
  N   N4        1.0  0.9579061576541931  0.9914769817111377  0.18054281473686717  1.0000
  N   N5        1.0  0.3281315352367145  0.3219878390765913  0.320060494569276  1.0000
  N   N6        1.0  0.6718677544330164  0.6780117833844628  0.6799367467187665  1.0000
  N   N7        1.0  0.47941987889173276  0.2981447619134912  0.44585143989606724  1.0000
  N   N8        1.0  0.5205778290326677  0.7018527660179998  0.5541447926578513  1.0000
  O   O1        1.0  0.19286540795659587  0.5173320432790689  0.24365583896143758  1.0000
  O   O2        1.0  0.8071321674563734  0.4826686264467526  0.7563417960782602  1.0000
  O   O3        1.0  0.017566261449367487  0.398775387007916  0.297363666019926  1.0000
  O   O4        1.0  0.9824348998124819  0.6012273772474614  0.7026401824697571  1.0000
  O   O5        1.0  0.4395219715930523  0.42608805237505004  0.12511675272958905  1.0000
  O   O6        1.0  0.5604771855652544  0.5739147118803274  0.8748835964520794  1.0000
  O   O7        1.0  0.45985345083056467  0.2058367499967062  0.0317965774057996  1.0000
  O   O8        1.0  0.540145706327742  0.7941660142586713  0.9682029190719419  1.0000
