data_image0
_chemical_formula_structural       Al2H12C26N4Cl2O14
_chemical_formula_sum              "Al2 H12 C26 N4 Cl2 O14"
_cell_length_a       6.695222674785321
_cell_length_b       11.087494777885958
_cell_length_c       16.918249479655774
_cell_angle_alpha    84.3532793719983
_cell_angle_beta     82.83158967785486
_cell_angle_gamma    74.24896771270303

_space_group_name_H-M_alt    "P 1"
_space_group_IT_number       1

loop_
  _space_group_symop_operation_xyz
  'x, y, z'

loop_
  _atom_site_type_symbol
  _atom_site_label
  _atom_site_symmetry_multiplicity
  _atom_site_fract_x
  _atom_site_fract_y
  _atom_site_fract_z
  _atom_site_occupancy
  Al  Al1       1.0  0.4867090876356952  0.4995347581624471  0.4972467945768243  1.0000
  Al  Al2       1.0  0.9848615053378609  0.5014427295979472  0.5022958324710485  1.0000
  H   H1        1.0  0.22265402090820885  0.581041788714735  0.4067778346034458  1.0000
  H   H2        1.0  0.7353589370176933  0.4262580577213554  0.5942173325929189  1.0000
  H   H3        1.0  0.9211137849128334  0.4198236516859736  0.7431935762663213  1.0000
  H   H4        1.0  0.8699396748459804  0.411270710689422  0.8917752223207244  1.0000
  H   H5        1.0  0.41214613864086413  0.5495311680778626  0.8914762558694702  1.0000
  H   H6        1.0  0.5784904092223044  0.565832233347649  0.09457437835008876  1.0000
  H   H7        1.0  0.2303433923037943  0.4125362619068793  0.12273288362865739  1.0000
  H   H8        1.0  0.1472098449445483  0.42081972382166544  0.2710946089803059  1.0000
  H   H9        1.0  0.8605074022198027  0.7713421678620801  0.6117934985465823  1.0000
  H   H10       1.0  0.6340488760708566  0.23806903686555358  0.5906582052544707  1.0000
  H   H11       1.0  0.1657650007383609  0.11100190383233145  0.44320407209448115  1.0000
  H   H12       1.0  0.29128892158413333  0.8759634505240183  0.44863717355651994  1.0000
  C   C1        1.0  0.622068664851227  0.7268522693079617  0.5084350499359187  1.0000
  C   C2        1.0  0.7861717458536218  0.5006923577387069  0.3557277551700365  1.0000
  C   C3        1.0  0.34098873281559605  0.27285688809868697  0.49830089905837116  1.0000
  C   C4        1.0  0.1998848972893654  0.49627249978570365  0.6438999276894675  1.0000
  C   C5        1.0  0.1891797633380818  0.49210241442693786  0.7325867732694531  1.0000
  C   C6        1.0  0.02526560623181246  0.45014817901085974  0.7763604403921247  1.0000
  C   C7        1.0  0.9970468147620294  0.4445671033612086  0.8587984998671272  1.0000
  C   C8        1.0  0.13524366798767318  0.4835482064709495  0.9001447226577424  1.0000
  C   C9        1.0  0.30526172043987276  0.5207319129889498  0.8584554886953127  1.0000
  C   C10       1.0  0.3336067567540582  0.5246833255796161  0.7751820009524264  1.0000
  C   C11       1.0  0.7022605370751408  0.5344783067931543  0.13390314391880048  1.0000
  C   C12       1.0  0.9082459208065785  0.4893649684177959  0.10036908019739597  1.0000
  C   C13       1.0  0.07100758959352048  0.44794508369546554  0.14961714023879574  1.0000
  C   C14       1.0  0.024064332711198295  0.4529963788222558  0.23150010419990247  1.0000
  C   C15       1.0  0.818653558219104  0.5001577489256874  0.2669226550316636  1.0000
  C   C16       1.0  0.6577519334721132  0.5426068325540426  0.2161775001393734  1.0000
  C   C17       1.0  0.5470509026428728  0.8663625417378358  0.514664515057518  1.0000
  C   C18       1.0  0.6496164703366176  0.934371818708463  0.5560442710831167  1.0000
  C   C19       1.0  0.37207038165578876  0.9303832492099813  0.47704530117965044  1.0000
  C   C20       1.0  0.8098219978686244  0.8733247545872374  0.605292911972249  1.0000
  C   C21       1.0  0.8964561706108541  0.9419009076493197  0.6478253826790874  1.0000
  C   C22       1.0  0.40786080326791563  0.1320085442406409  0.5077395211619586  1.0000
  C   C23       1.0  0.3020286257645708  0.06216246826076598  0.47385941651111796  1.0000
  C   C24       1.0  0.5793598786803997  0.06917232147584679  0.5520032468387936  1.0000
  C   C25       1.0  0.6771070503189663  0.13631678033244293  0.595174076837125  1.0000
  C   C26       1.0  0.8322773661198468  0.0745695053069753  0.641627902037065  1.0000
  N   N1        1.0  0.1147177844955466  0.48806890875977144  0.9841232881408645  1.0000
  N   N2        1.0  0.9333848802107879  0.48853954524049925  0.016383915684990324  1.0000
  N   N3        1.0  0.036667729001031574  0.8727856311613845  0.7067356874131006  1.0000
  N   N4        1.0  0.9400555424026108  0.15154479161981974  0.6769110029557124  1.0000
  Cl  Cl1       1.0  0.5465499029986347  0.5731874564189923  0.7301030851025059  1.0000
  Cl  Cl2       1.0  0.4002379145368877  0.6130576042001364  0.24919720274561993  1.0000
  O   O1        1.0  0.480704397306866  0.671658434814603  0.5045183589237963  1.0000
  O   O2        1.0  0.9444728719617571  0.4969462707887613  0.39170964123162827  1.0000
  O   O3        1.0  0.1460143896794007  0.325093559702168  0.5041704233031723  1.0000
  O   O4        1.0  0.37861064633634817  0.48270572756334207  0.6050089089144703  1.0000
  O   O5        1.0  0.487167077407534  0.3277405952974063  0.4855184022374671  1.0000
  O   O6        1.0  0.030643879985646577  0.5101296439844559  0.612172960559384  1.0000
  O   O7        1.0  0.8180207589817243  0.6763448006955028  0.5044346495267931  1.0000
  O   O8        1.0  0.6049897032722027  0.5035423594154622  0.389694056641865  1.0000
  O   O9        1.0  0.21922191703036736  0.5570956410836913  0.46363367182383525  1.0000
  O   O10       1.0  0.7497616382717991  0.44461148370556447  0.5365802104156854  1.0000
  O   O11       1.0  0.17236255026401187  0.7788611958128653  0.6845616346092739  1.0000
  O   O12       1.0  0.003233358311739229  0.9109803961673038  0.7746960157580742  1.0000
  O   O13       1.0  0.8351859118184064  0.25716563269906345  0.6961476899536476  1.0000
  O   O14       1.0  0.1291510505444222  0.10823882356335447  0.6823857967225067  1.0000
