data_image0
_chemical_formula_structural       Al4H68C72N8O36
_chemical_formula_sum              "Al4 H68 C72 N8 O36"
_cell_length_a       6.639651731695712
_cell_length_b       20.31004663794626
_cell_length_c       27.121008299145338
_cell_angle_alpha    89.72078418694107
_cell_angle_beta     90.61685788871605
_cell_angle_gamma    90.53588359247178

_space_group_name_H-M_alt    "P 1"
_space_group_IT_number       1

loop_
  _space_group_symop_operation_xyz
  'x, y, z'

loop_
  _atom_site_type_symbol
  _atom_site_label
  _atom_site_symmetry_multiplicity
  _atom_site_fract_x
  _atom_site_fract_y
  _atom_site_fract_z
  _atom_site_occupancy
  Al  Al1       1.0  0.7668023011832618  0.7468520712953717  0.7513527901348598  1.0000
  Al  Al2       1.0  0.2244196148514703  0.25183976000786856  0.24823415553822775  1.0000
  Al  Al3       1.0  0.2694065247744888  0.7504779432820569  0.7502852537904374  1.0000
  Al  Al4       1.0  0.7239134158600253  0.2500716433993516  0.25042916267341303  1.0000
  H   H1        1.0  0.7867454260497909  0.634678742321185  0.5207012453251851  1.0000
  H   H2        1.0  0.34385287819721105  0.42072302574138815  0.4449632881058038  1.0000
  H   H3        1.0  0.17846712748528404  0.39763239241305115  0.0259029421621761  1.0000
  H   H4        1.0  0.8118833351459145  0.5981809430337321  0.9712761153657542  1.0000
  H   H5        1.0  0.18236407623831502  0.9122161969978179  0.9530916842417201  1.0000
  H   H6        1.0  0.8304578050743672  0.09600130615061178  0.04908651386278961  1.0000
  H   H7        1.0  0.8136428295971642  0.0867098554156271  0.45336721182801654  1.0000
  H   H8        1.0  0.16430040687886563  0.9041882311646319  0.5489304454456134  1.0000
  H   H9        1.0  0.7761804476368397  0.6963721565547516  0.6007440583638869  1.0000
  H   H10       1.0  0.3038317966448218  0.3571021608383518  0.36814065106997174  1.0000
  H   H11       1.0  0.20333185138049711  0.32564144978073256  0.10123823404216382  1.0000
  H   H12       1.0  0.7930689883045333  0.669892865666597  0.8961003147189716  1.0000
  H   H13       1.0  0.20630885163139107  0.847851580834515  0.8761719329923283  1.0000
  H   H14       1.0  0.7935207894648569  0.15584718769403588  0.1279722223308681  1.0000
  H   H15       1.0  0.7877353367921742  0.1500155853054252  0.37530998772719226  1.0000
  H   H16       1.0  0.20133246681621841  0.8458926392280048  0.6291104755129171  1.0000
  H   H17       1.0  0.45219640155416835  0.436882981280398  0.29865961839752947  1.0000
  H   H18       1.0  0.7039715364639534  0.4175540184310548  0.2802800965676725  1.0000
  H   H19       1.0  0.6528912247152051  0.49491429876983534  0.30894638302299887  1.0000
  H   H20       1.0  0.5464463761207128  0.5647900175544862  0.6973251543492298  1.0000
  H   H21       1.0  0.49024819324423424  0.6384408998653298  0.6641538513460576  1.0000
  H   H22       1.0  0.5417481090404125  0.5633095368927813  0.6313626700997546  1.0000
  H   H23       1.0  0.3410264932614809  0.5096603271955968  0.7585072736323326  1.0000
  H   H24       1.0  0.09272829925886583  0.5397560529191309  0.7674968443209736  1.0000
  H   H25       1.0  0.1768815751073873  0.4678289505127395  0.800946847720674  1.0000
  H   H26       1.0  0.4211743775145607  0.4384976532128134  0.20525321078570613  1.0000
  H   H27       1.0  0.4780073534844576  0.3668867184722657  0.17040826306160992  1.0000
  H   H28       1.0  0.425320743429026  0.44401387935459263  0.13947689980760464  1.0000
  H   H29       1.0  0.012129743529129699  0.11509424158501248  0.20342632405245106  1.0000
  H   H30       1.0  0.2276637962225792  0.06275145268892147  0.2000433824141794  1.0000
  H   H31       1.0  0.9864106640435039  0.0330373369792767  0.17889610671100806  1.0000
  H   H32       1.0  0.8037773435187602  0.9174123936484405  0.7883732523009501  1.0000
  H   H33       1.0  0.062118994371893194  0.9290695008022068  0.8067849200419276  1.0000
  H   H34       1.0  0.8781658117131385  0.9891109846031724  0.8230284338417776  1.0000
  H   H35       1.0  0.9852397584320373  0.8825872113238021  0.7062312380762353  1.0000
  H   H36       1.0  0.7669469200994357  0.9339417859233449  0.702362342689071  1.0000
  H   H37       1.0  0.006672963167119402  0.9656758296522908  0.6829310732112718  1.0000
  H   H38       1.0  0.1908796203466068  0.08331632855949782  0.28663803417148165  1.0000
  H   H39       1.0  0.9324313665009001  0.07080773956395352  0.30330624678862256  1.0000
  H   H40       1.0  0.1171784298810437  0.010573122361840602  0.32026777645733523  1.0000
  H   H41       1.0  0.5826253957929596  0.5346673854203204  0.38256161250374293  1.0000
  H   H42       1.0  0.7267422882712397  0.576684436068568  0.4301159214551689  1.0000
  H   H43       1.0  0.4715955483267535  0.549860026681678  0.4410509412053402  1.0000
  H   H44       1.0  0.45743816730410464  0.544880809881235  0.530374753201656  1.0000
  H   H45       1.0  0.4089199506552745  0.4590303081063283  0.520694258928444  1.0000
  H   H46       1.0  0.577344156381649  0.48531540906274967  0.5693600377290127  1.0000
  H   H47       1.0  0.5600059494101473  0.5085910827889961  0.9427268631169244  1.0000
  H   H48       1.0  0.563815237349182  0.5225021303682383  0.877130285997865  1.0000
  H   H49       1.0  0.5939333215360276  0.44083665666383337  0.9017275422524735  1.0000
  H   H50       1.0  0.5107572552782925  0.4893149126143755  0.03064860079368971  1.0000
  H   H51       1.0  0.6187472285720689  0.5703327748043421  0.03319977556135  1.0000
  H   H52       1.0  0.40102723600009677  0.550067328883557  0.06961066250273973  1.0000
  H   H53       1.0  0.041029804563486004  0.9844926300433698  0.10462305882339963  1.0000
  H   H54       1.0  0.20315531832550698  0.9413156231524836  0.0626686638964671  1.0000
  H   H55       1.0  0.9559432148570224  0.9662407631244178  0.04307885277851401  1.0000
  H   H56       1.0  0.8018099642750302  0.0637754874941763  0.9335549772669227  1.0000
  H   H57       1.0  0.9800429511250998  0.023507639127622295  0.8938336111692778  1.0000
  H   H58       1.0  0.0460965928203763  0.0416847678632237  0.9567361250464261  1.0000
  H   H59       1.0  0.9622734058383456  0.0132911242713334  0.6052860647924163  1.0000
  H   H60       1.0  0.7958340899133489  0.0567344341019123  0.563260485354576  1.0000
  H   H61       1.0  0.040650214481743815  0.0316681042461795  0.5435172303701139  1.0000
  H   H62       1.0  0.18957017348075314  0.9356092859226665  0.4328865599290667  1.0000
  H   H63       1.0  0.010976250452749501  0.9769640601665373  0.3925766406875724  1.0000
  H   H64       1.0  0.9469091126699282  0.9584011073282707  0.45531056739894643  1.0000
  H   H65       1.0  0.506425793432939  0.6681996113396167  0.772669711727929  1.0000
  H   H66       1.0  0.47637938649774014  0.3293169818706261  0.2726686959301149  1.0000
  H   H67       1.0  0.017260745501239703  0.8194339274409543  0.7829430111083939  1.0000
  H   H68       1.0  0.9793451568290762  0.1799999397359642  0.28140260807384015  1.0000
  C   C1        1.0  0.5255839680440174  0.8265941943056775  0.6833657871638368  1.0000
  C   C2        1.0  0.47082217943865606  0.17249839273983267  0.31881091574334874  1.0000
  C   C3        1.0  0.47251949106053104  0.174434251165799  0.18126181032845787  1.0000
  C   C4        1.0  0.51940526409075  0.8255872947414035  0.820465768061702  1.0000
  C   C5        1.0  0.020053141642208103  0.6661943409069337  0.8160909969209131  1.0000
  C   C6        1.0  0.971251056687251  0.32795286148095215  0.18131443496920244  1.0000
  C   C7        1.0  0.9776284280564695  0.3333852731646445  0.31518581723976524  1.0000
  C   C8        1.0  0.0182398176110823  0.6777052587728888  0.6803876527195671  1.0000
  C   C9        1.0  0.0121733147563816  0.6381442816256423  0.6340432053802019  1.0000
  C   C10       1.0  0.9896922030901366  0.3791769779863259  0.3579438229897961  1.0000
  C   C11       1.0  0.9625896609748424  0.3746045249780678  0.13866360242899844  1.0000
  C   C12       1.0  0.033062240932935104  0.6204205599603866  0.8591353635154209  1.0000
  C   C13       1.0  0.5204594649460574  0.8691225102586201  0.864719399787106  1.0000
  C   C14       1.0  0.4787782597783945  0.1331674041865512  0.13596382014961964  1.0000
  C   C15       1.0  0.47270282549360587  0.1290811610264342  0.3634588662462264  1.0000
  C   C16       1.0  0.517440893394742  0.867473204188215  0.6376160054778313  1.0000
  C   C17       1.0  0.14522594223188182  0.5855759480602314  0.6282537753480499  1.0000
  C   C18       1.0  0.8239682394701119  0.41378647211880076  0.37710814196655223  1.0000
  C   C19       1.0  0.8197394649848347  0.4249355353900626  0.13666742956578307  1.0000
  C   C20       1.0  0.17482174818415075  0.5693765741594135  0.8616679890587238  1.0000
  C   C21       1.0  0.6923678300451855  0.9027737380142894  0.8836329242588122  1.0000
  C   C22       1.0  0.3096232101762907  0.10079385849816448  0.11451635883117463  1.0000
  C   C23       1.0  0.30098061295635864  0.0960069735470981  0.38234945958549116  1.0000
  C   C24       1.0  0.6870052269900524  0.8986622312485437  0.616093867019714  1.0000
  C   C25       1.0  0.1498888720515907  0.5496360524417055  0.5836799011229844  1.0000
  C   C26       1.0  0.845579140983908  0.4498712349986889  0.4213954518573291  1.0000
  C   C27       1.0  0.8024586248615292  0.46519609019024705  0.09383204756918673  1.0000
  C   C28       1.0  0.18256077162447332  0.5276957627625122  0.9034764545349676  1.0000
  C   C29       1.0  0.6799269002258301  0.9393589298954694  0.9277441513571889  1.0000
  C   C30       1.0  0.3300495003442236  0.06640955012584732  0.0695778146563626  1.0000
  C   C31       1.0  0.31464872582578357  0.0597583110547504  0.42686508706768234  1.0000
  C   C32       1.0  0.6664650222245071  0.9323583969817475  0.5705609534069753  1.0000
  C   C33       1.0  0.0156808445512766  0.5680357257291107  0.5445831653621839  1.0000
  C   C34       1.0  0.0348889371116385  0.4526051873564255  0.4459601684068347  1.0000
  C   C35       1.0  0.9372547531243499  0.4555097778547861  0.05424241654490202  1.0000
  C   C36       1.0  0.04946066109715021  0.5382660774358641  0.9430423891252889  1.0000
  C   C37       1.0  0.49321349363483347  0.9435109940905946  0.9522332575447553  1.0000
  C   C38       1.0  0.5199959144016617  0.0637305975291156  0.046691684342022206  1.0000
  C   C39       1.0  0.5024650334110633  0.0555469995407307  0.4518588634574599  1.0000
  C   C40       1.0  0.47575626767186924  0.9353663240526229  0.5470763126750313  1.0000
  C   C41       1.0  0.885932275316975  0.6218855984467878  0.5515101738127088  1.0000
  C   C42       1.0  0.1981439492234642  0.4183586164685095  0.42617869321478014  1.0000
  C   C43       1.0  0.08084320317696131  0.40462260420883917  0.057415238895664814  1.0000
  C   C44       1.0  0.9104357663244259  0.5901776461142347  0.9401179649624113  1.0000
  C   C45       1.0  0.32470194997314655  0.9091680616267367  0.9336496408198303  1.0000
  C   C46       1.0  0.6853049755303786  0.0977254187163155  0.067381546711772  1.0000
  C   C47       1.0  0.6706869764201925  0.08956111897274609  0.433415516555634  1.0000
  C   C48       1.0  0.30996974937073674  0.902320017723909  0.5677665531631534  1.0000
  C   C49       1.0  0.8797661953288908  0.6556888234947492  0.5956473901357031  1.0000
  C   C50       1.0  0.17607853568151197  0.3834150436061207  0.38287277602300673  1.0000
  C   C51       1.0  0.09410705949595412  0.3652640018690789  0.09885465373968572  1.0000
  C   C52       1.0  0.901215659903741  0.629980955415725  0.8987225264521614  1.0000
  C   C53       1.0  0.338263666622325  0.8737378533406855  0.8904647670009214  1.0000
  C   C54       1.0  0.6647183504273569  0.1304394109900855  0.11156754794476603  1.0000
  C   C55       1.0  0.6560414847138959  0.1244806279364283  0.389649747213852  1.0000
  C   C56       1.0  0.3306262880189763  0.8704437582155576  0.6126832292796325  1.0000
  C   C57       1.0  0.6127310491005604  0.4421655975510177  0.3080769655730506  1.0000
  C   C58       1.0  0.4730373176393173  0.5846984846514687  0.6641714265249805  1.0000
  C   C59       1.0  0.2222148106604536  0.515980910506066  0.785667346810186  1.0000
  C   C60       1.0  0.49418252655589606  0.42055808763358016  0.1719500042030901  1.0000
  C   C61       1.0  0.08530790423544232  0.07668601225608998  0.182043882893467  1.0000
  C   C62       1.0  0.9047797212085127  0.9362405726448556  0.8174386845117143  1.0000
  C   C63       1.0  0.9101080400544889  0.9213679775811481  0.6849821902873858  1.0000
  C   C64       1.0  0.08959773098030871  0.0635561691520508  0.31493468835940774  1.0000
  C   C65       1.0  0.6125930589325748  0.538372544466874  0.4223907226725673  1.0000
  C   C66       1.0  0.4392749066178112  0.4967659595409231  0.5484923215581077  1.0000
  C   C67       1.0  0.5189067108775589  0.4881528993363347  0.906470315959915  1.0000
  C   C68       1.0  0.5423842686159759  0.5317318570264575  0.05453271873747671  1.0000
  C   C69       1.0  0.0869767779966821  0.979188696899044  0.06604491596898042  1.0000
  C   C70       1.0  0.9230589931436982  0.027478762065548796  0.9316057379511025  1.0000
  C   C71       1.0  0.9120246986095637  0.0187771158556629  0.5667573824059673  1.0000
  C   C72       1.0  0.06951373863962118  0.9723939933353303  0.4305144939654896  1.0000
  N   N1        1.0  0.9835998691884029  0.5375188287532566  0.4985404064538131  1.0000
  N   N2        1.0  0.0755044620980172  0.4840353493754889  0.4911911027429456  1.0000
  N   N3        1.0  0.9209934744385891  0.4977573530370591  0.013407050118168201  1.0000
  N   N4        1.0  0.0687412593018379  0.49576883972142133  0.9838875150154466  1.0000
  N   N5        1.0  0.46215364414023696  0.9768609834782183  0.9969363937349275  1.0000
  N   N6        1.0  0.5557141706846878  0.0309105574371884  0.0019223765001684006  1.0000
  N   N7        1.0  0.5343261152060562  0.022037897823267396  0.4968790105360271  1.0000
  N   N8        1.0  0.4398344642264219  0.9681573242191489  0.5018269818139772  1.0000
  O   O1        1.0  0.3466674140581175  0.8054238656916511  0.8054063675743424  1.0000
  O   O2        1.0  0.6424655098450173  0.1909062190440238  0.20003714979211654  1.0000
  O   O3        1.0  0.6424664141191343  0.1878433768093544  0.300928622987513  1.0000
  O   O4        1.0  0.3593189711695928  0.8166609113410032  0.705588557937958  1.0000
  O   O5        1.0  0.852303189381928  0.685903551029071  0.7023856475797887  1.0000
  O   O6        1.0  0.14483209023194382  0.31807792715997607  0.2954295764286742  1.0000
  O   O7        1.0  0.1446161676903515  0.3082430531792113  0.19502880987626275  1.0000
  O   O8        1.0  0.8451883960065062  0.6870729148287681  0.8041560338594211  1.0000
  O   O9        1.0  0.6937476666430697  0.8027590985085099  0.6972187687862148  1.0000
  O   O10       1.0  0.3021394973355171  0.19212727770607066  0.3016577341871525  1.0000
  O   O11       1.0  0.303041100480307  0.19162324931022567  0.19829148861888515  1.0000
  O   O12       1.0  0.686070992218447  0.8106608865783679  0.8006137418799925  1.0000
  O   O13       1.0  0.18404680482406383  0.6820323804694509  0.7951808073306952  1.0000
  O   O14       1.0  0.8056164764683443  0.30987146637688306  0.20021126874896572  1.0000
  O   O15       1.0  0.8054628912759513  0.3110824703324723  0.30183568476803674  1.0000
  O   O16       1.0  0.18772350995033096  0.7013116431507455  0.6937181230098801  1.0000
  O   O17       1.0  0.5151765439075363  0.707158626375282  0.751794054184771  1.0000
  O   O18       1.0  0.4759437330294319  0.2914852548949725  0.2509726045785285  1.0000
  O   O19       1.0  0.017229040886547902  0.7898906885998185  0.754849568184142  1.0000
  O   O20       1.0  0.9748262565540102  0.20966553614410796  0.25317457743921074  1.0000
  O   O21       1.0  0.6347671512452493  0.4133269360745615  0.3563248442980013  1.0000
  O   O22       1.0  0.262655761689132  0.5665951534284872  0.667603547233725  1.0000
  O   O23       1.0  0.30599434534362774  0.557347742475663  0.823911953787196  1.0000
  O   O24       1.0  0.7046804529268867  0.43856296719737725  0.1768278349140999  1.0000
  O   O25       1.0  0.11965327567347121  0.1012140429713213  0.13294017138692032  1.0000
  O   O26       1.0  0.879686427439701  0.900283924845866  0.8626985588742857  1.0000
  O   O27       1.0  0.8770086569669502  0.8984471406669526  0.6354197881126995  1.0000
  O   O28       1.0  0.1131030245062874  0.0981440131086302  0.3606731622791415  1.0000
  O   O29       1.0  0.6780700009552305  0.4764870957974523  0.4424471189444007  1.0000
  O   O30       1.0  0.2778820425453148  0.4978984896840331  0.5835808980733007  1.0000
  O   O31       1.0  0.3053955114065231  0.4740778324370539  0.9044763312187103  1.0000
  O   O32       1.0  0.6617117591097711  0.5129032655305891  0.0968542979845708  1.0000
  O   O33       1.0  0.16188708504894583  0.040827514991505595  0.04671865212456791  1.0000
  O   O34       1.0  0.851594144259586  0.964456617243385  0.9491837634791411  1.0000
  O   O35       1.0  0.8344101683124734  0.9572008226234844  0.5478750737722323  1.0000
  O   O36       1.0  0.14378748190381435  0.0349289510751589  0.4481663312283502  1.0000
