data_image0
_chemical_formula_structural       Zn8H16C80Cl8O26F16
_chemical_formula_sum              "Zn8 H16 C80 Cl8 O26 F16"
_cell_length_a       23.958615547059136
_cell_length_b       23.9600178791912
_cell_length_c       23.95829619408641
_cell_angle_alpha    66.60753141703236
_cell_angle_beta     72.45860253652513
_cell_angle_gamma    107.55060052243459

_space_group_name_H-M_alt    "P 1"
_space_group_IT_number       1

loop_
  _space_group_symop_operation_xyz
  'x, y, z'

loop_
  _atom_site_type_symbol
  _atom_site_label
  _atom_site_symmetry_multiplicity
  _atom_site_fract_x
  _atom_site_fract_y
  _atom_site_fract_z
  _atom_site_occupancy
  Zn  Zn1       1.0  0.05712552936163474  0.9576518385051784  0.48523282694777947  1.0000
  Zn  Zn2       1.0  0.05712513037011751  0.0994736663324076  0.457654027377778  1.0000
  Zn  Zn3       1.0  0.9428685047511963  0.9852293328387064  0.4576440332540912  1.0000
  Zn  Zn4       1.0  0.942886644209665  0.9576486920855769  0.5994763754780693  1.0000
  Zn  Zn5       1.0  0.942876379658351  0.542348377206892  0.014768103944739324  1.0000
  Zn  Zn6       1.0  0.05713331702889231  0.5147728721574508  0.042355300943668836  1.0000
  Zn  Zn7       1.0  0.9428748255546395  0.4005254483560419  0.042350534037936455  1.0000
  Zn  Zn8       1.0  0.057112769871153435  0.5423475485625671  0.9005236783902008  1.0000
  H   H1        1.0  0.9232833277669245  0.7146056949493412  0.1747848748529464  1.0000
  H   H2        1.0  0.07670340249676141  0.6747746182803026  0.2146458306410039  1.0000
  H   H3        1.0  0.9232908266027308  0.825218428416633  0.2853631804166527  1.0000
  H   H4        1.0  0.07665783986444552  0.7853212576202182  0.3252901304765815  1.0000
  H   H5        1.0  0.07671985565019676  0.40190291958907665  0.708688329010876  1.0000
  H   H6        1.0  0.9232952041740815  0.20865172061106543  0.9019413408035037  1.0000
  H   H7        1.0  0.07666423304991805  0.29133547375371893  0.5980711236796666  1.0000
  H   H8        1.0  0.9232918661143402  0.09806911005298966  0.7913373218023169  1.0000
  H   H9        1.0  0.6105956536295168  0.4019221675349554  0.1747532293320973  1.0000
  H   H10       1.0  0.6105923945490587  0.20865797054650403  0.21464494224641587  1.0000
  H   H11       1.0  0.38940999022497647  0.2913430680848349  0.2853451846543109  1.0000
  H   H12       1.0  0.38940417399044247  0.09809038205360568  0.32517216892185274  1.0000
  H   H13       1.0  0.38941460902350405  0.6747332090554108  0.9019227396557457  1.0000
  H   H14       1.0  0.3893971234624445  0.7146362824514866  0.7086499419797792  1.0000
  H   H15       1.0  0.610605899817365  0.7853557840701056  0.7913523461899743  1.0000
  H   H16       1.0  0.6105845552963275  0.8251906589231552  0.5980947971321201  1.0000
  C   C1        1.0  0.18119332017865736  0.09060324969219381  0.409401804029244  1.0000
  C   C2        1.0  0.9999975509478317  0.13692625020716054  0.36307257740647714  1.0000
  C   C3        1.0  0.9999902121546356  0.9094031112753386  0.4094082921807  1.0000
  C   C4        1.0  0.8188092745105847  0.9093957728265277  0.5906095274036647  1.0000
  C   C5        1.0  2.8559214300519245e-06  0.8630705941801863  0.6369285903857789  1.0000
  C   C6        1.0  0.9999942541301224  0.09059316018053204  0.5906004243467322  1.0000
  C   C7        1.0  1.1943228059774434e-06  0.5905865911268151  0.09060373066257908  1.0000
  C   C8        1.0  3.5208478123656544e-06  0.36307346496379006  0.13692848756491574  1.0000
  C   C9        1.0  0.8188069862990375  0.409398303155612  0.09058958111800317  1.0000
  C   C10       1.0  0.9999929749129637  0.4093910309224356  0.909414031982152  1.0000
  C   C11       1.0  0.9999978273283079  0.6369279535972935  0.8630710010567669  1.0000
  C   C12       1.0  0.18119125410047593  0.5905906876392208  0.9093915610780314  1.0000
  C   C13       1.0  1.3956771595168727e-06  0.8051627987905973  0.6948369961408432  1.0000
  C   C14       1.0  1.327802436431802e-07  0.6948367810233192  0.8051631768681704  1.0000
  C   C15       1.0  0.9572128820242302  0.7769633432030078  0.7658223082512806  1.0000
  C   C16       1.0  0.04278911400032099  0.7230365162489533  0.7341784542234537  1.0000
  C   C17       1.0  0.9572131323845596  0.7230331278911564  0.8197532718773889  1.0000
  C   C18       1.0  0.04278842603669359  0.7769662936586244  0.6802477961787263  1.0000
  C   C19       1.0  0.999998529968842  0.19483460233661984  0.3051636788854282  1.0000
  C   C20       1.0  2.5418338154051413e-06  0.30516511324074  0.19483696853070137  1.0000
  C   C21       1.0  0.9572117917194023  0.1802500798912376  0.27695727677051  1.0000
  C   C22       1.0  0.042789083102114475  0.31974892002362754  0.2230432962770905  1.0000
  C   C23       1.0  0.9572132917372047  0.234182044779736  0.22302717859520269  1.0000
  C   C24       1.0  0.0427871018540316  0.2658175114685832  0.2769733192416837  1.0000
  C   C25       1.0  0.9999978517712054  0.6279978758162983  0.1280190963453761  1.0000
  C   C26       1.0  0.9578933979627565  0.658068406164432  0.1362353025684937  1.0000
  C   C27       1.0  0.957092528877624  0.6928649517378813  0.17061450827568322  1.0000
  C   C28       1.0  0.9999937976448695  0.6994916017220588  0.1995132930325241  1.0000
  C   C29       1.0  0.04289714229209096  0.6706009508186453  0.19289580518343297  1.0000
  C   C30       1.0  0.04210094313778967  0.6362225366098712  0.15809787564894864  1.0000
  C   C31       1.0  0.9999892156665383  0.7347640377338039  0.23479050581164518  1.0000
  C   C32       1.0  0.9999843225608418  0.7652065520831929  0.26524158503683987  1.0000
  C   C33       1.0  0.99997763979183  0.8004748084871522  0.30052275752820623  1.0000
  C   C34       1.0  0.9570866278848059  0.8293805879263232  0.3071250961723635  1.0000
  C   C35       1.0  0.9578830676331833  0.8637587227491322  0.34192431597801953  1.0000
  C   C36       1.0  0.9999762549333656  0.8719701687895738  0.3720142488533184  1.0000
  C   C37       1.0  0.04206227679731695  0.841876702455309  0.3638214521278087  1.0000
  C   C38       1.0  0.04286246768506887  0.8070799983656441  0.3294412617308353  1.0000
  C   C39       1.0  7.802056074980657e-06  0.37197306636526406  0.8720074471884658  1.0000
  C   C40       1.0  0.042116522270326556  0.40585197959091346  0.7998345971224197  1.0000
  C   C41       1.0  0.04291060309412126  0.37227302157004516  0.7642378656098643  1.0000
  C   C42       1.0  1.464805997398285e-06  0.3004819176379883  0.80051327840485  1.0000
  C   C43       1.0  0.9571037263349994  0.2642029126383394  0.8723079668666928  1.0000
  C   C44       1.0  0.957905322609463  0.2997970925622299  0.9058895889351818  1.0000
  C   C45       1.0  0.9999917470332632  0.2652079647043379  0.7652343105903443  1.0000
  C   C46       1.0  0.9999874306564678  0.23477232191480363  0.7347832879245573  1.0000
  C   C47       1.0  0.9999819491906337  0.1995002001012479  0.6995031442411063  1.0000
  C   C48       1.0  0.042867655641330805  0.2357827372428929  0.6277065134610356  1.0000
  C   C49       1.0  0.04206721881558912  0.200188160720991  0.5941246986272333  1.0000
  C   C50       1.0  0.9999794842419976  0.12800929249851833  0.6280089634538797  1.0000
  C   C51       1.0  0.9578846773000722  0.0941256135942225  0.700186181220552  1.0000
  C   C52       1.0  0.9570885618209458  0.12770409240874145  0.7357837166611888  1.0000
  C   C53       1.0  0.7439816561476037  0.3719840659694355  0.12800777577233197  1.0000
  C   C54       1.0  0.7056883982838542  0.4058674135254277  0.1362159310075627  1.0000
  C   C55       1.0  0.636512618242776  0.37228750395716764  0.1705922037121112  1.0000
  C   C56       1.0  0.6009962288227585  0.30049168032142154  0.19949613081413983  1.0000
  C   C57       1.0  0.6365110424111081  0.2642106327749403  0.1928899889953969  1.0000
  C   C58       1.0  0.7056874251229673  0.2998063682162169  0.1580954400539127  1.0000
  C   C59       1.0  0.5304477152155868  0.2652201701515152  0.23476413481232342  1.0000
  C   C60       1.0  0.46955302927255366  0.23478184417029982  0.26520272654781246  1.0000
  C   C61       1.0  0.3990041878314089  0.1995126026704313  0.3004678435800656  1.0000
  C   C62       1.0  0.363490817688195  0.23579196699217417  0.30708882546544913  1.0000
  C   C63       1.0  0.29431458831648166  0.200197940636194  0.341883903093894  1.0000
  C   C64       1.0  0.25601847616618295  0.12802148373502573  0.37196162599820337  1.0000
  C   C65       1.0  0.2943104004664434  0.09414253247857123  0.3637287572646742  1.0000
  C   C66       1.0  0.3634860271533427  0.1277207321487097  0.3293527909837053  1.0000
  C   C67       1.0  0.25601677986433913  0.6279952581973518  0.8719796420710539  1.0000
  C   C68       1.0  0.2943165421014697  0.6361980191592238  0.9058653662889073  1.0000
  C   C69       1.0  0.363492646746394  0.6705758477855497  0.8722847587418132  1.0000
  C   C70       1.0  0.39900389157236316  0.6994857011487882  0.8004869571587749  1.0000
  C   C71       1.0  0.3634828611320061  0.6928791828918149  0.7642039368434724  1.0000
  C   C72       1.0  0.2943067592917286  0.6580823546480586  0.7998000334793788  1.0000
  C   C73       1.0  0.46955542475465256  0.7347612696503277  0.7652176859645794  1.0000
  C   C74       1.0  0.5304451884711696  0.7652024434528357  0.7347907208851795  1.0000
  C   C75       1.0  0.600997399885948  0.8004781725026434  0.699520346604409  1.0000
  C   C76       1.0  0.6365181698419704  0.8071010331806007  0.7358003091067715  1.0000
  C   C77       1.0  0.7056951032759289  0.8418997322771631  0.7002023854054398  1.0000
  C   C78       1.0  0.7439833746255504  0.8719737050635102  0.6280259881022661  1.0000
  C   C79       1.0  0.7056846158718668  0.8637480803398173  0.5941452641054499  1.0000
  C   C80       1.0  0.636507679654315  0.8293683820799272  0.6277264460521579  1.0000
  Cl  Cl1       1.0  0.9026235636033705  0.8054960507914473  0.7918745274214841  1.0000
  Cl  Cl2       1.0  0.09737950460895206  0.6945054001273477  0.7081256982589894  1.0000
  Cl  Cl3       1.0  0.9026226447588432  0.6944953566548835  0.9028761492828178  1.0000
  Cl  Cl4       1.0  0.09737891367645085  0.8055040657077156  0.5971240836627629  1.0000
  Cl  Cl5       1.0  0.9026229362994443  0.09712783138102317  0.30548462280394517  1.0000
  Cl  Cl6       1.0  0.09737817914422206  0.4028708907735279  0.1945155702937456  1.0000
  Cl  Cl7       1.0  0.9026237678479206  0.20813051155038656  0.19448474469002272  1.0000
  Cl  Cl8       1.0  0.09737575052266582  0.2918681680807609  0.30551719942017286  1.0000
  O   O1        1.0  0.9999996825936179  2.3993285221562756e-07  0.4999990242725262  1.0000
  O   O2        1.0  0.15238319284121363  0.025679236420089107  0.4340021903673659  1.0000
  O   O3        1.0  0.039689032804496094  0.15420578086677486  0.3854787095272131  1.0000
  O   O4        1.0  0.959656360283276  0.9339902706888167  0.4136255888243809  1.0000
  O   O5        1.0  0.15238354971153  0.12671101471540414  0.41363776287676773  1.0000
  O   O6        1.0  0.04033881429876373  0.9136421911393029  0.4339838419702532  1.0000
  O   O7        1.0  0.9603038777014348  0.07483636576774451  0.38547613838057515  1.0000
  O   O8        1.0  0.8476139566056914  0.9339864168064693  0.5256855499635336  1.0000
  O   O9        1.0  0.9603186104302136  0.8854758007706703  0.6542109748669988  1.0000
  O   O10       1.0  0.8476250807844393  0.9136235021367725  0.6267199307483438  1.0000
  O   O11       1.0  0.039689052180214866  0.8854760191298255  0.5748368927596347  1.0000
  O   O12       1.0  0.040336486102731293  0.1267040741277867  0.5256799012240593  1.0000
  O   O13       1.0  0.9596685858189249  0.025670073005059576  0.6267130639316747  1.0000
  O   O14       1.0  1.5998533200362632e-06  0.49999935533550394  1.1832571189932917e-06  1.0000
  O   O15       1.0  0.9596651518919546  0.5863631988225961  0.06601233086264087  1.0000
  O   O16       1.0  0.03969356236579096  0.42516282767346064  0.11452748153141816  1.0000
  O   O17       1.0  0.84761660329265  0.3732888213252889  0.08636102713366985  1.0000
  O   O18       1.0  0.04033743121291177  0.5660023381059389  0.08638372781466333  1.0000
  O   O19       1.0  0.847618163140382  0.4743192030972166  0.0660026334436665  1.0000
  O   O20       1.0  0.960314117294509  0.34579342049411815  0.11452067964238907  1.0000
  O   O21       1.0  0.9596551762213894  0.3732826633513471  0.974333871159672  1.0000
  O   O22       1.0  0.03967988481701926  0.6145205583087545  0.845789309371945  1.0000
  O   O23       1.0  0.040318810262519426  0.4743149932437731  0.873299319052812  1.0000
  O   O24       1.0  0.9603125062620987  0.6145234036391896  0.9251629226306692  1.0000
  O   O25       1.0  0.15238707701447407  0.5660145585636869  0.9743117216475881  1.0000
  O   O26       1.0  0.15237551393389034  0.5863666571047759  0.873279672170277  1.0000
  F   F1        1.0  0.9152504313372207  0.6539359522076255  0.10996501228984798  1.0000
  F   F2        1.0  0.08474399465126921  0.609959488244641  0.15397420542359455  1.0000
  F   F3        1.0  0.915248440401008  0.8900328006728058  0.3460360647227817  1.0000
  F   F4        1.0  0.08468445645154801  0.8459831573948832  0.39011708293433867  1.0000
  F   F5        1.0  0.08476977598233772  0.47475512231460465  0.7613247350485325  1.0000
  F   F6        1.0  0.9152690913648202  0.2612847678710324  0.9747980351861258  1.0000
  F   F7        1.0  0.084690499220379  0.2387041367982903  0.525213705318194  1.0000
  F   F8        1.0  0.915248574591395  0.025216793564588568  0.7386997950937797  1.0000
  F   F9        1.0  0.7360837828659188  0.4747759734039578  0.1099372692048205  1.0000
  F   F10       1.0  0.7360807247441415  0.2612897385966518  0.153986302128601  1.0000
  F   F11       1.0  0.2639214194007166  0.2387115773885995  0.34600462227730594  1.0000
  F   F12       1.0  0.2639145575626003  0.02523924673599251  0.3899800066299834  1.0000
  F   F13       1.0  0.26392669003103464  0.6099120231849255  0.9747773576012336  1.0000
  F   F14       1.0  0.26390716030378064  0.6539678659958453  0.7612823846762782  1.0000
  F   F15       1.0  0.7360952945339323  0.8460267477689242  0.7387165613669069  1.0000
  F   F16       1.0  0.7360720578813014  0.8900057224892773  0.5252398090284062  1.0000
