data_image0
_chemical_formula_structural       Cu4H24C28N12Cl4
_chemical_formula_sum              "Cu4 H24 C28 N12 Cl4"
_cell_length_a       7.328562116533778
_cell_length_b       8.356449397773847
_cell_length_c       13.390977686884321
_cell_angle_alpha    86.42785532827244
_cell_angle_beta     81.84261469445129
_cell_angle_gamma    63.99346117171233

_space_group_name_H-M_alt    "P 1"
_space_group_IT_number       1

loop_
  _space_group_symop_operation_xyz
  'x, y, z'

loop_
  _atom_site_type_symbol
  _atom_site_label
  _atom_site_symmetry_multiplicity
  _atom_site_fract_x
  _atom_site_fract_y
  _atom_site_fract_z
  _atom_site_occupancy
  Cu  Cu1       1.0  0.9962343134572648  0.9623322008164623  0.8685534919557796  1.0000
  Cu  Cu2       1.0  0.04153919975600221  0.9621728265748857  0.631531078155831  1.0000
  Cu  Cu3       1.0  0.0037746671114859973  0.0376612337614688  0.13144680427995328  1.0000
  Cu  Cu4       1.0  0.9584528006150421  0.03783525421948041  0.36847068345863215  1.0000
  H   H1        1.0  0.4842047962689832  0.0885708021632823  0.9559185542992805  1.0000
  H   H2        1.0  0.42701161533474874  0.08883983213912929  0.5441366841780209  1.0000
  H   H3        1.0  0.5158123528333504  0.911417306481525  0.0440820789667882  1.0000
  H   H4        1.0  0.572981755346241  0.911168248626254  0.4558657222014375  1.0000
  H   H5        1.0  0.46078582940049984  0.25314332056772326  0.11128991429825419  1.0000
  H   H6        1.0  0.28560879646600773  0.2533673758193231  0.3888235054642165  1.0000
  H   H7        1.0  0.5392184603078788  0.7468567716201945  0.888708989600225  1.0000
  H   H8        1.0  0.7143955176003514  0.7466327165640864  0.6111731562599444  1.0000
  H   H9        1.0  0.2943350640838034  0.23440143442459774  0.8174375729159634  1.0000
  H   H10       1.0  0.47184323290803587  0.2347082869692585  0.6824420820091459  1.0000
  H   H11       1.0  0.7056785441452859  0.7655826793705032  0.1825657131386862  1.0000
  H   H12       1.0  0.5281577037726208  0.7652984625390148  0.31755906388283245  1.0000
  H   H13       1.0  0.09472023252432395  0.5728094068098742  0.8129896876148164  1.0000
  H   H14       1.0  0.33301083539569726  0.5730993887862114  0.6867622918640349  1.0000
  H   H15       1.0  0.9052885520795829  0.4271733755328385  0.18701176680744416  1.0000
  H   H16       1.0  0.6669894987510361  0.42691135539806885  0.3132372565101278  1.0000
  H   H17       1.0  0.4145026710457387  0.5077603517240095  0.21767403357252138  1.0000
  H   H18       1.0  0.07748007398114254  0.5077493964536188  0.28233216434662006  1.0000
  H   H19       1.0  0.5854877630505015  0.49223707686412144  0.7823282414634602  1.0000
  H   H20       1.0  0.9225085200360397  0.49226001590188423  0.7176683077016788  1.0000
  H   H21       1.0  0.29968617580309603  0.7463944898887789  0.2246989988667849  1.0000
  H   H22       1.0  0.9535583477219945  0.7463324552413512  0.27519750147175864  1.0000
  H   H23       1.0  0.7003166108305195  0.2535976132657396  0.7752988209715639  1.0000
  H   H24       1.0  0.046443207731229605  0.2536702997212359  0.7248037471551498  1.0000
  C   C1        1.0  0.3907010349168517  0.2313788927912199  0.9618153350056744  1.0000
  C   C2        1.0  0.3777767449656793  0.2316378410190723  0.5382291254626494  1.0000
  C   C3        1.0  0.6093051725546916  0.7686145415840284  0.03818666126582567  1.0000
  C   C4        1.0  0.6222090939475252  0.7683689086125367  0.461767170188665  1.0000
  C   C5        1.0  0.3820915711430928  0.32196943135031836  0.04710617890231109  1.0000
  C   C6        1.0  0.29570721904404  0.3222200344238431  0.4529399509196068  1.0000
  C   C7        1.0  0.6179079320275777  0.6780346550140949  0.9528959197063142  1.0000
  C   C8        1.0  0.7042923653198939  0.6777840525922016  0.5470546737746246  1.0000
  C   C9        1.0  0.28564462884689595  0.3176103499279606  0.8790321490868532  1.0000
  C   C10       1.0  0.3969103158288761  0.3178919806833775  0.6209257259584928  1.0000
  C   C11       1.0  0.7143568019608466  0.6823844160374081  0.12096791285348729  1.0000
  C   C12       1.0  0.603085100769917  0.6821121059634836  0.37907219618081456  1.0000
  C   C13       1.0  0.17576729072816732  0.5010501379651374  0.8757259686064456  1.0000
  C   C14       1.0  0.3234461067774248  0.501339911808728  0.6241265655136486  1.0000
  C   C15       1.0  0.8242346956521088  0.49893797028170894  0.1242757935504741  1.0000
  C   C16       1.0  0.6765472413001633  0.4986655061096316  0.37587370139025467  1.0000
  C   C17       1.0  0.2736460977015014  0.6299300332828397  0.21172557226171307  1.0000
  C   C18       1.0  0.09612607225697908  0.629970470277719  0.288196201139499  1.0000
  C   C19       1.0  0.7263581531648242  0.37006739592772664  0.7882726869440971  1.0000
  C   C20       1.0  0.9038837555264936  0.37002962225040636  0.7118000500788993  1.0000
  C   C21       1.0  0.2675251433686655  0.5071933274802944  0.04415732232466502  1.0000
  C   C22       1.0  0.22510130388677402  0.5074349737855286  0.45580092822509494  1.0000
  C   C23       1.0  0.7324681478736468  0.49281208998191767  0.9558481763193213  1.0000
  C   C24       1.0  0.7749037228749106  0.4925664501372324  0.5441956308364553  1.0000
  C   C25       1.0  0.17218685533865855  0.595710949822724  0.9592598103425655  1.0000
  C   C26       1.0  0.23195164613411376  0.5959922059633415  0.5406577473420454  1.0000
  C   C27       1.0  0.827803484834824  0.4042811526803761  0.040742670090949694  1.0000
  C   C28       1.0  0.7680582286107338  0.4040105496072998  0.4593384011775824  1.0000
  N   N1        1.0  0.08376972394018617  0.7758724882949722  0.9767897024317518  1.0000
  N   N2        1.0  0.1403199104813311  0.7761181214891693  0.523066555430276  1.0000
  N   N3        1.0  0.9162308289301037  0.22411295680802112  0.02321301244182909  1.0000
  N   N4        1.0  0.8596831353171555  0.22388729707342492  0.47692850873990267  1.0000
  N   N5        1.0  0.22583894562283302  0.6412664943101091  0.10979370145768289  1.0000
  N   N6        1.0  0.13255867299683635  0.6414466519712433  0.390146766282406  1.0000
  N   N7        1.0  0.7741419641139515  0.35873892302198845  0.890210478649955  1.0000
  N   N8        1.0  0.8674422654383919  0.3585574348854906  0.6098499979596994  1.0000
  N   N9        1.0  0.11444895883547455  0.8025411708351626  0.06815690622399019  1.0000
  N   N10       1.0  0.08281316385474459  0.8027472658875967  0.4317286917561063  1.0000
  N   N11       1.0  0.8855463232439293  0.1974575894008481  0.9318449582700621  1.0000
  N   N12       1.0  0.9171863961512018  0.1972568209329637  0.5682681751124434  1.0000
  Cl  Cl1       1.0  0.807812821242436  0.9088619291946857  0.7557322237353501  1.0000
  Cl  Cl2       1.0  0.2832925178667907  0.9088871736223325  0.7442883778068818  1.0000
  Cl  Cl3       1.0  0.1921934981450946  0.0911341687443823  0.2442636907058642  1.0000
  Cl  Cl4       1.0  0.7167034461852141  0.0911102552408352  0.2557119919404585  1.0000
