data_image0
_chemical_formula_structural       Ag4H24C16N12O20
_chemical_formula_sum              "Ag4 H24 C16 N12 O20"
_cell_length_a       4.976200298523941
_cell_length_b       10.175020704618355
_cell_length_c       15.394709900254641
_cell_angle_alpha    89.98094104318518
_cell_angle_beta     94.67208612538575
_cell_angle_gamma    89.99454358294702

_space_group_name_H-M_alt    "P 1"
_space_group_IT_number       1

loop_
  _space_group_symop_operation_xyz
  'x, y, z'

loop_
  _atom_site_type_symbol
  _atom_site_label
  _atom_site_symmetry_multiplicity
  _atom_site_fract_x
  _atom_site_fract_y
  _atom_site_fract_z
  _atom_site_occupancy
  Ag  Ag1       1.0  0.4128734059061828  0.6474062513070038  0.2668866461122761  1.0000
  Ag  Ag2       1.0  0.9130451153518846  0.852572199172073  0.7669304267688871  1.0000
  Ag  Ag3       1.0  0.5871277361260426  0.35258447627490597  0.7330922779673514  1.0000
  Ag  Ag4       1.0  0.0870114832289559  0.1474224958014716  0.2330868862574107  1.0000
  H   H1        1.0  0.0857094574070771  0.4606353789951426  0.35103791676669255  1.0000
  H   H2        1.0  0.5003011282361103  0.026173787618155597  0.6554746324066798  1.0000
  H   H3        1.0  7.188355899495672e-05  0.5261033002475557  0.8445079793961624  1.0000
  H   H4        1.0  0.4144491907408253  0.9605849270028057  0.1489940312597611  1.0000
  H   H5        1.0  0.914279337232401  0.5393779339988853  0.6489545090546542  1.0000
  H   H6        1.0  0.499553047414068  0.9738452801151636  0.3445337029421935  1.0000
  H   H7        1.0  0.9998919167867943  0.47385299682687076  0.1554613877501438  1.0000
  H   H8        1.0  0.5856860729468424  0.039449149538057796  0.8510411458145198  1.0000
  H   H9        1.0  0.35192733119415465  0.5840842751612527  0.5877881197157393  1.0000
  H   H10       1.0  0.8855438259141054  0.9179521290646876  0.4467091426614118  1.0000
  H   H11       1.0  0.6143057579283495  0.41784286840954377  0.053222707660573604  1.0000
  H   H12       1.0  0.14803318884619193  0.0841324721193146  0.9122112112746025  1.0000
  H   H13       1.0  0.6480492590534298  0.4159359056761359  0.412203506295576  1.0000
  H   H14       1.0  0.1143727866882287  0.08212891602380519  0.5533019024112775  1.0000
  H   H15       1.0  0.3856952581549891  0.5820761161710732  0.9467529685383909  1.0000
  H   H16       1.0  0.8520171471512583  0.9158150363731109  0.08781773178939288  1.0000
  H   H17       1.0  0.1051811846436479  0.7047489978059147  0.5550979295485021  1.0000
  H   H18       1.0  0.6251499771810317  0.7996061599850108  0.4525315148765685  1.0000
  H   H19       1.0  0.8749064173918557  0.2995619041656354  0.0475046421580316  1.0000
  H   H20       1.0  0.39472980758550597  0.2047778549507768  0.9448624335008518  1.0000
  H   H21       1.0  0.8947955067501996  0.2952682344046948  0.44489434808596673  1.0000
  H   H22       1.0  0.37482957789389815  0.20043858994264238  0.5474679481380349  1.0000
  H   H23       1.0  0.12514063838298028  0.7003797385266352  0.9524553403968383  1.0000
  H   H24       1.0  0.6052328926903174  0.7952177343404899  0.05514462903734339  1.0000
  C   C1        1.0  0.20103034002000444  0.5705949347398088  0.4560718482361281  1.0000
  C   C2        1.0  0.6769647259901959  0.9257384014011906  0.561320706450303  1.0000
  C   C3        1.0  0.8231561090852609  0.42570132556444656  0.9386632936366511  1.0000
  C   C4        1.0  0.2989994717269441  0.07057198808069387  0.0439276972155014  1.0000
  C   C5        1.0  0.7989585126086426  0.42942525759734446  0.5439212280452921  1.0000
  C   C6        1.0  0.3229354715061988  0.0742905408997956  0.4386862401791376  1.0000
  C   C7        1.0  0.17681170697432697  0.5742579238914088  0.061306122401276794  1.0000
  C   C8        1.0  0.7010803749735502  0.9294355021357248  0.9560983516867411  1.0000
  C   C9        1.0  0.1578648293806637  0.5999520610380459  0.5497174194244536  1.0000
  C   C10       1.0  0.6779918834305009  0.9036617243469603  0.4645412831468149  1.0000
  C   C11       1.0  0.8219380580004414  0.40361439811881894  0.0354486603695605  1.0000
  C   C12       1.0  0.3421082986247583  0.09997478610005571  0.9502709122045729  1.0000
  C   C13       1.0  0.8421293433834622  0.40007207035926484  0.45027052005876567  1.0000
  C   C14       1.0  0.321941012128228  0.0963810076207281  0.5354699634240703  1.0000
  C   C15       1.0  0.1780639911606983  0.596327195145946  0.9645205250323556  1.0000
  C   C16       1.0  0.6579253714097961  0.9000179160353597  0.0497552234501768  1.0000
  N   N1        1.0  0.9514176772871255  0.8519676354239323  0.2628270840901976  1.0000
  N   N2        1.0  0.4515955916829668  0.6480445359170515  0.7628152358282279  1.0000
  N   N3        1.0  0.048594380267445586  0.1480181711890367  0.7371877345141442  1.0000
  N   N4        1.0  0.5484618838534558  0.3519649132552515  0.2371793300961471  1.0000
  N   N5        1.0  0.0494762627957357  0.4789058682336034  0.41439112009780393  1.0000
  N   N6        1.0  0.5046048042793316  0.013285045984538602  0.5895422581762518  1.0000
  N   N7        1.0  0.9955798214742375  0.5132238211487916  0.9104412540495942  1.0000
  N   N8        1.0  0.4506031616303475  0.9788617948148897  0.0856277431177332  1.0000
  N   N9        1.0  0.9505184521103235  0.5211153133578604  0.5856007273796848  1.0000
  N   N10       1.0  0.4952897116536265  0.9867419237935239  0.4104672199218768  1.0000
  N   N11       1.0  0.0044061710323432994  0.4867246354972464  0.0895283848501975  1.0000
  N   N12       1.0  0.5494912627897008  0.021157501517166097  0.9144023843760891  1.0000
  O   O1        1.0  0.8850360921692443  0.7391538245054291  0.2879586982905664  1.0000
  O   O2        1.0  0.38522199291288933  0.7607973332079394  0.7880318400885855  1.0000
  O   O3        1.0  0.11496573329506529  0.26082510044298596  0.7120397407912193  1.0000
  O   O4        1.0  0.614844880195257  0.2392081892201431  0.21197259389548154  1.0000
  O   O5        1.0  0.19390583608153386  0.8728255336263187  0.2449355984156583  1.0000
  O   O6        1.0  0.6940472341129009  0.6272267667648279  0.7448787708559409  1.0000
  O   O7        1.0  0.8061083196869349  0.1271612575430652  0.7550798959668796  1.0000
  O   O8        1.0  0.3060131550081664  0.372778750856618  0.2551223328961854  1.0000
  O   O9        1.0  0.7817860781159497  0.9453187620922422  0.2553939883574117  1.0000
  O   O10       1.0  0.2819695764507131  0.5547125912481263  0.7553468169657336  1.0000
  O   O11       1.0  0.21823796989336597  0.054671963293969804  0.7446352807997058  1.0000
  O   O12       1.0  0.7180695406222313  0.4453056930305478  0.2446312690940644  1.0000
  O   O13       1.0  0.38157609689087485  0.6332994531374396  0.4209714804999223  1.0000
  O   O14       1.0  0.8381440086378904  0.8592779051910071  0.6107112452188161  1.0000
  O   O15       1.0  0.6620679495264029  0.35924295870353967  0.8892746622448229  1.0000
  O   O16       1.0  0.11845496120534453  0.1332719296467104  0.0790199701800987  1.0000
  O   O17       1.0  0.6184150691913147  0.3667128781115779  0.5790235751549062  1.0000
  O   O18       1.0  0.1617279129799769  0.14074806102157572  0.3892947058014755  1.0000
  O   O19       1.0  0.337857866601425  0.6407280414731102  0.1106968404685489  1.0000
  O   O20       1.0  0.8816475507465358  0.8667404950873275  0.9210102566089731  1.0000
