data_image0
_chemical_formula_structural       Al2H12C48Cl12O12
_chemical_formula_sum              "Al2 H12 C48 Cl12 O12"
_cell_length_a       3.9972487260810414
_cell_length_b       29.21752754286054
_cell_length_c       29.217712617043205
_cell_angle_alpha    119.99896832758128
_cell_angle_beta     90.00038188336994
_cell_angle_gamma    90.00031482422958

_space_group_name_H-M_alt    "P 1"
_space_group_IT_number       1

loop_
  _space_group_symop_operation_xyz
  'x, y, z'

loop_
  _atom_site_type_symbol
  _atom_site_label
  _atom_site_symmetry_multiplicity
  _atom_site_fract_x
  _atom_site_fract_y
  _atom_site_fract_z
  _atom_site_occupancy
  Al  Al1       1.0  1.1168077669799996e-05  0.4999998909322301  0.5000009410997706  1.0000
  Al  Al2       1.0  0.9995608694004615  0.16666557430353643  0.8333403056008849  1.0000
  H   H1        1.0  0.5016619652573626  0.21575626722038532  0.6363014783087024  1.0000
  H   H2        1.0  0.4980057115508671  0.36370844808988784  0.7842407828345798  1.0000
  H   H3        1.0  0.4979663496562807  0.30295803052704434  0.5490939681998342  1.0000
  H   H4        1.0  0.5019678628741104  0.45089679893312984  0.6970336927920686  1.0000
  H   H5        1.0  0.5016431645673267  0.9205258745367789  0.7842328947116927  1.0000
  H   H6        1.0  0.4980295621757307  0.920535357870115  0.6362898907559896  1.0000
  H   H7        1.0  0.49797289142124157  0.7461292910448093  0.6970353744153854  1.0000
  H   H8        1.0  0.5019870355293248  0.7461320235971274  0.5490970809307641  1.0000
  H   H9        1.0  0.5016735032989389  0.36371093709299634  0.0794646598711068  1.0000
  H   H10       1.0  0.49806337669012635  0.21577056473481096  0.07948332745770163  1.0000
  H   H11       1.0  0.4979417590360384  0.4509112910023135  0.25387166683049855  1.0000
  H   H12       1.0  0.5019618802444015  0.30297199855424856  0.25387283972836633  1.0000
  C   C1        1.0  0.5000073497274541  0.4591901416709733  0.4183766519704265  1.0000
  C   C2        1.0  0.5000078434003328  0.45918477832160687  0.5408123005331404  1.0000
  C   C3        1.0  0.5000150365714332  0.5816239871590057  0.5408131420859945  1.0000
  C   C4        1.0  0.49955418753994957  0.20748678031000617  0.7925385964105586  1.0000
  C   C5        1.0  0.49953448524136945  0.08504319326041822  0.7925195443791183  1.0000
  C   C6        1.0  0.49956218585322176  0.20746909580110195  0.9149619238659599  1.0000
  C   C7        1.0  0.49961653485041063  0.23719752969925895  0.7628213784703348  1.0000
  C   C8        1.0  0.49847391231950416  0.21060964250951034  0.707136404890079  1.0000
  C   C9        1.0  0.4996595316869374  0.2377450076384523  0.6792792344469661  1.0000
  C   C10       1.0  0.49985633023143095  0.29332845915281786  0.7066754169201559  1.0000
  C   C11       1.0  0.49996825590885396  0.32073122245975577  0.7622587754952832  1.0000
  C   C12       1.0  0.5009265810466773  0.29288323211564216  0.7894041142016874  1.0000
  C   C13       1.0  0.4999186891404435  0.3212819924384079  0.6787167618301382  1.0000
  C   C14       1.0  0.49993854414020683  0.3453797509066093  0.6546124636317572  1.0000
  C   C15       1.0  0.4999633773425245  0.3733378006484713  0.6266547681048352  1.0000
  C   C16       1.0  0.5000140633965913  0.34593229944426446  0.571068671648014  1.0000
  C   C17       1.0  0.5010621185195774  0.3737801429322261  0.5439330663387452  1.0000
  C   C18       1.0  0.5000055371610586  0.42947279432257807  0.5705211701239251  1.0000
  C   C19       1.0  0.49892663183768354  0.45606020299322125  0.6262127788787524  1.0000
  C   C20       1.0  0.49993251946764866  0.4289213152159947  0.654057732163544  1.0000
  C   C21       1.0  0.49958523161285473  0.025615164440338834  0.7628066754762841  1.0000
  C   C22       1.0  0.498434941967659  0.9965123704907272  0.789389078046611  1.0000
  C   C23       1.0  0.49964412731458197  0.9415202010540754  0.7622490386937031  1.0000
  C   C24       1.0  0.4998674182626957  0.913339117159822  0.7066643420118554  1.0000
  C   C25       1.0  0.49997232430647637  0.9415247179988029  0.6792669618693525  1.0000
  C   C26       1.0  0.5009071310560103  0.9965172883982164  0.7071191720800059  1.0000
  C   C27       1.0  0.4999507929220712  0.8574285853803474  0.6787094886969598  1.0000
  C   C28       1.0  0.49998186370147835  0.8092267446342732  0.6546127810403205  1.0000
  C   C29       1.0  0.49998768486918976  0.7533108671416218  0.6266557436979597  1.0000
  C   C30       1.0  0.500025377192813  0.7251301884167987  0.6540612076023962  1.0000
  C   C31       1.0  0.5010669301218654  0.6701477181902507  0.6262139598649058  1.0000
  C   C32       1.0  0.5000143243982434  0.6410441686794642  0.5705229062211501  1.0000
  C   C33       1.0  0.4989384545259341  0.6701491850880856  0.543935860292379  1.0000
  C   C34       1.0  0.49995079692866545  0.7251322847199689  0.5710719676392203  1.0000
  C   C35       1.0  0.49964172469795193  0.2371893782184955  0.9743910616063401  1.0000
  C   C36       1.0  0.49849069053428957  0.29287551722710964  0.0034855100318366933  1.0000
  C   C37       1.0  0.4996933600940494  0.3207325506727017  0.05847702093139162  1.0000
  C   C38       1.0  0.4999087077632822  0.2933358857210777  0.0866653096781178  1.0000
  C   C39       1.0  0.5000396155080297  0.2377526414711753  0.05848721758538743  1.0000
  C   C40       1.0  0.5009834350506422  0.21060729794218253  0.0034952285977993738  1.0000
  C   C41       1.0  0.4999355928226805  0.32129320210431445  0.14257439347773726  1.0000
  C   C42       1.0  0.4999497118138904  0.34539505781810226  0.19077831048536353  1.0000
  C   C43       1.0  0.4999490780214515  0.3733509767158766  0.24669152971857508  1.0000
  C   C44       1.0  0.49999078911781686  0.4289377495737981  0.2748715695761632  1.0000
  C   C45       1.0  0.5010458439665798  0.45607081238819097  0.3298532539908763  1.0000
  C   C46       1.0  0.49999785951657566  0.42948239230712915  0.35895688556735195  1.0000
  C   C47       1.0  0.49892041162810585  0.3737927554464522  0.3298543204522631  1.0000
  C   C48       1.0  0.4999192566691093  0.34594487307352756  0.27487077501653806  1.0000
  Cl  Cl1       1.0  0.5094568654979953  0.1425504667953987  0.6709482861661513  1.0000
  Cl  Cl2       1.0  0.4898862982173995  0.32908149622750943  0.8574623238631461  1.0000
  Cl  Cl3       1.0  0.48990213212864825  0.3376020709330804  0.47588200628980815  1.0000
  Cl  Cl4       1.0  0.5101389446111353  0.5241110390044385  0.6623921632733599  1.0000
  Cl  Cl5       1.0  0.5093618193594692  0.028375672921221666  0.8574483204940295  1.0000
  Cl  Cl6       1.0  0.48984883790318884  0.028385443418393833  0.6709277568126312  1.0000
  Cl  Cl7       1.0  0.48987454667607716  0.6382736260032617  0.6623924709113851  1.0000
  Cl  Cl8       1.0  0.5101239147225698  0.6382777103654717  0.4758851920883204  1.0000
  Cl  Cl9       1.0  0.5094325330170266  0.32906288503690473  0.9716130189405449  1.0000
  Cl  Cl10      1.0  0.48993078658322275  0.14254833938494468  0.9716363126538069  1.0000
  Cl  Cl11      1.0  0.4898926680520431  0.5241228031579085  0.36172523354457553  1.0000
  Cl  Cl12      1.0  0.5101357584190396  0.33761331710403664  0.36172710886834386  1.0000
  O   O1        1.0  0.7371504612757818  0.5585640210913354  0.5502488726002639  1.0000
  O   O2        1.0  0.7371466030322436  0.49168517116192606  0.44143674636296754  1.0000
  O   O3        1.0  0.7371474893493613  0.44975052331745513  0.5083169063499753  1.0000
  O   O4        1.0  0.26287822293158297  0.5585654606440543  0.5083187177733351  1.0000
  O   O5        1.0  0.2628780525788129  0.4916795695774638  0.5502481351153463  1.0000
  O   O6        1.0  0.2628746405721428  0.44975301556696223  0.44143554845010874  1.0000
  O   O7        1.0  0.7366641241624804  0.17496949854042762  0.8918949021507104  1.0000
  O   O8        1.0  0.7366632386724775  0.21691842545659068  0.8250381109621047  1.0000
  O   O9        1.0  0.7366502595425998  0.10811037287259494  0.7830890630149908  1.0000
  O   O10       1.0  0.26239616351999456  0.21690513016762483  0.8919019239754676  1.0000
  O   O11       1.0  0.26238507616358225  0.10810320721493843  0.8250178156962207  1.0000
  O   O12       1.0  0.2623952536898954  0.1749881980235274  0.7831009351767123  1.0000
