data_image0
_chemical_formula_structural       Zn4H52C80N8O16
_chemical_formula_sum              "Zn4 H52 C80 N8 O16"
_cell_length_a       15.291794330682462
_cell_length_b       15.344951473308134
_cell_length_c       18.165217447846327
_cell_angle_alpha    80.9971947303737
_cell_angle_beta     84.4038949058369
_cell_angle_gamma    78.2084335929978

_space_group_name_H-M_alt    "P 1"
_space_group_IT_number       1

loop_
  _space_group_symop_operation_xyz
  'x, y, z'

loop_
  _atom_site_type_symbol
  _atom_site_label
  _atom_site_symmetry_multiplicity
  _atom_site_fract_x
  _atom_site_fract_y
  _atom_site_fract_z
  _atom_site_occupancy
  Zn  Zn1       1.0  0.6248884678463397  0.3793540139679052  0.7039317653966609  1.0000
  Zn  Zn2       1.0  0.37511213275227107  0.6206451845954534  0.29606808799505313  1.0000
  Zn  Zn3       1.0  0.6117862471331604  0.3528016035540986  0.8612191584014045  1.0000
  Zn  Zn4       1.0  0.3882127885015692  0.6471989483280042  0.13878064221825073  1.0000
  H   H1        1.0  0.6904288434029483  0.0948953678401452  0.6705254379998069  1.0000
  H   H2        1.0  0.30957031883375646  0.9051045124353226  0.3294738898840494  1.0000
  H   H3        1.0  0.6870614524062831  0.9341102497306367  0.667822673841471  1.0000
  H   H4        1.0  0.31293770782513525  0.06588962979928681  0.3321772048049071  1.0000
  H   H5        1.0  0.5656284249906988  0.9156920223222756  0.8927523826391384  1.0000
  H   H6        1.0  0.43437060863873717  0.08430852881428313  0.10724796874303173  1.0000
  H   H7        1.0  0.5715524598149742  0.07606360807304918  0.8947580420917451  1.0000
  H   H8        1.0  0.4284457953431088  0.923937621213966  0.10524118137935548  1.0000
  H   H9        1.0  0.6477944563190264  0.7759935375455599  0.8947960710715039  1.0000
  H   H10       1.0  0.35220535979235024  0.2240063369316232  0.10520430669669176  1.0000
  H   H11       1.0  0.6386300965652936  0.6167128055671828  0.8928935642031636  1.0000
  H   H12       1.0  0.36136918625750514  0.38328640086501775  0.10710694323245923  1.0000
  H   H13       1.0  0.5853906900618072  0.6764186674429524  0.6611227557940753  1.0000
  H   H14       1.0  0.41460899944759433  0.32358187864087284  0.3388780947099194  1.0000
  H   H15       1.0  0.5925347531400648  0.8367408197474263  0.6620232610823111  1.0000
  H   H16       1.0  0.40746518756799327  0.1632583823775775  0.3379771947126145  1.0000
  H   H17       1.0  0.897974085844112  0.4134507052936699  0.6682773086110532  1.0000
  H   H18       1.0  0.10202573026726468  0.5865491691835134  0.3317230691571425  1.0000
  H   H19       1.0  0.058408569952646885  0.42304137615580123  0.6695747001402668  1.0000
  H   H20       1.0  0.9415919040439891  0.5769584940141927  0.330425625987239  1.0000
  H   H21       1.0  0.05771614151135649  0.3008637919305174  0.9000738557610576  1.0000
  H   H22       1.0  0.9422839257986763  0.6991347385878514  0.0999261272980761  1.0000
  H   H23       1.0  0.8963437614756488  0.2946762190519721  0.8981691966554027  1.0000
  H   H24       1.0  0.10365671452628084  0.7053236518635657  0.10183057870958834  1.0000
  H   H25       1.0  0.15490946258975674  0.39605171805389017  0.8998698777011572  1.0000
  H   H26       1.0  0.8450895690343857  0.6039488323371245  0.10013102444352741  1.0000
  H   H27       1.0  0.3164749026087606  0.4011104449992189  0.9008999221528884  1.0000
  H   H28       1.0  0.6835254447859  0.5988900967774102  0.09910087671040912  1.0000
  H   H29       1.0  0.3593439816528773  0.3485519088249874  0.6739617782939151  1.0000
  H   H30       1.0  0.6406557098618181  0.6514486380043821  0.3260385214475577  1.0000
  H   H31       1.0  0.19834885831599544  0.34164351548538013  0.6720658558703082  1.0000
  H   H32       1.0  0.8016508331986928  0.6583570313439823  0.3279344438711647  1.0000
  H   H33       1.0  0.6194768436562513  0.5299188193015354  0.5771442697848387  1.0000
  H   H34       1.0  0.38052297245512534  0.4700810551756477  0.42285610798336404  1.0000
  H   H35       1.0  0.6109263189041131  0.5504796690668033  0.4371070768805156  1.0000
  H   H36       1.0  0.38907086566621985  0.44952022263915853  0.5628935074504684  1.0000
  H   H37       1.0  0.6203366731214359  0.2650778281311972  0.45494113614159215  1.0000
  H   H38       1.0  0.37966248710997524  0.7349220513987191  0.545058742504786  1.0000
  H   H39       1.0  0.627318604608668  0.2569435321669148  0.5947606397138971  1.0000
  H   H40       1.0  0.372683313765762  0.7430556585275954  0.4052385596339151  1.0000
  H   H41       1.0  0.5985782850455692  0.48694353979662724  0.3233383532677082  1.0000
  H   H42       1.0  0.4014202173005827  0.5130563440404929  0.6766615770193669  1.0000
  H   H43       1.0  0.6115418829599409  0.23798892792334667  0.24304029694323503  1.0000
  H   H44       1.0  0.38845990881251424  0.7620109343777985  0.7569593751403617  1.0000
  H   H45       1.0  0.5907333469722788  0.46308563494015703  0.11502883049519146  1.0000
  H   H46       1.0  0.4092662219510288  0.5369155849869289  0.8849708404570367  1.0000
  H   H47       1.0  0.5919490202922049  0.47439187452807374  0.9748520842110654  1.0000
  H   H48       1.0  0.4080500153425248  0.525608677354029  0.02514771640858979  1.0000
  H   H49       1.0  0.6200635505849589  0.1994586202158217  0.983810039310271  1.0000
  H   H50       1.0  0.37993745670025436  0.8005419179991549  0.016190157149814925  1.0000
  H   H51       1.0  0.6218693625466755  0.17494132978202262  0.12421488481123087  1.0000
  H   H52       1.0  0.3781308622565974  0.8250598850923228  0.8757852852628218  1.0000
  C   C1        1.0  0.6300582099747701  0.193312784676067  0.7832861132756224  1.0000
  C   C2        1.0  0.36994095426723567  0.8066870963449447  0.2167126638457192  1.0000
  C   C3        1.0  0.6305114594139883  0.09565068924296581  0.7825716739642775  1.0000
  C   C4        1.0  0.3694875802313363  0.9043498641302252  0.21742702513033416  1.0000
  C   C5        1.0  0.6626351397691438  0.05503247654514351  0.7187268612119555  1.0000
  C   C6        1.0  0.33736480494950166  0.9449667270709485  0.2812724930579337  1.0000
  C   C7        1.0  0.6600406498814736  0.9652069376846202  0.7173857107331333  1.0000
  C   C8        1.0  0.33995916823520395  0.03479293753811421  0.2826141162725549  1.0000
  C   C9        1.0  0.6250244399815302  0.9132883423438333  0.7798378153671525  1.0000
  C   C10       1.0  0.37497484685185617  0.0867108655794553  0.22016159054343387  1.0000
  C   C11       1.0  0.5939455497773453  0.9544040941321658  0.8439816778616634  1.0000
  C   C12       1.0  0.40605492622458433  0.045595776783372316  0.15601809750332762  1.0000
  C   C13       1.0  0.5967582692503015  0.04409313740640641  0.8453872178001518  1.0000
  C   C14       1.0  0.4032402330958505  0.9559067464307136  0.15461271248691594  1.0000
  C   C15       1.0  0.6206477743771186  0.8183146562269243  0.7785302869203082  1.0000
  C   C16       1.0  0.37935269961951695  0.18168521394306236  0.22147003920719754  1.0000
  C   C17       1.0  0.6328127169468729  0.7550042692835607  0.8434976379867439  1.0000
  C   C18       1.0  0.3671877570497629  0.24499560088642622  0.15650268814076182  1.0000
  C   C19       1.0  0.6283671436034127  0.6656320043838876  0.842666567918869  1.0000
  C   C20       1.0  0.37163201061211043  0.3343678729094037  0.15733496301506023  1.0000
  C   C21       1.0  0.611592030789417  0.6365477701054232  0.7769174669378247  1.0000
  C   C22       1.0  0.38840856980919375  0.3634514284579354  0.2230823864538821  1.0000
  C   C23       1.0  0.5994291323806848  0.6990276602046566  0.7119082574052984  1.0000
  C   C24       1.0  0.40057055913401024  0.30097288662471305  0.28809204233617447  1.0000
  C   C25       1.0  0.6038471184830599  0.7885351179251715  0.7126996171132733  1.0000
  C   C26       1.0  0.3961520397430576  0.21146476085920804  0.28730081229561943  1.0000
  C   C27       1.0  0.6073664975800243  0.5399167314667752  0.7765589375759206  1.0000
  C   C28       1.0  0.3926346343018777  0.46008313439602233  0.22344133691088805  1.0000
  C   C29       1.0  0.7897969412212192  0.35278758131058663  0.7824805763573583  1.0000
  C   C30       1.0  0.21020394146732  0.6472136292565766  0.21751954207599775  1.0000
  C   C31       1.0  0.8874251821390545  0.3539222365222019  0.7831368700302054  1.0000
  C   C32       1.0  0.11257385149038157  0.6460783146143572  0.2168634813519646  1.0000
  C   C33       1.0  0.9339401280303433  0.38894616410252086  0.718631016845457  1.0000
  C   C34       1.0  0.06605902618518661  0.6110537131907706  0.2813705140884722  1.0000
  C   C35       1.0  0.023653654039250696  0.39349423175904974  0.7196386079200537  1.0000
  C   C36       1.0  0.9763453795901853  0.6065063193775092  0.28036174346211606  1.0000
  C   C37       1.0  0.06962069479431679  0.36295964872943653  0.785077103856388  1.0000
  C   C38       1.0  0.9303784634318009  0.6370402300549431  0.2149233255525047  1.0000
  C   C39       1.0  0.022617878641519  0.32699192433339164  0.8493481617187871  1.0000
  C   C40       1.0  0.9773812795845914  0.6730079544509878  0.15065226769010565  1.0000
  C   C41       1.0  0.932743385062139  0.3225971793660349  0.8484566091609768  1.0000
  C   C42       1.0  0.06725577316397849  0.6774026994183447  0.151543820247916  1.0000
  C   C43       1.0  0.16482372847913498  0.368245448739856  0.7859098902822057  1.0000
  C   C44       1.0  0.8351760856269479  0.6317544249917901  0.2140910382485117  1.0000
  C   C45       1.0  0.19962042236447533  0.38466757772719273  0.8502897815626583  1.0000
  C   C46       1.0  0.8003805849207452  0.6153329604877842  0.14971041489742737  1.0000
  C   C47       1.0  0.2896484715336385  0.3884141679202884  0.8510155075228386  1.0000
  C   C48       1.0  0.710351346583039  0.6115857073024459  0.14898431948284951  1.0000
  C   C49       1.0  0.347588208258756  0.3760343166404141  0.7872442920635481  1.0000
  C   C50       1.0  0.6524116078526206  0.623965557836769  0.21275608570464757  1.0000
  C   C51       1.0  0.3134186524649962  0.3599753772961947  0.7227924710254073  1.0000
  C   C52       1.0  0.6865818255422341  0.6400244943648872  0.27720675357706176  1.0000
  C   C53       1.0  0.22350525000222632  0.35625557708856104  0.7220486397378354  1.0000
  C   C54       1.0  0.7764937856325035  0.6437449747935419  0.2779511608818127  1.0000
  C   C55       1.0  0.444848023655112  0.37842600444464125  0.7876272800442836  1.0000
  C   C56       1.0  0.5551527035454812  0.6215725225120751  0.21237210061163841  1.0000
  C   C57       1.0  0.6199603176333425  0.47358634765755886  0.5470658985057713  1.0000
  C   C58       1.0  0.380039498478034  0.5264135268196242  0.4529344792624247  1.0000
  C   C59       1.0  0.6152613226929374  0.4841722764162385  0.4700721250960458  1.0000
  C   C60       1.0  0.38473783954377444  0.5158276038592291  0.5299272027878104  1.0000
  C   C61       1.0  0.6159546197630302  0.40859690785312364  0.43517644059550536  1.0000
  C   C62       1.0  0.38404453846308684  0.5914029709312558  0.5648239888133875  1.0000
  C   C63       1.0  0.6202751692745921  0.32482001043552344  0.48035413900008467  1.0000
  C   C64       1.0  0.3797245242453969  0.6751805371393831  0.5196456099788663  1.0000
  C   C65       1.0  0.6241091735501672  0.31990598645161583  0.5568075907057236  1.0000
  C   C66       1.0  0.3758919623423226  0.6800938809022696  0.44319158225604854  1.0000
  C   C67       1.0  0.6122294825365061  0.4188787924289843  0.3543758319674525  1.0000
  C   C68       1.0  0.38776967368431775  0.5811210856098514  0.6456251482039621  1.0000
  C   C69       1.0  0.6134841110497363  0.3047847222605925  0.21122425508477255  1.0000
  C   C70       1.0  0.38651558247025264  0.6952158253143211  0.7887754938941858  1.0000
  C   C71       1.0  0.6089204205604447  0.31729254241190574  0.13043530072356904  1.0000
  C   C72       1.0  0.39108059073536344  0.6827079972941589  0.8695637942114804  1.0000
  C   C73       1.0  0.5989024286229706  0.4031200049291997  0.08787976878343787  1.0000
  C   C74       1.0  0.40109726489702524  0.5968805426457067  0.9121199801955202  1.0000
  C   C75       1.0  0.5984530874989674  0.4098840583987028  0.010955475805530973  1.0000
  C   C76       1.0  0.4015466060210215  0.5901164891762037  0.98904427317342  1.0000
  C   C77       1.0  0.614254020300649  0.2551701091390655  0.015784971855858  1.0000
  C   C78       1.0  0.385746451690693  0.7448297602853842  0.9842159050341625  1.0000
  C   C79       1.0  0.6153383764907473  0.2424961221249121  0.09315087277223454  1.0000
  C   C80       1.0  0.38466263079446605  0.7575044160900647  0.9068493236878514  1.0000
  N   N1        1.0  0.6242043807983393  0.39299469424194194  0.589653725781915  1.0000
  N   N2        1.0  0.37579688169613235  0.6070045015053083  0.4103449744440654  1.0000
  N   N3        1.0  0.6246747629092155  0.34857482246714266  0.3206202402204995  1.0000
  N   N4        1.0  0.37532426871491964  0.6514257279238723  0.6793806619241922  1.0000
  N   N5        1.0  0.6203482745952585  0.37154360068011283  0.24431137953225607  1.0000
  N   N6        1.0  0.3796507610394713  0.6284569512019902  0.7556884210873919  1.0000
  N   N7        1.0  0.6064650018648691  0.3373982233694832  0.9754362540020058  1.0000
  N   N8        1.0  0.39353481224120673  0.6626016503621559  0.024564674528711812  1.0000
  O   O1        1.0  0.6067307544254207  0.22373207751593335  0.8451758182775893  1.0000
  O   O2        1.0  0.39326947839904125  0.7762691403405884  0.15482214874639777  1.0000
  O   O3        1.0  0.6515776185397045  0.23899236883382  0.721861437914612  1.0000
  O   O4        1.0  0.34842233018953556  0.7610068362733602  0.2781368148302407  1.0000
  O   O5        1.0  0.6168287222548159  0.4883894211498118  0.8386922168639048  1.0000
  O   O6        1.0  0.383174507879545  0.5116097594392246  0.16130798072754973  1.0000
  O   O7        1.0  0.5953667119302608  0.5160551501011882  0.7147543206642839  1.0000
  O   O8        1.0  0.40463479173638467  0.4839426979595275  0.28524673866522227  1.0000
  O   O9        1.0  0.7494059577334583  0.32510503346407665  0.8436314080007963  1.0000
  O   O10       1.0  0.25059320249795297  0.6748948460658467  0.15636847064558176  1.0000
  O   O11       1.0  0.7539572672680847  0.38130498245512  0.7204471458366088  1.0000
  O   O12       1.0  0.2460430781212821  0.618695558575965  0.2795542037892035  1.0000
  O   O13       1.0  0.47456488618107084  0.38600604131296024  0.8489289497579835  1.0000
  O   O14       1.0  0.5254349339409005  0.613993834655318  0.15107032648517565  1.0000
  O   O15       1.0  0.4912648852467568  0.3722679486570187  0.7255770230095921  1.0000
  O   O16       1.0  0.5087360871366116  0.6277292321042584  0.2744236152248122  1.0000
