data_image0
_chemical_formula_structural       Zn4H36C56N4O20
_chemical_formula_sum              "Zn4 H36 C56 N4 O20"
_cell_length_a       8.687567009277306
_cell_length_b       13.086820344996609
_cell_length_c       34.59727948591385
_cell_angle_alpha    89.76533832924811
_cell_angle_beta     90.03562498870885
_cell_angle_gamma    90.03836609701366

_space_group_name_H-M_alt    "P 1"
_space_group_IT_number       1

loop_
  _space_group_symop_operation_xyz
  'x, y, z'

loop_
  _atom_site_type_symbol
  _atom_site_label
  _atom_site_symmetry_multiplicity
  _atom_site_fract_x
  _atom_site_fract_y
  _atom_site_fract_z
  _atom_site_occupancy
  Zn  Zn1       1.0  0.6585776682940505  0.9915280881044028  0.5000243113160465  1.0000
  Zn  Zn2       1.0  0.35428732071659397  0.008091463687428302  0.49997012571879657  1.0000
  Zn  Zn3       1.0  0.2512740201743924  0.985924988190952  0.999958070213083  1.0000
  Zn  Zn4       1.0  0.5554374452147712  0.0028634054260337012  0.9999975876761341  1.0000
  H   H1        1.0  0.5884588615323666  0.005495307924753901  0.885439127618227  1.0000
  H   H2        1.0  0.6222307863995695  0.007828939516628003  0.8144724564847438  1.0000
  H   H3        1.0  0.12850669033451106  0.9928885044001634  0.8010986502698216  1.0000
  H   H4        1.0  0.7780008510065316  0.9940004666723966  0.6991788278355104  1.0000
  H   H5        1.0  0.2847245052488532  0.009217277358786202  0.6851158664906337  1.0000
  H   H6        1.0  0.32012394333418104  0.008531409342147401  0.6142079435475127  1.0000
  H   H7        1.0  0.2767487593255352  0.9993973903660773  0.7452312448372569  1.0000
  H   H8        1.0  0.6290625730340764  0.9992219198574122  0.754736885994909  1.0000
  H   H9        1.0  0.5891565565443244  0.9994002772179655  0.11461162799032826  1.0000
  H   H10       1.0  0.6224997887042321  0.0027649626074151006  0.18557604220734453  1.0000
  H   H11       1.0  0.1284254903075421  0.9964132619620473  0.19872546095444935  1.0000
  H   H12       1.0  0.7782956448917063  0.9981414589887622  0.300938222510851  1.0000
  H   H13       1.0  0.2845922709110766  0.006539132909736602  0.3147904615725636  1.0000
  H   H14       1.0  0.3198747958506445  0.0056237021888492006  0.3857240731027005  1.0000
  H   H15       1.0  0.276937247483275  0.9999323522999862  0.25470172330784646  1.0000
  H   H16       1.0  0.6291898437979171  0.00012664417155150006  0.2453123047903318  1.0000
  H   H17       1.0  0.6528996963651325  0.6663805335408597  0.4999691684020888  1.0000
  H   H18       1.0  0.1636324862548548  0.7059622189207175  0.5000775393084282  1.0000
  H   H19       1.0  0.23196939423711171  0.33814148302052865  0.49987257839217136  1.0000
  H   H20       1.0  0.7213323631099016  0.29890206725976043  0.4998495814163349  1.0000
  H   H21       1.0  0.2577489624986882  0.6607569209880141  0.9998102651348121  1.0000
  H   H22       1.0  0.7468435209573981  0.7014137720116977  0.9996565076165427  1.0000
  H   H23       1.0  0.6795269987417712  0.333286947723721  0.99986757040476  1.0000
  H   H24       1.0  0.19007459536682347  0.29326898448138655  0.9998593983915072  1.0000
  H   H25       1.0  0.0527344389095532  0.9856961061308313  0.9043099705482336  1.0000
  H   H26       1.0  0.9726510683161109  0.9803180837925682  0.8576585295212455  1.0000
  H   H27       1.0  0.8560401479191738  0.9890337074284334  0.5960530342485486  1.0000
  H   H28       1.0  0.9351567252159685  0.982597785507544  0.6428131796540841  1.0000
  H   H29       1.0  0.0532420280587473  0.9883405743138243  0.09544349863544713  1.0000
  H   H30       1.0  0.9720703838649172  0.9878464474051686  0.14206208151377103  1.0000
  H   H31       1.0  0.8559373686950379  0.9920539525946879  0.40412847012322584  1.0000
  H   H32       1.0  0.9357531495250625  0.9891328285000471  0.3574128077153561  1.0000
  H   H33       1.0  0.8049560578814833  0.5595880477241195  0.49989488508738583  1.0000
  H   H34       1.0  0.0809076417178147  0.4450725000286298  0.49997567317461744  1.0000
  H   H35       1.0  0.10640487185688129  0.5539082810615171  0.9995817966801895  1.0000
  H   H36       1.0  0.8304484381211665  0.4406655444061728  0.9995810487026093  1.0000
  C   C1        1.0  0.43213974760151075  0.8087305725267059  0.5000364562059049  1.0000
  C   C2        1.0  0.570771492746239  0.9988614193110052  0.5733940141262934  1.0000
  C   C3        1.0  0.4580599914088949  0.1957094142680873  0.4998955552451251  1.0000
  C   C4        1.0  0.5707657831727672  0.9993580205160982  0.4266271377655643  1.0000
  C   C5        1.0  0.47780424399385163  0.8034877477490526  0.9998540380988391  1.0000
  C   C6        1.0  0.3385128032415352  0.994814052995473  0.9265889329866185  1.0000
  C   C7        1.0  0.45317540732271067  0.19039315461668593  0.9999600962474844  1.0000
  C   C8        1.0  0.3389395715983738  0.993419010583054  0.07334313027382683  1.0000
  C   C9        1.0  0.34256416645641957  0.9972978116720059  0.8841362751062932  1.0000
  C   C10       1.0  0.4887793742426966  0.0024128856380372012  0.8663649650894244  1.0000
  C   C11       1.0  0.5071875779125462  0.003414916277662901  0.8268357449147105  1.0000
  C   C12       1.0  0.3760483667145635  0.9994006946228284  0.8024806177927888  1.0000
  C   C13       1.0  0.2304518543142393  0.9952147872929659  0.8196362038584581  1.0000
  C   C14       1.0  0.20899526230552823  0.9940764774372113  0.8601746306786568  1.0000
  C   C15       1.0  0.38716790728822303  0.9998089181694072  0.7604385692679119  1.0000
  C   C16       1.0  0.5188034249233553  1.4743300297900129e-05  0.7394596897585544  1.0000
  C   C17       1.0  0.6765619373222264  0.9968247321134955  0.6804782983409724  1.0000
  C   C18       1.0  0.5305999079255769  0.0006447162807959  0.6974382100809253  1.0000
  C   C19       1.0  0.400017452396753  0.005199759197182602  0.6729138816403408  1.0000
  C   C20       1.0  0.41938058513868987  0.005066495028650302  0.633419882912712  1.0000
  C   C21       1.0  0.5659421346816841  0.0004128162283692001  0.6158461435564817  1.0000
  C   C22       1.0  0.6989560947096507  0.9965931498477977  0.639979178258372  1.0000
  C   C23       1.0  0.34301337584206953  0.9957376024322643  0.1157884305933692  1.0000
  C   C24       1.0  0.489262900355186  0.998635928972405  0.13363371827299636  1.0000
  C   C25       1.0  0.5074064867713162  0.00030689432350069996  0.1731701773094656  1.0000
  C   C26       1.0  0.376140534104735  0.9990539954836352  0.19747944039620083  1.0000
  C   C27       1.0  0.230520296872001  0.9968085414875038  0.18024895556865064  1.0000
  C   C28       1.0  0.20925142068183084  0.9952363571107983  0.13968856314922112  1.0000
  C   C29       1.0  0.3873001296843697  0.00010018482238650006  0.23952117094214032  1.0000
  C   C30       1.0  0.518917825036887  0.0007710299905668001  0.2605371218628747  1.0000
  C   C31       1.0  0.6767254748877464  0.9995082360806224  0.3195799497341768  1.0000
  C   C32       1.0  0.5306740237694286  0.0016095841918968004  0.3025546198426738  1.0000
  C   C33       1.0  0.3999745890900215  0.0041994472851314005  0.327034874445971  1.0000
  C   C34       1.0  0.41922047575283017  0.0038801905524082003  0.3665404076169595  1.0000
  C   C35       1.0  0.5658736464747847  0.0009721873824589003  0.3841742226965295  1.0000
  C   C36       1.0  0.6990363430874497  0.9991329559181993  0.3600949150845594  1.0000
  C   C37       1.0  0.5390528435541952  0.6310540386750177  0.5000036426733987  1.0000
  C   C38       1.0  0.26222609026902427  0.654825489696066  0.5000589047953383  1.0000
  C   C39       1.0  0.23950270679579688  0.5505026438656273  0.5000178460889942  1.0000
  C   C40       1.0  0.3661789553849459  0.48063268420742133  0.499993145880346  1.0000
  C   C41       1.0  0.3458600299408729  0.37338537002552386  0.49992985036730186  1.0000
  C   C42       1.0  0.6228424105048517  0.35011215160637493  0.4998958713688353  1.0000
  C   C43       1.0  0.6458051270411005  0.45427155649437634  0.4999143500604077  1.0000
  C   C44       1.0  0.51889518388181  0.5239817036088965  0.4999880985619285  1.0000
  C   C45       1.0  0.4121279340663549  0.6955108169110816  0.5000295626609912  1.0000
  C   C46       1.0  0.47286792729823174  0.3091624255561883  0.49991575010093914  1.0000
  C   C47       1.0  0.3716943678032365  0.6256349849290076  0.9997675296693133  1.0000
  C   C48       1.0  0.6484232909261677  0.650037537500076  0.999675801315128  1.0000
  C   C49       1.0  0.6715263772109666  0.545752249250846  0.9996787017110124  1.0000
  C   C50       1.0  0.5450349767605118  0.4755620166336314  0.9997391753779752  1.0000
  C   C51       1.0  0.56554696182382  0.3683302474054814  0.9998329500356891  1.0000
  C   C52       1.0  0.28854199493061117  0.34459709488886864  0.999835841534143  1.0000
  C   C53       1.0  0.26541460667014144  0.44871968735181167  0.9997629304486396  1.0000
  C   C54       1.0  0.39218331067074524  0.5186081273052991  0.9997326803103518  1.0000
  C   C55       1.0  0.4983779812438627  0.6903479113211689  0.9997572588763792  1.0000
  C   C56       1.0  0.43858033962476384  0.30388006174402454  0.9998919595187775  1.0000
  N   N1        1.0  0.06416409739663462  0.9912271317825374  0.8751591718272566  1.0000
  N   N2        1.0  0.8441016812011101  0.9941385351042131  0.625186816742989  1.0000
  N   N3        1.0  0.06455788491336992  0.9943789609510392  0.12457286415378382  1.0000
  N   N4        1.0  0.8441549078227482  0.998398222364088  0.3749972703299136  1.0000
  O   O1        1.0  0.5683312313841142  0.8443004426230158  0.4999391879292718  1.0000
  O   O2        1.0  0.3077405217756493  0.8628881619815445  0.5001441604696595  1.0000
  O   O3        1.0  0.4431932584779048  0.0024158371644205003  0.5552618041067989  1.0000
  O   O4        1.0  0.703121279533633  0.9932867106800529  0.5555252893745576  1.0000
  O   O5        1.0  0.321773197848124  0.1556718109545514  0.49981872877909694  1.0000
  O   O6        1.0  0.5822292367795259  0.14442702511599492  0.49995952481704364  1.0000
  O   O7        1.0  0.7032566042046752  0.9942424032830958  0.44452186971421537  1.0000
  O   O8        1.0  0.4431282848019933  0.0024655312282960006  0.4447044693028417  1.0000
  O   O9        1.0  0.3415353160750172  0.8387728338042141  1.7274325578899745e-05  1.0000
  O   O10       1.0  0.6020430922539646  0.8578934943603187  0.9997802436852511  1.0000
  O   O11       1.0  0.4662971486967394  0.998022329924311  0.9446220788712835  1.0000
  O   O12       1.0  0.2063250379906094  0.9888449391139035  0.9445652272408012  1.0000
  O   O13       1.0  0.5893046797910486  0.15025333598416782  7.427506987060002e-05  1.0000
  O   O14       1.0  0.328965386526022  0.13903643897900514  0.9999015657248833  1.0000
  O   O15       1.0  0.2065997369387134  0.9884749437697808  0.05536253730590351  1.0000
  O   O16       1.0  0.46680008182678284  0.995872036226487  0.05534676280903741  1.0000
  O   O17       1.0  0.7950387507552038  0.485519656117127  0.4999022428826266  1.0000
  O   O18       1.0  0.0903415231406299  0.5191606181905684  0.4999864475885192  1.0000
  O   O19       1.0  0.1161295354502556  0.4798263998003307  0.9997195227560597  1.0000
  O   O20       1.0  0.8208010605794271  0.5147396043417701  0.9996410449694512  1.0000
