data_image0
_chemical_formula_structural       Ba4H12C28N4O16
_chemical_formula_sum              "Ba4 H12 C28 N4 O16"
_cell_length_a       6.937766635140728
_cell_length_b       6.937749972186173
_cell_length_c       17.560328832863245
_cell_angle_alpha    87.59604697185786
_cell_angle_beta     87.59607431256825
_cell_angle_gamma    63.133418231044104

_space_group_name_H-M_alt    "P 1"
_space_group_IT_number       1

loop_
  _space_group_symop_operation_xyz
  'x, y, z'

loop_
  _atom_site_type_symbol
  _atom_site_label
  _atom_site_symmetry_multiplicity
  _atom_site_fract_x
  _atom_site_fract_y
  _atom_site_fract_z
  _atom_site_occupancy
  Ba  Ba1       1.0  0.6780996985607929  0.9875219989050025  0.6936002677527995  1.0000
  Ba  Ba2       1.0  0.012477353487916822  0.3218968109678784  0.8063984825285644  1.0000
  Ba  Ba3       1.0  0.3219004406951811  0.012480499397696604  0.3064002772449399  1.0000
  Ba  Ba4       1.0  0.9875249765782641  0.6780975906108608  0.1936004631743273  1.0000
  H   H1        1.0  0.7872935451188424  0.6035089868979284  0.47655706981307583  1.0000
  H   H2        1.0  0.3964958274546504  0.21270101149474394  0.0234431673808402  1.0000
  H   H3        1.0  0.21269500771084898  0.3964999582060996  0.5234418617293173  1.0000
  H   H4        1.0  0.6035072227547217  0.7872982644408921  0.9765585223205375  1.0000
  H   H5        1.0  0.7619915402662939  0.0966541957473126  0.3502288206014795  1.0000
  H   H6        1.0  0.903351615201963  0.2380026045582468  0.14977030586060638  1.0000
  H   H7        1.0  0.23801443278274087  0.903338619681847  0.6497735039432512  1.0000
  H   H8        1.0  0.09665720409098812  0.7619901738245362  0.850227410979798  1.0000
  H   H9        1.0  0.713135396453822  0.9342710592146802  0.4758554229498415  1.0000
  H   H10       1.0  0.06573169480990522  0.2868593381961446  0.0241425383131499  1.0000
  H   H11       1.0  0.2868618940381679  0.06572822358986491  0.5241475120005956  1.0000
  H   H12       1.0  0.9342771029925527  0.7131366687226475  0.9758545497933112  1.0000
  C   C1        1.0  0.7603686891482082  0.34667179876614546  0.5409084290467732  1.0000
  C   C2        1.0  0.6533263019357989  0.2396319081277554  0.9590914663782186  1.0000
  C   C3        1.0  0.2396299910889894  0.653333932190641  0.4590920831778504  1.0000
  C   C4        1.0  0.3466716606782753  0.7603722010166579  0.040908519599554376  1.0000
  C   C5        1.0  0.7745466027270851  0.4536583790773534  0.47361336296676626  1.0000
  C   C6        1.0  0.5463432631691846  0.22544837006486065  0.0263857973117823  1.0000
  C   C7        1.0  0.2254456072537749  0.5463424939948498  0.5263867891026521  1.0000
  C   C8        1.0  0.45365832550134394  0.7745508859803394  0.9736136418648441  1.0000
  C   C9        1.0  0.7774361903665082  0.36402767042079637  0.4036052961850345  1.0000
  C   C10       1.0  0.635978081433585  0.2225587237473405  0.09639493568794677  1.0000
  C   C11       1.0  0.22256035849181893  0.6359699665628612  0.5963942660329735  1.0000
  C   C12       1.0  0.36403220191826335  0.7774373270704019  0.9036072494288447  1.0000
  C   C13       1.0  0.7590771007128937  0.171797890882317  0.4038165833710963  1.0000
  C   C14       1.0  0.8282064549334934  0.24091689383937623  0.09618085819086278  1.0000
  C   C15       1.0  0.2409216343915475  0.8281981448630307  0.5961846764611138  1.0000
  C   C16       1.0  0.17180306529419903  0.759080739693495  0.9038173254595632  1.0000
  C   C17       1.0  0.7339055692217825  0.0814295655398993  0.47379244791763847  1.0000
  C   C18       1.0  0.9185697498978983  0.2660914632321578  0.026206174693079697  1.0000
  C   C19       1.0  0.26609385241106753  0.9185713109504263  0.5262075708332502  1.0000
  C   C20       1.0  0.08142968362122355  0.7339061751187473  0.9737933341975233  1.0000
  C   C21       1.0  0.7751485101135245  0.43489768004346985  0.6169189070409402  1.0000
  C   C22       1.0  0.5650973157376028  0.22485222187553694  0.8830804678405426  1.0000
  C   C23       1.0  0.224845108820972  0.5651096603877904  0.3830810994911217  1.0000
  C   C24       1.0  0.4348984798387932  0.7751535077140019  0.1169200977114926  1.0000
  C   C25       1.0  0.8046011928087966  0.4707693343969268  0.33026215601213227  1.0000
  C   C26       1.0  0.5292369747226148  0.19539076450479334  0.1697364053268728  1.0000
  C   C27       1.0  0.1953946503126715  0.5292234426349439  0.6697363700987322  1.0000
  C   C28       1.0  0.470778355525603  0.8046036624333722  0.8302645775911228  1.0000
  N   N1        1.0  0.7376812244777325  0.1630539419373136  0.5412729106781169  1.0000
  N   N2        1.0  0.8369477727719995  0.262318354831237  0.9587258108699215  1.0000
  N   N3        1.0  0.2623167525426736  0.8369501816122169  0.458728783190999  1.0000
  N   N4        1.0  0.16305452391743108  0.737682513422932  0.0412730159593266  1.0000
  O   O1        1.0  0.8125141247941842  0.30783374947809256  0.6751838246518743  1.0000
  O   O2        1.0  0.6921590459981599  0.18748952996752885  0.8248138417807949  1.0000
  O   O3        1.0  0.18747948933820882  0.692173586151462  0.3248156125830732  1.0000
  O   O4        1.0  0.307829494945267  0.812522653275913  0.1751855996218907  1.0000
  O   O5        1.0  0.752557363530556  0.6261408554227401  0.6168566673892071  1.0000
  O   O6        1.0  0.37385712517016145  0.24744363117581258  0.8831431996313481  1.0000
  O   O7        1.0  0.2474376929322374  0.3738664808904418  0.3831427431820344  1.0000
  O   O8        1.0  0.6261394047177332  0.7525604868883846  0.11685795160435926  1.0000
  O   O9        1.0  0.7201150219442811  0.6761748677998226  0.326925883828835  1.0000
  O   O10       1.0  0.32382791257742843  0.2798789362346312  0.1730732517246381  1.0000
  O   O11       1.0  0.2798743127419884  0.32381951322118857  0.6730715939560737  1.0000
  O   O12       1.0  0.6761845092374443  0.7201219656151211  0.8269288042413548  1.0000
  O   O13       1.0  0.9156658098808634  0.34919771257767007  0.2763197813030799  1.0000
  O   O14       1.0  0.6508114297516485  0.08432674700890169  0.22368044388127117  1.0000
  O   O15       1.0  0.0843329275056277  0.6507950754248455  0.7236798300746016  1.0000
  O   O16       1.0  0.34920750986464094  0.9156660601677657  0.7763199327987633  1.0000
