data_image0
_chemical_formula_structural       Mn3P6H44C24O22
_chemical_formula_sum              "Mn3 P6 H44 C24 O22"
_cell_length_a       8.265743865220603
_cell_length_b       10.040308488886645
_cell_length_c       13.199122003223811
_cell_angle_alpha    66.67068445934474
_cell_angle_beta     82.94292752266948
_cell_angle_gamma    70.73479291139647

_space_group_name_H-M_alt    "P 1"
_space_group_IT_number       1

loop_
  _space_group_symop_operation_xyz
  'x, y, z'

loop_
  _atom_site_type_symbol
  _atom_site_label
  _atom_site_symmetry_multiplicity
  _atom_site_fract_x
  _atom_site_fract_y
  _atom_site_fract_z
  _atom_site_occupancy
  Mn  Mn1       1.0  0.022974108293467972  0.1501348777427651  0.39204863523954  1.0000
  Mn  Mn2       1.0  0.9767155126904895  0.8502301220204771  0.607904148619042  1.0000
  Mn  Mn3       1.0  0.5000432691470422  0.9999343959067771  0.5001404262243199  1.0000
  P   P1        1.0  0.5895235418262956  0.31566573358065136  0.31079991325255923  1.0000
  P   P2        1.0  0.4103580392721823  0.6843205505857384  0.6892613575830212  1.0000
  P   P3        1.0  0.8569818254206037  0.8855725478104687  0.36526016121374744  1.0000
  P   P4        1.0  0.14304984491934652  0.11442773740742498  0.6347698415270673  1.0000
  P   P5        1.0  0.9367203184034524  0.7168531018046947  0.888276650300462  1.0000
  P   P6        1.0  0.06325894184699613  0.28322026256040544  0.1117036996216427  1.0000
  H   H1        1.0  0.2768074671563949  0.86796327551491  0.49103565669621935  1.0000
  H   H2        1.0  0.7232611924620965  0.131675151486121  0.5087602763842157  1.0000
  H   H3        1.0  0.33914531600142084  0.9282330067803242  0.36508056850786375  1.0000
  H   H4        1.0  0.6613072826915527  0.07134046943438926  0.6348898842243502  1.0000
  H   H5        1.0  0.11018986207509579  0.3948442495168292  0.2704149833348311  1.0000
  H   H6        1.0  0.8898589238408262  0.6052911654619705  0.7295136910899701  1.0000
  H   H7        1.0  0.2558446998855075  0.29990434520028936  0.35951433944353545  1.0000
  H   H8        1.0  0.744115020240059  0.7001319945353758  0.6404738089490466  1.0000
  H   H9        1.0  0.7247710439858962  0.33755602871236334  0.14650739696442375  1.0000
  H   H10       1.0  0.2753093518047293  0.6624415638249843  0.85355206477972  1.0000
  H   H11       1.0  0.934630610746545  0.06711235212267748  0.23304887104318087  1.0000
  H   H12       1.0  0.06552135189242846  0.9328237523861486  0.7670341160760686  1.0000
  H   H13       1.0  0.8660780933427146  0.5026154752348403  0.9506323824986255  1.0000
  H   H14       1.0  0.13389790680486158  0.49744376174415067  0.049284901971525116  1.0000
  H   H15       1.0  0.38541846021143994  0.5588670457297198  0.22974938682048673  1.0000
  H   H16       1.0  0.6145611547743427  0.44117153089555927  0.7702259063646582  1.0000
  H   H17       1.0  0.43707912547318967  0.5253111883570938  0.3646849312843088  1.0000
  H   H18       1.0  0.5628724733138738  0.4747683415726699  0.6352928113878563  1.0000
  H   H19       1.0  0.6131812803008215  0.4769092828849891  0.4617081803784729  1.0000
  H   H20       1.0  0.3867692952721669  0.5231362888494003  0.538277256270149  1.0000
  H   H21       1.0  0.6704149540073556  0.625445970549265  0.47536878040051533  1.0000
  H   H22       1.0  0.3295186317182228  0.3746173517434101  0.5245939080858053  1.0000
  H   H23       1.0  0.8283238471431671  0.4548788677231883  0.47658186091669563  1.0000
  H   H24       1.0  0.17160913803570563  0.545168778319386  0.5234225685935244  1.0000
  H   H25       1.0  0.08742555073919077  0.6886913029519732  0.33222610810435793  1.0000
  H   H26       1.0  0.9125450787667758  0.3113308576331093  0.6677812055071116  1.0000
  H   H27       1.0  0.9519349266262436  0.6150961944906825  0.43868781327800127  1.0000
  H   H28       1.0  0.048099103620572174  0.38482147167394487  0.5613122504561403  1.0000
  H   H29       1.0  0.1260082509876738  0.7723196810473922  0.1782653480236291  1.0000
  H   H30       1.0  0.8739995882183178  0.22768176794912873  0.8217344019368725  1.0000
  H   H31       1.0  0.9812592485599296  0.9318883993220549  0.08346305022511308  1.0000
  H   H32       1.0  0.018739557551093414  0.06811857043427948  0.9165471833163895  1.0000
  H   H33       1.0  0.09518910399217621  0.7717408486090559  0.048376645583800816  1.0000
  H   H34       1.0  0.9048058230186767  0.22827002326997814  0.951615335020705  1.0000
  H   H35       1.0  0.8387730230866948  0.9198624947340331  0.9487693395911663  1.0000
  H   H36       1.0  0.1612082552725838  0.0801346449154181  0.05124061476333  1.0000
  H   H37       1.0  0.6678990066939221  0.8699490872568064  0.9219108490640836  1.0000
  H   H38       1.0  0.332096241618963  0.1300577637692086  0.07810652409463612  1.0000
  H   H39       1.0  0.44877033413452955  0.6021834822197788  0.07986506423017661  1.0000
  H   H40       1.0  0.5512270452563399  0.3978232174176667  0.9201120215573725  1.0000
  H   H41       1.0  0.5891188509962079  0.6603830120475391  0.9736404935631953  1.0000
  H   H42       1.0  0.4108721181783107  0.3396247845466576  0.026342091237161497  1.0000
  H   H43       1.0  0.42768078495408446  0.7983356115158314  0.01059033337561021  1.0000
  H   H44       1.0  0.5723209362620166  0.2016653316511919  0.9893888376278784  1.0000
  C   C1        1.0  0.621502284676147  0.604141946410138  0.24156428901311952  1.0000
  C   C2        1.0  0.3785109708301846  0.39585749693164723  0.7584219709659622  1.0000
  C   C3        1.0  0.7263276360716729  0.6096999672152846  0.31550341080406247  1.0000
  C   C4        1.0  0.2736587646720421  0.3903221853940124  0.6844935472905008  1.0000
  C   C5        1.0  0.8545755749600944  0.6815408539521142  0.27488537918505784  1.0000
  C   C6        1.0  0.14540523418323653  0.318468789989744  0.7251202150863495  1.0000
  C   C7        1.0  0.884717301898419  0.7404619996892238  0.16078281397979316  1.0000
  C   C8        1.0  0.11526395503175017  0.2595499445456397  0.8392205592768465  1.0000
  C   C9        1.0  0.7736956904095107  0.7409007907248578  0.08743024926086927  1.0000
  C   C10       1.0  0.22629681703175203  0.2591177517749871  0.9125718164307559  1.0000
  C   C11       1.0  0.6410998665892433  0.6742200816069329  0.12639476388777374  1.0000
  C   C12       1.0  0.35890016008786313  0.32578629081554306  0.8735935710183611  1.0000
  C   C13       1.0  0.49291007114044294  0.5175026832925339  0.28683368418141  1.0000
  C   C14       1.0  0.5070623137239493  0.4825062789118703  0.7131599025119402  1.0000
  C   C15       1.0  0.7068085806831018  0.5388227505588361  0.4385009535748807  1.0000
  C   C16       1.0  0.293142298364188  0.4612182408154267  0.561487307557684  1.0000
  C   C17       1.0  0.9527986126398174  0.6999510969922226  0.35521340896301024  1.0000
  C   C18       1.0  0.047190447216337396  0.3000263920493964  0.6448114922363929  1.0000
  C   C19       1.0  0.02956248918066955  0.806834232896051  0.1152701127125582  1.0000
  C   C20       1.0  0.9704331497010015  0.19316732345568244  0.8847336154744669  1.0000
  C   C21       1.0  0.791932926068689  0.8228080111513378  0.9649687463324313  1.0000
  C   C22       1.0  0.20805908943845003  0.17719352322449566  0.0350383098376668  1.0000
  C   C23       1.0  0.521238100569114  0.6833822893609421  0.044453500509888506  1.0000
  C   C24       1.0  0.47876620235683714  0.31661842334551693  0.9555331079780489  1.0000
  O   O1        1.0  0.4600161889957448  0.23076334454365371  0.3673965605042541  1.0000
  O   O2        1.0  0.5398396090146986  0.7692588725837622  0.6325964562852493  1.0000
  O   O3        1.0  0.29528972982624396  0.9590886986258627  0.42703326445739254  1.0000
  O   O4        1.0  0.704945471820885  0.04049178007673499  0.572894996944662  1.0000
  O   O5        1.0  0.12673876209015583  0.3380568230645268  0.3505488789205204  1.0000
  O   O6        1.0  0.8732282825863817  0.662104723152339  0.6493810178389907  1.0000
  O   O7        1.0  0.6242943856208071  0.3111574948065581  0.19187750936544032  1.0000
  O   O8        1.0  0.3758500862806783  0.6887239664706896  0.8082341089737783  1.0000
  O   O9        1.0  0.7539384371181868  0.2500184388973636  0.3813324126547357  1.0000
  O   O10       1.0  0.24580609532946332  0.749932973792248  0.6189098851510906  1.0000
  O   O11       1.0  0.6756641339331464  0.8973134142184588  0.40686105819369817  1.0000
  O   O12       1.0  0.32435138673681496  0.10280324590762997  0.5931643999223086  1.0000
  O   O13       1.0  0.8572082261011076  0.0036353443191785924  0.24279737569563056  1.0000
  O   O14       1.0  0.14297344918749375  0.9962644293655174  0.7572324268131895  1.0000
  O   O15       1.0  0.9719503108613166  0.9112948183865868  0.435946329909001  1.0000
  O   O16       1.0  0.028102080779277085  0.0887348586666903  0.564065119839313  1.0000
  O   O17       1.0  0.8545374040823714  0.5996289800799914  0.8786833203534671  1.0000
  O   O18       1.0  0.14545694176555898  0.40045365313486764  0.12127645112286702  1.0000
  O   O19       1.0  0.11468657755021633  0.6328149088106869  0.9422153640810438  1.0000
  O   O20       1.0  0.8852830664425609  0.3672057448675331  0.057762915145211514  1.0000
  O   O21       1.0  0.941140087531842  0.8356826630630322  0.7716704339252233  1.0000
  O   O22       1.0  0.05876859907442619  0.16447317626894178  0.22834688333936276  1.0000
