data_image0
_chemical_formula_structural       Mg6H21C42S3N3O24
_chemical_formula_sum              "Mg6 H21 C42 S3 N3 O24"
_cell_length_a       6.835022974076757
_cell_length_b       25.576120674185002
_cell_length_c       25.57608043820667
_cell_angle_alpha    119.21645048718253
_cell_angle_beta     95.11514141160181
_cell_angle_gamma    95.10428858546616

_space_group_name_H-M_alt    "P 1"
_space_group_IT_number       1

loop_
  _space_group_symop_operation_xyz
  'x, y, z'

loop_
  _atom_site_type_symbol
  _atom_site_label
  _atom_site_symmetry_multiplicity
  _atom_site_fract_x
  _atom_site_fract_y
  _atom_site_fract_z
  _atom_site_occupancy
  Mg  Mg1       1.0  0.6012509646918146  0.704548353255241  0.3772062130216227  1.0000
  Mg  Mg2       1.0  0.01530574695483011  0.2944465529604301  0.6231592461074983  1.0000
  Mg  Mg3       1.0  0.22411360539470598  0.6227584591373373  0.32733260158985905  1.0000
  Mg  Mg4       1.0  0.3922434643879242  0.376807996310106  0.671260173749296  1.0000
  Mg  Mg5       1.0  0.8965850099936576  0.6725875282328319  0.29537963671501916  1.0000
  Mg  Mg6       1.0  0.7209293396623266  0.3287177506779956  0.7055382093759449  1.0000
  H   H1        1.0  0.6504873446707293  0.46995860155853103  0.48239506412583927  1.0000
  H   H2        1.0  0.936422312378106  0.5362005852797083  0.4126039862642941  1.0000
  H   H3        1.0  0.2776573877823978  0.601849633947289  0.4536724307912294  1.0000
  H   H4        1.0  0.4095765864960441  0.540570435579788  0.49475076981023863  1.0000
  H   H5        1.0  0.7118643910355898  0.476244214888645  0.6012290089280868  1.0000
  H   H6        1.0  0.3489105341611562  0.39851634599193636  0.5492903047633179  1.0000
  H   H7        1.0  0.24467579319610164  0.4755037021733769  0.5231826777998307  1.0000
  H   H8        1.0  0.16788159180799778  0.5176701964574522  0.9875467898411757  1.0000
  H   H9        1.0  0.5234795138508801  0.5875104255152621  0.12357880078270256  1.0000
  H   H10       1.0  0.8237766742927377  0.5462639162768994  0.1481808981775359  1.0000
  H   H11       1.0  0.9145020870316785  0.5052294678962426  0.045814309757062695  1.0000
  H   H12       1.0  0.11077886308618187  0.39879841027307344  0.8749845965933432  1.0000
  H   H13       1.0  0.7994708271910441  0.45086565419006075  0.849257218761146  1.0000
  H   H14       1.0  0.7213775471293573  0.47702618799790036  0.9523618170089421  1.0000
  H   H15       1.0  0.17995305269385406  0.012393256378715004  0.530051585373954  1.0000
  H   H16       1.0  0.39976259041205975  0.8763873132771497  0.4638636232350067  1.0000
  H   H17       1.0  0.6754274166539459  0.851743354543011  0.398034262200092  1.0000
  H   H18       1.0  0.8685153931754996  0.954124528109297  0.4593615515635038  1.0000
  H   H19       1.0  0.23548654328950397  0.12500357609494023  0.5238310309733053  1.0000
  H   H20       1.0  0.9500933322838634  0.1506931685404069  0.601541944741605  1.0000
  H   H21       1.0  0.7686237557507951  0.047583139759709105  0.5246497904150047  1.0000
  C   C1        1.0  0.681529656420814  0.5329669769084404  0.45510071042922834  1.0000
  C   C2        1.0  0.7923241009726925  0.550623590713343  0.421989272874896  1.0000
  C   C3        1.0  0.722586218765656  0.5875514978100328  0.40014263175272907  1.0000
  C   C4        1.0  0.5320591124062446  0.6065029085085598  0.4113234753572215  1.0000
  C   C5        1.0  0.4217365591792088  0.5871460561643077  0.4445321485043436  1.0000
  C   C6        1.0  0.4957953310252421  0.5520574910043905  0.4668634696238101  1.0000
  C   C7        1.0  0.8518941023932171  0.6047704404290427  0.3660572909123944  1.0000
  C   C8        1.0  0.9710889087949965  0.479876223154406  0.5602374883642725  1.0000
  C   C9        1.0  0.8491725660537522  0.4582045494751839  0.5881655363514469  1.0000
  C   C10       1.0  0.9032287101298735  0.41420697485989433  0.6022610958569885  1.0000
  C   C11       1.0  0.09015691809824493  0.3930952334381034  0.5890977924216048  1.0000
  C   C12       1.0  0.2081709316621883  0.4153543699581732  0.5594205107625214  1.0000
  C   C13       1.0  0.1506610206881831  0.45787204186387953  0.5450333358517412  1.0000
  C   C14       1.0  0.7656862980335006  0.39390307683493125  0.6323555196573667  1.0000
  C   C15       1.0  0.22609216578000976  0.5449505061476999  0.07786468314534291  1.0000
  C   C16       1.0  0.3700230839892953  0.5780943859393588  0.12863419819088043  1.0000
  C   C17       1.0  0.322213435140057  0.599882766570424  0.18741080246149264  1.0000
  C   C18       1.0  0.1205224460164588  0.5886620159332667  0.19517135930953347  1.0000
  C   C19       1.0  0.9769468943040355  0.55545557886812  0.14260720252727316  1.0000
  C   C20       1.0  0.02861917704258596  0.5331309158497818  0.08518498337424774  1.0000
  C   C21       1.0  0.4856756782338253  0.6339465480104708  0.23870034336908932  1.0000
  C   C22       1.0  0.4107978230428415  0.43987742641200367  0.9196464820938105  1.0000
  C   C23       1.0  0.2610912071894589  0.41188919236047644  0.8700172223073609  1.0000
  C   C24       1.0  0.3009632330806157  0.397745862849611  0.8119119908730001  1.0000
  C   C25       1.0  0.5010269612107194  0.41092613913680515  0.8039853229239642  1.0000
  C   C26       1.0  0.6486448626503147  0.44068040316030016  0.8559516717183585  1.0000
  C   C27       1.0  0.605516187837388  0.4551215548398346  0.9128687553470771  1.0000
  C   C28       1.0  0.1333136258496523  0.3676260977829529  0.7615093357805522  1.0000
  C   C29       1.0  0.1480465073711344  0.9220798766588417  0.4670333380930458  1.0000
  C   C30       1.0  0.24122850794193368  0.871317429407171  0.449393235030435  1.0000
  C   C31       1.0  0.1346838863880536  0.812534274854656  0.4124186971129333  1.0000
  C   C32       1.0  0.9252262217931815  0.8047630353809583  0.3934202871468458  1.0000
  C   C33       1.0  0.8341874429624242  0.8573240813132588  0.41277540160517406  1.0000
  C   C34       1.0  0.9432543491392877  0.91474825012061  0.44789831870687646  1.0000
  C   C35       1.0  0.24688683498159494  0.7612439740983065  0.3952019079096872  1.0000
  C   C36       1.0  0.49087287892325543  0.08032583892568113  0.5202228588044875  1.0000
  C   C37       1.0  0.3907874602569238  0.1299548110045521  0.5418785067242383  1.0000
  C   C38       1.0  0.48887016139919126  0.18805557429227798  0.5858164771863983  1.0000
  C   C39       1.0  0.6969006039940382  0.1959855507469541  0.6069223244113999  1.0000
  C   C40       1.0  0.7925122653796066  0.14401228932229063  0.5847191882644937  1.0000
  C   C41       1.0  0.6924124198237679  0.08710731869403791  0.5422306098999813  1.0000
  C   C42       1.0  0.3716620643810487  0.23845893889063768  0.6061022419950676  1.0000
  S   S1        1.0  0.9051532775341258  0.5385949866706242  0.5474341319610189  1.0000
  S   S2        1.0  0.3575515575727977  0.4526346130177928  0.9911467709631196  1.0000
  S   S3        1.0  0.3662544668557929  0.008805490687244304  0.46147173399720753  1.0000
  N   N1        1.0  0.7615461790063875  0.4965806197144787  0.47808309876470656  1.0000
  N   N2        1.0  0.28317505059872883  0.5219712397608733  0.018498377382385946  1.0000
  N   N3        1.0  0.2644283805796448  0.9814584950408899  0.5034495590179587  1.0000
  O   O1        1.0  0.01379202828152164  0.5837152427477436  0.35340102924575945  1.0000
  O   O2        1.0  0.797662300950968  0.6428105899960103  0.35006825189586993  1.0000
  O   O3        1.0  0.4538065776848512  0.6417715419891438  0.39238273736116014  1.0000
  O   O4        1.0  0.6027595737868552  0.41453668983535147  0.6439527532930074  1.0000
  O   O5        1.0  0.8136254178656374  0.3538821612038205  0.6463462186011385  1.0000
  O   O6        1.0  0.16160069447722952  0.35441572556265305  0.604281643111257  1.0000
  O   O7        1.0  0.787919386856636  0.5738209176541318  0.5932695764581767  1.0000
  O   O8        1.0  0.07913218973170906  0.5680571923763156  0.5387357603892086  1.0000
  O   O9        1.0  0.6602185741804973  0.6465990847307597  0.23029410880152318  1.0000
  O   O10       1.0  0.44752261301017887  0.6499173834481767  0.29273083385784565  1.0000
  O   O11       1.0  0.06126943971955969  0.6075644600052286  0.24937165131114364  1.0000
  O   O12       1.0  0.9588295819474127  0.35602338965705377  0.7705549619794141  1.0000
  O   O13       1.0  0.1672431193715909  0.35362887712047814  0.7075037304781732  1.0000
  O   O14       1.0  0.5573513029045641  0.39572472933828345  0.7501221217150729  1.0000
  O   O15       1.0  0.19453539763783567  0.406776463708418  0.9805009494744468  1.0000
  O   O16       1.0  0.5401893645558503  0.4613262352335355  0.02932421329848718  1.0000
  O   O17       1.0  0.4298490673581838  0.7696601892265704  0.4162689813664713  1.0000
  O   O18       1.0  0.15474882433814233  0.7072095714942962  0.3571373441138093  1.0000
  O   O19       1.0  0.8118154328374274  0.7505558126319727  0.35814222166455073  1.0000
  O   O20       1.0  0.18808928501754713  0.22944124445916012  0.5854906042430346  1.0000
  O   O21       1.0  0.4597012212379354  0.2924644215050094  0.6460907676063173  1.0000
  O   O22       1.0  0.8071412745938036  0.24984430940484978  0.6455667374367523  1.0000
  O   O23       1.0  0.21397425394715702  0.0194198084786095  0.4261928848504867  1.0000
  O   O24       1.0  0.5108644438862839  0.9706610042525271  0.43205133329511375  1.0000
