data_image0
_chemical_formula_structural       Zr6H6C52O32F24
_chemical_formula_sum              "Zr6 H6 C52 O32 F24"
_cell_length_a       14.83507030058966
_cell_length_b       14.791923577234623
_cell_length_c       14.79139829730216
_cell_angle_alpha    60.2007591708793
_cell_angle_beta     60.1261272486657
_cell_angle_gamma    60.1212953514228

_space_group_name_H-M_alt    "P 1"
_space_group_IT_number       1

loop_
  _space_group_symop_operation_xyz
  'x, y, z'

loop_
  _atom_site_type_symbol
  _atom_site_label
  _atom_site_symmetry_multiplicity
  _atom_site_fract_x
  _atom_site_fract_y
  _atom_site_fract_z
  _atom_site_occupancy
  Zr  Zr1       1.0  0.8768056523385398  0.8820814059452861  0.6215850514787746  1.0000
  Zr  Zr2       1.0  0.11523603082267198  0.12103887273114107  0.383066736431033  1.0000
  Zr  Zr3       1.0  0.11537488546316162  0.8818186586350836  0.622314067136017  1.0000
  Zr  Zr4       1.0  0.8766375266841705  0.11992798705271936  0.3836288647165062  1.0000
  Zr  Zr5       1.0  0.11652478313440212  0.8816671447527185  0.3829817772773581  1.0000
  Zr  Zr6       1.0  0.8774984974944643  0.12103392774812265  0.622273826012723  1.0000
  H   H1        1.0  0.09244461245233265  0.7188616705727287  0.5947932802733505  1.0000
  H   H2        1.0  0.09213840908709163  0.09331417181744682  0.22023723497186853  1.0000
  H   H3        1.0  0.09014796297705638  0.09584566541505533  0.5970459769627607  1.0000
  H   H4        1.0  0.7151385628242863  0.09475216833759251  0.5963523272787156  1.0000
  H   H5        1.0  0.9920317654736764  0.5731953254829848  0.7380223857284136  1.0000
  H   H6        1.0  0.990814992935782  0.23717693300606177  0.07448999754660701  1.0000
  C   C1        1.0  0.9925535847761895  0.7038390557370278  0.4948793215448362  1.0000
  C   C2        1.0  0.3034051068590532  0.9968812438768141  0.20516162328902973  1.0000
  C   C3        1.0  0.9919181485914877  0.3096092754851016  0.49570240845476116  1.0000
  C   C4        1.0  0.700626305468113  0.996538846975838  0.8103992982062775  1.0000
  C   C5        1.0  0.990051457138961  0.7026510572211608  0.8097780324456421  1.0000
  C   C6        1.0  0.7004233025151193  0.9945106023457344  0.49681601955338556  1.0000
  C   C7        1.0  0.9896261345144524  0.30835172738937894  0.2040399314253917  1.0000
  C   C8        1.0  0.3025946083302742  0.9964591321023947  0.4979350980337642  1.0000
  C   C9        1.0  0.30358912697401064  0.7039833869409053  0.49792667305832333  1.0000
  C   C10       1.0  0.9919530145143585  0.9945891607889623  0.8108229347752955  1.0000
  C   C11       1.0  0.7003612929831746  0.30873649439406137  0.4978960822203076  1.0000
  C   C12       1.0  0.9922452078584317  0.9933440416957922  0.20538328479614865  1.0000
  C   C13       1.0  0.9912816267363382  0.41392115879782687  0.49025169110330313  1.0000
  C   C14       1.0  0.9917258712361418  0.6058441044142173  0.48902443469155105  1.0000
  C   C15       1.0  0.0867033722932008  0.4187979792066372  0.48243729393559676  1.0000
  C   C16       1.0  0.896720969436913  0.6018018916596829  0.49480733411109395  1.0000
  C   C17       1.0  0.08687947289048031  0.5130500376986263  0.4818202938941382  1.0000
  C   C18       1.0  0.8964769348200863  0.5073519289889391  0.49549308871727504  1.0000
  C   C19       1.0  0.40795534612392  0.9943158683048808  0.10803940019770425  1.0000
  C   C20       1.0  0.603536012051663  0.9936588761699456  0.9151143361387922  1.0000
  C   C21       1.0  0.4477249863685627  0.08398270554176435  0.0481943341120115  1.0000
  C   C22       1.0  0.5657305077209002  0.9026565364127209  0.9769454133525883  1.0000
  C   C23       1.0  0.5423333683442594  0.08372987528110795  0.9546376033146159  1.0000
  C   C24       1.0  0.4706663182531443  0.9032440598912715  0.06989411282453527  1.0000
  C   C25       1.0  0.991257217073887  0.9890928197058105  0.9151763233835127  1.0000
  C   C26       1.0  0.9914933124309755  0.9877229386465843  0.10722483827571243  1.0000
  C   C27       1.0  0.8965727875153888  0.9936415535976125  0.00874964609108991  1.0000
  C   C28       1.0  0.0865247685082978  0.9812451597765558  0.014253441192451612  1.0000
  C   C29       1.0  0.8967186929426705  0.9929333176937051  0.10326377546066855  1.0000
  C   C30       1.0  0.08645397876298262  0.9818846361301116  0.9199463648650478  1.0000
  C   C31       1.0  0.40792524168734473  0.6065716489529791  0.49550292859958495  1.0000
  C   C32       1.0  0.603111843653224  0.4132777054042196  0.4951321142267633  1.0000
  C   C33       1.0  0.47099621497523697  0.568809277139721  0.404175885668998  1.0000
  C   C34       1.0  0.5414760570263512  0.4523473934419614  0.5855160076321867  1.0000
  C   C35       1.0  0.5658610777322937  0.475619059103856  0.4037543376369329  1.0000
  C   C36       1.0  0.4470522475095537  0.5460791239203432  0.5856360656011289  1.0000
  C   C37       1.0  0.9879862427959486  0.6009668900010184  0.9104663400056336  1.0000
  C   C38       1.0  0.9913212262147798  0.5038512093681293  0.9081270865756891  1.0000
  C   C39       1.0  0.9837025050187264  0.5998505782728857  0.006240383937843449  1.0000
  C   C40       1.0  0.996522915055586  0.5002835651061949  0.8113846461355791  1.0000
  C   C41       1.0  0.0021310679689819133  0.40512903950143203  0.8112286434062738  1.0000
  C   C42       1.0  0.9875799990123256  0.4090932146556555  0.10238882559413313  1.0000
  C   C43       1.0  0.9835383300733725  0.5047015362481133  0.10140116591062323  1.0000
  C   C44       1.0  0.9910539504136225  0.4069315217354942  0.005120715591402903  1.0000
  C   C45       1.0  0.9958300346594272  0.3104145964201309  0.00149843528037505  1.0000
  C   C46       1.0  0.0016940633514154798  0.3103673311921114  0.9061884742894363  1.0000
  C   C47       1.0  0.4074449249843188  0.9923305243808046  0.49410902682135566  1.0000
  C   C48       1.0  0.6028719848681237  0.9912421737838175  0.4934435692260026  1.0000
  C   C49       1.0  0.4589683634445199  0.9103188606063384  0.5733378019615927  1.0000
  C   C50       1.0  0.5531041843850559  0.0714867338823525  0.4124449659297297  1.0000
  C   C51       1.0  0.5534079078225674  0.9098884812259985  0.5730914819674382  1.0000
  C   C52       1.0  0.45860998397076697  0.07197987187927885  0.4127479388096589  1.0000
  O   O1        1.0  0.9177509860263203  0.7381372500366723  0.5749454560640856  1.0000
  O   O2        1.0  0.26198243729829324  0.07476732149940804  0.24342166222231038  1.0000
  O   O3        1.0  0.06936680162225191  0.26894002276867474  0.4208027062850448  1.0000
  O   O4        1.0  0.7354521258444539  0.9232533543359693  0.7683508944013654  1.0000
  O   O5        1.0  0.06787033779524886  0.7392022133435605  0.7715703674893533  1.0000
  O   O6        1.0  0.7377627312579945  0.07273888664710178  0.42252526363722603  1.0000
  O   O7        1.0  0.9142413973090769  0.26768915096642604  0.2429898722365138  1.0000
  O   O8        1.0  0.2612241525140958  0.9223660861657095  0.5764212956460922  1.0000
  O   O9        1.0  0.26272437622058237  0.7400621617006707  0.42353926041662504  1.0000
  O   O10       1.0  0.9173426058344775  0.07433637055464017  0.7715584442581402  1.0000
  O   O11       1.0  0.7392004692424055  0.26851980091595357  0.5748324429146267  1.0000
  O   O12       1.0  0.07008052358322205  0.9192190823299313  0.24267845612245523  1.0000
  O   O13       1.0  0.06943888466904753  0.9196616366051558  0.7701936568862848  1.0000
  O   O14       1.0  0.7350983081078226  0.2665690346126512  0.4247220808088628  1.0000
  O   O15       1.0  0.9173004883272001  0.07326288254311919  0.23986910128921576  1.0000
  O   O16       1.0  0.2623697887035875  0.742334928053495  0.5756988903296046  1.0000
  O   O17       1.0  0.9146047635989024  0.7416113530410797  0.7691987812400143  1.0000
  O   O18       1.0  0.2614485278402868  0.07477638911199595  0.42365735086899997  1.0000
  O   O19       1.0  0.06744826686041702  0.2701945560365858  0.2405643854757713  1.0000
  O   O20       1.0  0.737616896447662  0.920423579610372  0.5752033449163535  1.0000
  O   O21       1.0  0.7391923901111143  0.07376190299020645  0.7698408326161753  1.0000
  O   O22       1.0  0.07031918704516499  0.7412115926915703  0.42071749485572246  1.0000
  O   O23       1.0  0.2625546768997537  0.9224975172467256  0.24117875530094318  1.0000
  O   O24       1.0  0.9172998689356933  0.2703513902949696  0.5754664587411114  1.0000
  O   O25       1.0  0.7950808683889006  0.06836784002759098  0.5699106915947069  1.0000
  O   O26       1.0  0.06273196212760726  0.06937468858447464  0.5705821492822237  1.0000
  O   O27       1.0  0.06312532213508601  0.06851755291722132  0.3003070835742889  1.0000
  O   O28       1.0  0.06338824113891667  0.7989319349329592  0.5699533436839985  1.0000
  O   O29       1.0  0.14421117138560643  0.9520602765811148  0.45331882216520103  1.0000
  O   O30       1.0  0.9474539640004379  0.9511274275885172  0.4527367476215432  1.0000
  O   O31       1.0  0.9468869472619446  0.14918950667434686  0.45327029209240505  1.0000
  O   O32       1.0  0.9470033576574154  0.9519981305322176  0.6505278119130794  1.0000
  F   F1        1.0  0.1789913159505901  0.3290733870951712  0.48246336247002836  1.0000
  F   F2        1.0  0.803976292072363  0.6909828561200727  0.49723290259042585  1.0000
  F   F3        1.0  0.17916592242843182  0.5103945720451009  0.48211073454060477  1.0000
  F   F4        1.0  0.8034479148029093  0.5083488752709189  0.4986156168923728  1.0000
  F   F5        1.0  0.39498587421728365  0.17591304642530767  0.07598836262147302  1.0000
  F   F6        1.0  0.6198644550794161  0.8101578291788698  0.9499139346712224  1.0000
  F   F7        1.0  0.5698537744055657  0.1755465401511671  0.9025379953421718  1.0000
  F   F8        1.0  0.44264906166483814  0.8118230956847016  0.12174288192375844  1.0000
  F   F9        1.0  0.8038393333214773  0.9960873475204863  0.009782317566312556  1.0000
  F   F10       1.0  0.17849024126876178  0.9822462725506043  0.011549428093360427  1.0000
  F   F11       1.0  0.8040838111648225  0.9948072020509361  0.19257085854375355  1.0000
  F   F12       1.0  0.1785696572163149  0.9825483882760081  0.8300754486946431  1.0000
  F   F13       1.0  0.4436527928995774  0.6214381594855639  0.3122832127491861  1.0000
  F   F14       1.0  0.5684132980036765  0.3995771260810202  0.6777590573547627  1.0000
  F   F15       1.0  0.6205383703616222  0.4490229998150215  0.31095591114030446  1.0000
  F   F16       1.0  0.3938326670529837  0.5734411506864276  0.6778609682974164  1.0000
  F   F17       1.0  0.4196267192666737  0.8284891866489019  0.6539344125181471  1.0000
  F   F18       1.0  0.5930121050573617  0.1527098158275209  0.3312087527045832  1.0000
  F   F19       1.0  0.5937593303947467  0.8280724597066824  0.6538200403301531  1.0000
  F   F20       1.0  0.4188009017402976  0.15331682690866444  0.3314668420647279  1.0000
  F   F21       1.0  0.9761248410365939  0.511502037644526  0.19286086923014534  1.0000
  F   F22       1.0  0.976344658004848  0.6911964619688008  0.013211551215356176  1.0000
  F   F23       1.0  0.006517663215731981  0.3998627899036082  0.7201583439470695  1.0000
  F   F24       1.0  0.005600999509447246  0.21952165262001  0.9009074385512078  1.0000
