data_image0
_chemical_formula_structural       Cu4H32C48N8O16
_chemical_formula_sum              "Cu4 H32 C48 N8 O16"
_cell_length_a       9.3209426833133
_cell_length_b       11.815744861
_cell_length_c       12.068
_cell_angle_alpha    90.0
_cell_angle_beta     113.98690699331999
_cell_angle_gamma    90.0

_space_group_name_H-M_alt    "P 1"
_space_group_IT_number       1

loop_
  _space_group_symop_operation_xyz
  'x, y, z'

loop_
  _atom_site_type_symbol
  _atom_site_label
  _atom_site_symmetry_multiplicity
  _atom_site_fract_x
  _atom_site_fract_y
  _atom_site_fract_z
  _atom_site_occupancy
  Cu  Cu1       1.0  0.6530870078811475  0.3581568534005939  0.015474172295689925  1.0000
  Cu  Cu2       1.0  0.3469128782152282  0.8581617256706622  0.4845194114293463  1.0000
  Cu  Cu3       1.0  0.3469152267436613  0.6418393498857355  0.984523463393046  1.0000
  Cu  Cu4       1.0  0.6530858336169274  0.1418429408992949  0.5154787754155947  1.0000
  H   H1        1.0  0.251388832529102  0.9199809345815593  0.23756863988750612  1.0000
  H   H2        1.0  0.7486157506241469  0.4199701380129496  0.2624289045763391  1.0000
  H   H3        1.0  0.748618099152587  0.08002880995857709  0.7624312992646054  1.0000
  H   H4        1.0  0.251387658264882  0.5800209873032073  0.7375732430074109  1.0000
  H   H5        1.0  0.0772090466625883  0.06310816700699459  0.08892793299817471  1.0000
  H   H6        1.0  0.9227955364906535  0.5630978053665316  0.41106712555251324  1.0000
  H   H7        1.0  0.9228025820759669  0.9369007312047799  0.9110718237041484  1.0000
  H   H8        1.0  0.0772078723983753  0.4368950126063496  0.5889333647557962  1.0000
  H   H9        1.0  0.9477674393716242  0.18382336666469  0.37347051540587023  1.0000
  H   H10       1.0  0.0522477121595912  0.6838087733824166  0.1265336619665618  1.0000
  H   H11       1.0  0.0522394923100578  0.8161838388903602  0.6265294237462413  1.0000
  H   H12       1.0  0.9477662651074042  0.31617642763520587  0.8734718039749012  1.0000
  H   H13       1.0  0.1371470151923262  0.0447631534213073  0.5121238502111467  1.0000
  H   H14       1.0  0.8628716591315495  0.5447494064674032  0.9878756328164897  1.0000
  H   H15       1.0  0.8628587422251428  0.9552406668202875  0.48787323432139124  1.0000
  H   H16       1.0  0.137142318135453  0.4552374872069436  0.01212900448724949  1.0000
  H   H17       1.0  0.5827110047088411  0.2730001398935896  0.2894922059492728  1.0000
  H   H18       1.0  0.4172900556517547  0.772991470909858  0.210510032859375  1.0000
  H   H19       1.0  0.4172794872737811  0.727001141362912  0.7105075431393787  1.0000
  H   H20       1.0  0.5827157017657144  0.226998808077937  0.7894887089486035  1.0000
  H   H21       1.0  0.2787409689819569  0.5458454016968446  0.29575751497420555  1.0000
  H   H22       1.0  0.7212518715290983  0.0458413757551455  0.2042421428895551  1.0000
  H   H23       1.0  0.7212553943217586  0.4541584185447504  0.7042490494728285  1.0000
  H   H24       1.0  0.2787397947177368  0.9541590591730011  0.7957521744414748  1.0000
  H   H25       1.0  0.2638019795880098  0.4534356541231688  0.4801901332864134  1.0000
  H   H26       1.0  0.7361920351872655  0.9534337557663334  0.019806578732882888  1.0000
  H   H27       1.0  0.7361920351872655  0.5465673197900642  0.5198107219214805  1.0000
  H   H28       1.0  0.2638043281164428  0.046565832833451296  0.9801875561483583  1.0000
  H   H29       1.0  0.4241841608814241  0.27793423424700586  0.56383065782628  1.0000
  H   H30       1.0  0.5758145509507315  0.7779272579199983  0.9361725008449753  1.0000
  H   H31       1.0  0.5758180737433847  0.7220729713080445  0.43617526423965103  1.0000
  H   H32       1.0  0.4241747667676705  0.22207402333651058  0.06382273634866213  1.0000
  C   C1        1.0  0.1858660633738651  0.9824788988391829  0.264180308440146  1.0000
  C   C2        1.0  0.814143216836257  0.4824697949273045  0.23581456766075357  1.0000
  C   C3        1.0  0.814143216836257  0.0175291530442294  0.7358170535739108  1.0000
  C   C4        1.0  0.1858601920527718  0.517524715702308  0.7641850940098395  1.0000
  C   C5        1.0  0.0876294673418769  0.0599547475282947  0.18209873990135614  1.0000
  C   C6        1.0  0.9123751158113649  0.5599452322162007  0.31789549001160833  1.0000
  C   C7        1.0  0.9123809871324653  0.9400549970118419  0.8178989908191099  1.0000
  C   C8        1.0  0.08762359602078361  0.44005266372685975  0.6821076686596541  1.0000
  C   C9        1.0  0.998402886758548  0.13360393429029926  0.21917063156876546  1.0000
  C   C10       1.0  0.0016005221304809002  0.6335952653065674  0.28082737282638703  1.0000
  C   C11       1.0  0.0016063934515742001  0.866403271264744  0.7808317022716054  1.0000
  C   C12       1.0  0.9983970154374545  0.3664034769648552  0.7191712739498614  1.0000
  C   C13       1.0  0.0149155041095668  0.1288323349824907  0.3396319333136049  1.0000
  C   C14       1.0  0.9850926018363354  0.6288219733420348  0.16036588863175893  1.0000
  C   C15       1.0  0.9850867305152419  0.8711723315874663  0.6603648737374143  1.0000
  C   C16       1.0  0.014914329845346701  0.3711708446308535  0.8396373650712263  1.0000
  C   C17       1.0  0.119880634116349  0.05097435727374489  0.4174904255923336  1.0000
  C   C18       1.0  0.8801333431506535  0.5509614566481957  0.08250675397193424  1.0000
  C   C19       1.0  0.8801239490369  0.9490294629678502  0.5825096047846756  1.0000
  C   C20       1.0  0.11987711132368868  0.4490305149963233  0.9174942912994126  1.0000
  C   C21       1.0  0.8845145229516902  0.21217621313700616  0.12668485036481056  1.0000
  C   C22       1.0  0.1154771432951449  0.7121734684518086  0.37331112424165275  1.0000
  C   C23       1.0  0.1154865374088985  0.7878259144478645  0.8733074447911947  1.0000
  C   C24       1.0  0.8845121744232501  0.2878261201479758  0.626692399329187  1.0000
  C   C25       1.0  0.5121565133752455  0.31664867886148323  0.3295156811469441  1.0000
  C   C26       1.0  0.48784454698534313  0.8166425488628377  0.1704857290239872  1.0000
  C   C27       1.0  0.4878328043431566  0.6833534487233875  0.6704853565107386  1.0000
  C   C28       1.0  0.5121623846963389  0.1833536544234988  0.8295150387658482  1.0000
  C   C29       1.0  0.4295481998337536  0.4156953334539324  0.2783331056031386  1.0000
  C   C30       1.0  0.5704528605268351  0.9156892034552866  0.2216674759300687  1.0000
  C   C31       1.0  0.5704399436204284  0.5843042551458524  0.7216650774349703  1.0000
  C   C32       1.0  0.42955407115484695  0.0843053071743185  0.7783341204974833  1.0000
  C   C33       1.0  0.34005047811946554  0.4671791804019065  0.33324387577488324  1.0000
  C   C34       1.0  0.6599411881273696  0.9671738967316228  0.16675375610702056  1.0000
  C   C35       1.0  0.6599353168062763  0.5328212545262403  0.6667552271258402  1.0000
  C   C36       1.0  0.3400610464974392  0.03282230655471349  0.8332430509439989  1.0000
  C   C37       1.0  0.3334381963023532  0.4169140462959433  0.435306735375157  1.0000
  C   C38       1.0  0.6665558184729221  0.9169096089540218  0.06469494847045353  1.0000
  C   C39       1.0  0.6665511214160489  0.5830872349605656  0.564692645007085  1.0000
  C   C40       1.0  0.3334417190950134  0.0830891333174009  0.9353020410303544  1.0000
  C   C41       1.0  0.4214633906860286  0.3198926554749661  0.4827194873753342  1.0000
  C   C42       1.0  0.57853649541034  0.8198907571181377  0.017279896813747076  1.0000
  C   C43       1.0  0.5785282755608065  0.6801060867964493  0.5172789731442933  1.0000
  C   C44       1.0  0.4214633906860286  0.18010544616819857  0.9827186587376104  1.0000
  C   C45       1.0  0.4344789352892775  0.4631252675455002  0.1641985063484981  1.0000
  C   C46       1.0  0.5655115566933375  0.9631199838752166  0.3358062145664746  1.0000
  C   C47       1.0  0.5655092081649045  0.5368802453528189  0.8358096203422463  1.0000
  C   C48       1.0  0.4344906779314712  0.0368855290231025  0.6641905924845446  1.0000
  N   N1        1.0  0.2029610018738737  0.9786204878345186  0.3805365011935322  1.0000
  N   N2        1.0  0.7970471040720355  0.4786105375942782  0.11946214938955531  1.0000
  N   N3        1.0  0.7970447555435953  0.0213841787354383  0.6194630692521699  1.0000
  N   N4        1.0  0.2029586533454335  0.5213831267069721  0.8805432215201776  1.0000
  N   N5        1.0  0.5096553305888065  0.27120423110835645  0.4307058088117088  1.0000
  N   N6        1.0  0.4903457297717893  0.7711989474380728  0.06929808727237942  1.0000
  N   N7        1.0  0.49033868418647597  0.7287995891332386  0.5692958750339017  1.0000
  N   N8        1.0  0.5096588533814597  0.22879725584826355  0.9307036003800704  1.0000
  O   O1        1.0  0.9027320580450464  0.23426961504022603  0.03171884961730601  1.0000
  O   O2        1.0  0.0972584339375686  0.7342626387132185  0.4682784135581883  1.0000
  O   O3        1.0  0.0972748736366356  0.7657325125446448  0.9682810895348055  1.0000
  O   O4        1.0  0.9027308837808334  0.265732718244756  0.5317193095486132  1.0000
  O   O5        1.0  0.771781635136314  0.2495788487895965  0.1530860724922221  1.0000
  O   O6        1.0  0.2282100311105211  0.7495837210596646  0.3469123880274055  1.0000
  O   O7        1.0  0.2282182509600545  0.7504156618400089  0.8469083398705379  1.0000
  O   O8        1.0  0.7717828094005341  0.2504209455102924  0.6530930703003932  1.0000
  O   O9        1.0  0.4754196572842488  0.3988830205327503  0.0996586924124614  1.0000
  O   O10       1.0  0.5245755317552465  0.8988802758475529  0.40033755967552054  1.0000
  O   O11       1.0  0.5245814030763398  0.6011148754103104  0.9003443750339031  1.0000
  O   O12       1.0  0.4754149602273685  0.101121005408956  0.59965887486225  1.0000
  O   O13       1.0  0.3909607033336329  0.5669917621624235  0.14175400142260497  1.0000
  O   O14       1.0  0.6090297886489893  0.06699027520581069  0.3582482335792109  1.0000
  O   O15       1.0  0.6090274401205491  0.4330086727657232  0.8582458388909444  1.0000
  O   O16       1.0  0.3909677489189463  0.9330093133939739  0.6417495845593209  1.0000
