data_image0
_chemical_formula_structural       Mn8H48C28O24
_chemical_formula_sum              "Mn8 H48 C28 O24"
_cell_length_a       8.031147988038782
_cell_length_b       9.35127574
_cell_length_c       13.462
_cell_angle_alpha    90.0
_cell_angle_beta     94.9294301024156
_cell_angle_gamma    90.0

_space_group_name_H-M_alt    "P 1"
_space_group_IT_number       1

loop_
  _space_group_symop_operation_xyz
  'x, y, z'

loop_
  _atom_site_type_symbol
  _atom_site_label
  _atom_site_symmetry_multiplicity
  _atom_site_fract_x
  _atom_site_fract_y
  _atom_site_fract_z
  _atom_site_occupancy
  Mn  Mn1       1.0  0.051144524154359786  0.6620283875834049  0.9761487998058272  1.0000
  Mn  Mn2       1.0  0.4488590313292704  0.1620292291798009  0.023853833804373902  1.0000
  Mn  Mn3       1.0  0.9488563379401285  0.3379731373422246  0.023851690086949904  1.0000
  Mn  Mn4       1.0  0.5511430805397737  0.8379722957458213  0.9761467201559171  1.0000
  Mn  Mn5       1.0  0.1174863069094414  0.0158662843579052  0.9030878030987994  1.0000
  Mn  Mn6       1.0  0.38250850015230486  0.5158697202527378  0.0969128963754358  1.0000
  Mn  Mn7       1.0  0.8825120556359349  0.9841309630764883  0.0969118158272693  1.0000
  Mn  Mn8       1.0  0.6174961112658579  0.4841296659272701  0.9030900142149182  1.0000
  H   H1        1.0  0.09243582570938  0.595618197437517  0.29851883211536295  1.0000
  H   H2        1.0  0.4075652302251385  0.0956115534242628  0.7014829305281369  1.0000
  H   H3        1.0  0.9075637866105521  0.4043811887424908  0.7014815937099  1.0000
  H   H4        1.0  0.5924331323202381  0.9043846246373235  0.2985189168929594  1.0000
  H   H5        1.0  0.3052024452176098  0.6293836438620488  0.2952638566824675  1.0000
  H   H6        1.0  0.1947973609423528  0.129379138594409  0.7047363562301641  1.0000
  H   H7        1.0  0.6947959173277667  0.3706168116907662  0.7047357622436009  1.0000
  H   H8        1.0  0.8052010016030235  0.8706191782127917  0.2952654911909249  1.0000
  H   H9        1.0  0.08301502510640547  0.6149289316112103  0.4784429629264651  1.0000
  H   H10       1.0  0.416987280602676  0.1149244263435634  0.521556635289528  1.0000
  H   H11       1.0  0.9169808378898592  0.38507580143284065  0.521557270696242  1.0000
  H   H12       1.0  0.5830123317172562  0.8850749598364445  0.4784415620407145  1.0000
  H   H13       1.0  0.3023967013394397  0.6244228234039895  0.48690133546089254  1.0000
  H   H14       1.0  0.19760310482053  0.1244193875091497  0.5130981346200656  1.0000
  H   H15       1.0  0.6975966621077132  0.3755787015216399  0.5130980271951061  1.0000
  H   H16       1.0  0.8023952577248465  0.8755789292980439  0.48690074147432943  1.0000
  H   H17       1.0  0.0915259898326255  0.597087515676229  0.6569033304664559  1.0000
  H   H18       1.0  0.4084750661018929  0.0970862185270107  0.34309843217703684  1.0000
  H   H19       1.0  0.9084748722618627  0.4029140092493932  0.34309567376297423  1.0000
  H   H20       1.0  0.5915245462180392  0.9029099595345684  0.6569064506382676  1.0000
  H   H21       1.0  0.3077307391443611  0.6183990463743925  0.6775729334027574  1.0000
  H   H22       1.0  0.1922728163392762  0.11839881859798851  0.3224274717124231  1.0000
  H   H23       1.0  0.6922701229501271  0.38160247855122986  0.3224260708266726  1.0000
  H   H24       1.0  0.8077292955297679  0.8815984288364049  0.6775738250795486  1.0000
  H   H25       1.0  0.2924884886596288  0.8525072109572919  0.5862180999075122  1.0000
  H   H26       1.0  0.2075138170494455  0.35250484443526636  0.41378298397182794  1.0000
  H   H27       1.0  0.7075111236603033  0.1474921752227161  0.4137793545910498  1.0000
  H   H28       1.0  0.7924857952704869  0.6474945417447415  0.5862166990217618  1.0000
  H   H29       1.0  0.07271938231424  0.8454685991325519  0.5751837826512656  1.0000
  H   H30       1.0  0.4272816736202785  0.3454662326105264  0.42481797999222703  1.0000
  H   H31       1.0  0.9272827295548038  0.15453506453869184  0.424817514140706  1.0000
  H   H32       1.0  0.5727141893759864  0.6545342229422888  0.5751829964621535  1.0000
  H   H33       1.0  0.0626974401498401  0.8432795929938026  0.3809209537685377  1.0000
  H   H34       1.0  0.4373036157846784  0.3432750877261554  0.6190793232116079  1.0000
  H   H35       1.0  0.9372996726209806  0.15672300130463412  0.6190756297633159  1.0000
  H   H36       1.0  0.562694746760698  0.6567210903354237  0.3809210385461341  1.0000
  H   H37       1.0  0.2818541569627939  0.8567440660240849  0.3897956651942495  1.0000
  H   H38       1.0  0.2181468989717246  0.35673956075644503  0.6102053546175769  1.0000
  H   H39       1.0  0.7181467051316943  0.1432574589015374  0.6102040818668542  1.0000
  H   H40       1.0  0.7818502137990961  0.643259825423563  0.3897949430726513  1.0000
  H   H41       1.0  0.7867305834401959  0.59067983380843  0.06063270658264489  1.0000
  H   H42       1.0  0.7132700848142548  0.09068281415044771  0.9393687390544372  1.0000
  H   H43       1.0  0.213271528428848  0.4093195523715778  0.9393708187043475  1.0000
  H   H44       1.0  0.2867270279565659  0.9093176414023674  0.06063155863579081  1.0000
  H   H45       1.0  0.8503103644265622  0.860450512177927  0.9135577391437338  1.0000
  H   H46       1.0  0.6496903038278956  0.3604460069102799  0.0864429636616748  1.0000
  H   H47       1.0  0.1496892478933702  0.1395520821205096  0.08644268668152931  1.0000
  H   H48       1.0  0.3503105582665924  0.6395523098969137  0.9135575262311023  1.0000
  C   C1        1.0  0.1840580481828198  0.6836179552117443  0.296139471356355  1.0000
  C   C2        1.0  0.31594175797715  0.1836123805712973  0.703859998724603  1.0000
  C   C3        1.0  0.8159403143625565  0.3163825003410707  0.7038586619063667  1.0000
  C   C4        1.0  0.6840578543427822  0.8163870056087106  0.296138941437313  1.0000
  C   C5        1.0  0.18862097508669953  0.6911260216993683  0.48274019214330377  1.0000
  C   C6        1.0  0.3113825803969306  0.19112258580453562  0.5172594701402035  1.0000
  C   C7        1.0  0.8113773874586769  0.3088755032262611  0.5172571982877372  1.0000
  C   C8        1.0  0.6886182816975577  0.8088757310026651  0.4827402769209002  1.0000
  C   C9        1.0  0.16716609528419465  0.7476584152142678  0.7681460648753671  1.0000
  C   C10       1.0  0.3328399597485543  0.24766674242032144  0.23185446837484855  1.0000
  C   C11       1.0  0.832837266359405  0.25234417908416873  0.23185306748909804  1.0000
  C   C12       1.0  0.6671684009932759  0.7523337131324936  0.7681471487547071  1.0000
  C   C13       1.0  0.189695781204847  0.6793458108422783  0.6683442428156426  1.0000
  C   C14       1.0  0.3103065245042345  0.17934451369306  0.3316560982320241  1.0000
  C   C15       1.0  0.8103038311150852  0.3206589222017726  0.3316546973462735  1.0000
  C   C16       1.0  0.6896943375902538  0.8206548724869478  0.6683458773241002  1.0000
  C   C17       1.0  0.18575024293161843  0.7781932863846848  0.578445056986226  1.0000
  C   C18       1.0  0.3142533125520188  0.2781930586082808  0.4215546052972812  1.0000
  C   C19       1.0  0.8142506191628698  0.2218082385409375  0.42155320441153077  1.0000
  C   C20       1.0  0.6857450499933575  0.721806327571727  0.5784450136287873  1.0000
  C   C21       1.0  0.17811661994369385  0.779355694627391  0.3873049582619856  1.0000
  C   C22       1.0  0.3218844359908317  0.2793501199869439  0.6126968043815069  1.0000
  C   C23       1.0  0.8218817426016825  0.2206458302982313  0.6126946606640828  1.0000
  C   C24       1.0  0.678112676779989  0.7206481968202568  0.38730349330871416  1.0000
  C   C25       1.0  0.1431566762892658  0.7561759696329916  0.19694423423319313  1.0000
  C   C26       1.0  0.3568443796452527  0.2561736031109731  0.8030575284102995  1.0000
  C   C27       1.0  0.8568454355797783  0.24381913905578054  0.8030563197270979  1.0000
  C   C28       1.0  0.6431502335764561  0.7438225749506131  0.196941898313213  1.0000
  O   O1        1.0  0.8326260544594462  0.5508649454069001  0.0017664712478691015  1.0000
  O   O2        1.0  0.6673683649222326  0.050867925748917714  0.9982324255566086  1.0000
  O   O3        1.0  0.16737105831137455  0.44913337140029347  0.9982345692740326  1.0000
  O   O4        1.0  0.3326312473976998  0.9491293216854686  0.0017680002686546  1.0000
  O   O5        1.0  0.1904318984183178  0.6923215804991331  0.1185654580069695  1.0000
  O   O6        1.0  0.3095691575162078  0.19231707523149316  0.8814363046365232  1.0000
  O   O7        1.0  0.8095702134507263  0.3076767363080677  0.8814350959533215  1.0000
  O   O8        1.0  0.6904279552546129  0.8076844496941362  0.118563993053705  1.0000
  O   O9        1.0  0.949414987166648  0.8649290454994089  0.9621183315357058  1.0000
  O   O10       1.0  0.5505844313132471  0.3649181239949186  0.03788082153884181  1.0000
  O   O11       1.0  0.0505846251532844  0.1350810344086781  0.0378820942895572  1.0000
  O   O12       1.0  0.4494164307812412  0.6350823315578964  0.9621181826905882  1.0000
  O   O13       1.0  0.15395722800204226  0.6576407509506268  0.8395644634369006  1.0000
  O   O14       1.0  0.3460513265798113  0.1576394538014156  0.1604354551166765  1.0000
  O   O15       1.0  0.8460461336415577  0.3423597046021882  0.16043541175923792  1.0000
  O   O16       1.0  0.6539545346129003  0.8423577936329778  0.8395675195411982  1.0000
  O   O17       1.0  0.0629861380722687  0.8721879481226793  0.19325635951570772  1.0000
  O   O18       1.0  0.4370086689894705  0.3721845122278467  0.8067435971268465  1.0000
  O   O19       1.0  0.9370122244731076  0.1278125074301357  0.8067432594103607  1.0000
  O   O20       1.0  0.5629909433304618  0.6278170126977756  0.1932553430350623  1.0000
  O   O21       1.0  0.163744212549922  0.8820464960431168  0.7767167481463346  1.0000
  O   O22       1.0  0.3362593429337153  0.3820387826570482  0.22328439980051942  1.0000
  O   O23       1.0  0.8362566495445662  0.1179582370009342  0.22328299891476897  1.0000
  O   O24       1.0  0.6637515173572266  0.6179584647773453  0.7767136313056968  1.0000
