data_image0
_chemical_formula_structural       Cu2H24C20S4N4O12
_chemical_formula_sum              "Cu2 H24 C20 S4 N4 O12"
_cell_length_a       7.431739917447652
_cell_length_b       8.549016169646793
_cell_length_c       11.528121206912939
_cell_angle_alpha    89.99744981274056
_cell_angle_beta     90.00079220780815
_cell_angle_gamma    100.4001133773052

_space_group_name_H-M_alt    "P 1"
_space_group_IT_number       1

loop_
  _space_group_symop_operation_xyz
  'x, y, z'

loop_
  _atom_site_type_symbol
  _atom_site_label
  _atom_site_symmetry_multiplicity
  _atom_site_fract_x
  _atom_site_fract_y
  _atom_site_fract_z
  _atom_site_occupancy
  Cu  Cu1       1.0  0.5000003897909977  0.4999991787485812  0.5000000237398723  1.0000
  Cu  Cu2       1.0  1.3457847672000002e-06  9.887059999999993e-10  6.018299999999998e-12  1.0000
  H   H1        1.0  0.23667113283380561  0.3557979888808375  0.6327054101856006  1.0000
  H   H2        1.0  0.26333537338874896  0.14420410700491706  0.1326995260824617  1.0000
  H   H3        1.0  0.7633272010227757  0.6442015559020076  0.367294637263619  1.0000
  H   H4        1.0  0.7366687060191169  0.8557906856435835  0.8673013889148393  1.0000
  H   H5        1.0  0.1168523712224427  0.6997618794985099  0.9022938734729138  1.0000
  H   H6        1.0  0.3831426824509735  0.8002308684131235  0.40229172928805207  1.0000
  H   H7        1.0  0.8831462084624209  0.30023885464925826  0.09770270418166402  1.0000
  H   H8        1.0  0.6168545514728976  0.1997698645932147  0.597710053024734  1.0000
  H   H9        1.0  0.19346758575609613  0.17052074991844526  0.7786340421550121  1.0000
  H   H10       1.0  0.3065446661501809  0.3294811075952921  0.2786536684869603  1.0000
  H   H11       1.0  0.806533685514161  0.829479986104921  0.22136600528774858  1.0000
  H   H12       1.0  0.693460888322477  0.6705208206318503  0.7213472463993965  1.0000
  H   H13       1.0  0.03343773622823679  0.33503693008165664  0.4772285091457391  1.0000
  H   H14       1.0  0.4665520144548268  0.16498536050914236  0.9772115139968848  1.0000
  H   H15       1.0  0.9665597435239094  0.6649649922896046  0.5227698033724053  1.0000
  H   H16       1.0  0.5334496192315967  0.835010619399604  0.0227902684139352  1.0000
  H   H17       1.0  0.9849291129834441  0.15364343856131768  0.5582047242786246  1.0000
  H   H18       1.0  0.5150633405563029  0.34637472837492567  0.058180411158197394  1.0000
  H   H19       1.0  0.0150688584569707  0.8463608623361553  0.4417935882025432  1.0000
  H   H20       1.0  0.48493780143788723  0.6536188730330608  0.9418205038455626  1.0000
  H   H21       1.0  0.12174420950072572  0.1642902953187146  0.4302726351118906  1.0000
  H   H22       1.0  0.37822712533078123  0.3357323597589499  0.9302535592409028  1.0000
  H   H23       1.0  0.8782537619396893  0.835714005578758  0.56972567736927  1.0000
  H   H24       1.0  0.6217771999172541  0.6642636221781116  0.0697464882938732  1.0000
  C   C1        1.0  0.24897864127783723  0.7782243574195888  0.7362678541196813  1.0000
  C   C2        1.0  0.2510066917980965  0.721770993439293  0.2362818571667376  1.0000
  C   C3        1.0  0.7510190843224082  0.22177875418932297  0.2637313258240113  1.0000
  C   C4        1.0  0.7489876047358665  0.27822854817379283  0.7637251298167341  1.0000
  C   C5        1.0  0.1632603444960026  0.7936485109530479  0.8401731323163587  1.0000
  C   C6        1.0  0.3367248378020662  0.7063419302740286  0.3401797377443998  1.0000
  C   C7        1.0  0.8367393351374234  0.2063510348694138  0.1598251802507988  1.0000
  C   C8        1.0  0.6632651755176084  0.29365641921165053  0.6598237794633661  1.0000
  C   C9        1.0  0.29493172685850066  0.6328253981283609  0.6823735552088834  1.0000
  C   C10       1.0  0.20506301331573698  0.867162421480735  0.18238062061315216  1.0000
  C   C11       1.0  0.7050695444038272  0.3671753379459162  0.3176247573458042  1.0000
  C   C12       1.0  0.7949400954235913  0.13284069408300778  0.8176185593546065  1.0000
  C   C13       1.0  0.20231508242618193  0.0452526748835567  0.7778927460809868  1.0000
  C   C14       1.0  0.297677092457768  0.45474326625503636  0.2779029608242567  1.0000
  C   C15       1.0  0.7976842348069297  0.9547516269517113  0.2221073012942654  1.0000
  C   C16       1.0  0.7023217330831174  0.545258657079472  0.7220962191439498  1.0000
  C   C17       1.0  0.0901250646593112  0.23117806285997486  0.506661115646537  1.0000
  C   C18       1.0  0.40985594939562026  0.2688373582361833  0.0066472341595656004  1.0000
  C   C19       1.0  0.9098704610556895  0.768827425323188  0.4933371968040987  1.0000
  C   C20       1.0  0.5901467842314361  0.7311574333981594  0.9933545482757608  1.0000
  S   S1        1.0  0.2986072785029777  0.9595658289977042  0.6668860474246401  1.0000
  S   S2        1.0  0.201396753539079  0.5404359854989521  0.1669237970648965  1.0000
  S   S3        1.0  0.7013920387182466  0.0404384729139267  0.3331113976185023  1.0000
  S   S4        1.0  0.7986042718949593  0.4595635612104018  0.8330779852844329  1.0000
  N   N1        1.0  0.13808885731322113  0.9456190713859769  0.862659869859101  1.0000
  N   N2        1.0  0.3618936056805568  0.5543819389648165  0.3626604314663666  1.0000
  N   N3        1.0  0.8619113140124316  0.054382852937244805  0.1373393101151166  1.0000
  N   N4        1.0  0.6381009366816954  0.4456187920131923  0.6373430857224633  1.0000
  O   O1        1.0  0.39485487282603776  0.6613681366138805  0.5906092305207196  1.0000
  O   O2        1.0  0.105157766204556  0.838644107633705  0.0906172076696379  1.0000
  O   O3        1.0  0.6051504357866409  0.33863260245197313  0.40938821460797925  1.0000
  O   O4        1.0  0.8948480341241166  0.16135900978017756  0.9093863095303404  1.0000
  O   O5        1.0  0.2554991409141111  0.2774400213916408  0.5708198581439632  1.0000
  O   O6        1.0  0.24449677123240585  0.22256926634410953  0.0708155603801117  1.0000
  O   O7        1.0  0.7444958931086703  0.7225630882907622  0.4291775868996197  1.0000
  O   O8        1.0  0.7555064540749897  0.7774279038673555  0.9291844871301579  1.0000
  O   O9        1.0  0.23506924760826564  0.4995326974358321  0.7275771242109811  1.0000
  O   O10       1.0  0.26492074663548243  0.0004578724094485999  0.22756818367781756  1.0000
  O   O11       1.0  0.7649331236026244  0.5004668503131384  0.2724229232562863  1.0000
  O   O12       1.0  0.7350948365710579  0.9995404960143971  0.7724301289800336  1.0000
