data_image0
_chemical_formula_structural       Zn8P4H24C32N4O32
_chemical_formula_sum              "Zn8 P4 H24 C32 N4 O32"
_cell_length_a       6.646023948004964
_cell_length_b       9.660952455940736
_cell_length_c       16.60932095318447
_cell_angle_alpha    89.58982714755872
_cell_angle_beta     90.00014002394502
_cell_angle_gamma    89.99998330545937

_space_group_name_H-M_alt    "P 1"
_space_group_IT_number       1

loop_
  _space_group_symop_operation_xyz
  'x, y, z'

loop_
  _atom_site_type_symbol
  _atom_site_label
  _atom_site_symmetry_multiplicity
  _atom_site_fract_x
  _atom_site_fract_y
  _atom_site_fract_z
  _atom_site_occupancy
  Zn  Zn1       1.0  0.6584686236720572  0.5796555177983149  0.4396512569112404  1.0000
  Zn  Zn2       1.0  0.1584692253212765  0.9203481329802866  0.5603459146024294  1.0000
  Zn  Zn3       1.0  0.3415366751216879  0.42034900711009715  0.5603446432813757  1.0000
  Zn  Zn4       1.0  0.8415330641603802  0.0796543050315464  0.43965179399754833  1.0000
  Zn  Zn5       1.0  0.9482334219567575  0.611266985353673  0.6267149988234736  1.0000
  Zn  Zn6       1.0  0.4482238555216185  0.8887365832185594  0.37328426006919824  1.0000
  Zn  Zn7       1.0  0.05177488616826759  0.3887364655176953  0.3732851170482406  1.0000
  Zn  Zn8       1.0  0.5517709106720615  0.11126686765434357  0.6267158557959435  1.0000
  P   P1        1.0  0.6626864701727728  0.8452749594502219  0.5498871444952516  1.0000
  P   P2        1.0  0.16268499272083398  0.6547297477270603  0.4501076216899806  1.0000
  P   P3        1.0  0.33731882861911794  0.15472957101969337  0.45010815361131057  1.0000
  P   P4        1.0  0.8373127827700912  0.34527583453441213  0.5498858690794608  1.0000
  H   H1        1.0  0.9641187667154583  0.6626635618964372  0.8440077701523594  1.0000
  H   H2        1.0  0.46410637704053676  0.8373337702007714  0.1559939189469546  1.0000
  H   H3        1.0  0.0358895414237992  0.33733363940716277  0.1559965667737515  1.0000
  H   H4        1.0  0.5358853798379571  0.16266449957990395  0.8440068043795252  1.0000
  H   H5        1.0  0.4524882253677233  0.9044456046405426  0.9166158783245921  1.0000
  H   H6        1.0  0.9524748896703342  0.5955423918848126  0.08338821751280531  1.0000
  H   H7        1.0  0.5475200827738007  0.09554952088913639  0.08338906283825763  1.0000
  H   H8        1.0  0.047513857895047806  0.40444965613593087  0.916613716436409  1.0000
  H   H9        1.0  0.24419496904019414  0.7862325069635999  0.8128436162951617  1.0000
  H   H10       1.0  0.7441807214392426  0.7137638341963423  0.18715846259761557  1.0000
  H   H11       1.0  0.7558148437475792  0.21377093278460532  0.18715770374936375  1.0000
  H   H12       1.0  0.25580953078598867  0.28623338379379953  0.8128440680616154  1.0000
  H   H13       1.0  0.8860162117968999  0.4606485583776632  0.7602358340639628  1.0000
  H   H14       1.0  0.38601348379324923  0.03934645173325178  0.23976185914371237  1.0000
  H   H15       1.0  0.11398306836936459  0.5393497336481587  0.23976248092200342  1.0000
  H   H16       1.0  0.6139888056879954  0.9606487460965877  0.7602352548976798  1.0000
  H   H17       1.0  0.6736123496641467  0.45720594922353547  0.7036353336088299  1.0000
  H   H18       1.0  0.1736084643875557  0.04279739532850609  0.2963615428381346  1.0000
  H   H19       1.0  0.32638993981853304  0.5428006236516507  0.296362972775782  1.0000
  H   H20       1.0  0.8263923204329942  0.9572060833512098  0.7036355625997218  1.0000
  H   H21       1.0  0.8453761894646519  0.020308445412538793  0.02084861803722761  1.0000
  H   H22       1.0  0.34536279695464595  0.479684459184881  0.9791538545759269  1.0000
  H   H23       1.0  0.15463663264841898  0.9796866968011174  0.9791545168696918  1.0000
  H   H24       1.0  0.6546229412883163  0.5203107052778361  0.020846871973688508  1.0000
  C   C1        1.0  0.34646636326223046  0.5941377963849135  0.7094667595057447  1.0000
  C   C2        1.0  0.8464541814853207  0.905865806322673  0.2905311964805792  1.0000
  C   C3        1.0  0.6535509728071247  0.4058594772171488  0.29052975030620604  1.0000
  C   C4        1.0  0.15353908004148312  0.09413973700882387  0.7094665088889658  1.0000
  C   C5        1.0  0.48261862535914446  0.6548107081368  0.7716895989851765  1.0000
  C   C6        1.0  0.9826060841361224  0.8451918064312096  0.22831089851353437  1.0000
  C   C7        1.0  0.5173896827693838  0.3451937667177845  0.22831171998326746  1.0000
  C   C8        1.0  0.0173856727436075  0.1548095631066104  0.7716904236729294  1.0000
  C   C9        1.0  0.6874945409888581  0.6170982262946865  0.781076775278571  1.0000
  C   C10       1.0  0.18749455834646508  0.8828992184062154  0.21891922667538216  1.0000
  C   C11       1.0  0.31250172985706115  0.38290214150540436  0.21892093546919267  1.0000
  C   C12       1.0  0.8125092357934065  0.11709804963587796  0.7810778852160427  1.0000
  C   C13       1.0  0.8045616907637765  0.68680579593979  0.8383326906819735  1.0000
  C   C14       1.0  0.30454784092368925  0.8131894964634724  0.16166944785330634  1.0000
  C   C15       1.0  0.1954421033987828  0.3131893351518897  0.16167164839264817  1.0000
  C   C16       1.0  0.6954439159589397  0.1868066919817792  0.8383324817959591  1.0000
  C   C17       1.0  0.7203249870479881  0.7896517863013627  0.886422330241729  1.0000
  C   C18       1.0  0.22031088147203803  0.7103373256356631  0.11357852884816572  1.0000
  C   C19       1.0  0.27967880711189247  0.21033818038225147  0.11358081003757553  1.0000
  C   C20       1.0  0.7796763614326565  0.2896536928405382  0.8864228040896266  1.0000
  C   C21       1.0  0.5158914475563349  0.8240234181884954  0.8788924300383061  1.0000
  C   C22       1.0  0.015872887970616  0.6759729467895425  0.12111243778565492  1.0000
  C   C23       1.0  0.48411986990264205  0.17597481265947576  0.12111250789995154  1.0000
  C   C24       1.0  0.9841128502882269  0.32402630804454446  0.8788937032369335  1.0000
  C   C25       1.0  0.40103464000800665  0.7577249960780675  0.8212380093571597  1.0000
  C   C26       1.0  0.9010233387484378  0.7422723669683932  0.17876181228120916  1.0000
  C   C27       1.0  0.598970658801413  0.24227534391350491  0.17876271182518624  1.0000
  C   C28       1.0  0.09897293210489978  0.2577279785856915  0.8212383068107132  1.0000
  C   C29       1.0  0.8496009277252766  0.8727127899849305  0.9404655265037435  1.0000
  C   C30       1.0  0.3495865219284795  0.6272814626891972  0.059536054717021614  1.0000
  C   C31       1.0  0.1504028664395562  0.12728026533282844  0.05953941680762402  1.0000
  C   C32       1.0  0.6504052349582709  0.3727126444206305  0.9404670812550295  1.0000
  N   N1        1.0  0.7795870627016016  0.5184323941378748  0.7310344651109377  1.0000
  N   N2        1.0  0.2795783215298115  0.9815670665830466  0.26896523655121035  1.0000
  N   N3        1.0  0.22041823610740607  0.48157001606612926  0.2689662539207093  1.0000
  N   N4        1.0  0.720416444664899  0.018431208758784096  0.7310348846906862  1.0000
  O   O1        1.0  0.6105227127546938  0.775555962021265  0.4682060803060467  1.0000
  O   O2        1.0  0.11053073905095799  0.7244456071398416  0.5317934551896288  1.0000
  O   O3        1.0  0.38947506275190585  0.22444543532336775  0.5317922314531318  1.0000
  O   O4        1.0  0.8894745597522729  0.27555785485486683  0.4682054565085424  1.0000
  O   O5        1.0  0.47299267831706265  0.9260701498989261  0.5802882459412615  1.0000
  O   O6        1.0  0.9729874420805374  0.5739323724064177  0.4197116401359936  1.0000
  O   O7        1.0  0.5270111158273351  0.07393227698973698  0.4197106668315272  1.0000
  O   O8        1.0  0.0270118380886117  0.4260700489212609  0.5802878747206466  1.0000
  O   O9        1.0  0.7267926897543902  0.7423376169315999  0.6151181268936272  1.0000
  O   O10       1.0  0.22678174181921665  0.7576660183985381  0.38487911090150834  1.0000
  O   O11       1.0  0.2732186276792135  0.25766689685313776  0.3848789774739886  1.0000
  O   O12       1.0  0.7732115197077931  0.24233848982674278  0.6151185955433862  1.0000
  O   O13       1.0  0.8310983768218277  0.9553189623793868  0.5356739900729863  1.0000
  O   O14       1.0  0.3310940210450113  0.544682595835965  0.4643215448138563  1.0000
  O   O15       1.0  0.1689069219702688  0.04468453298431289  0.4643213091089323  1.0000
  O   O16       1.0  0.6689052591109358  0.45532089952841637  0.5356737543651421  1.0000
  O   O17       1.0  0.40667369259784897  0.4874184708847976  0.6710150185226953  1.0000
  O   O18       1.0  0.906667921536908  0.012587920723632396  0.3289826828962462  1.0000
  O   O19       1.0  0.5933331108598806  0.5125891426575889  0.3289826847027158  1.0000
  O   O20       1.0  0.09332383532631638  0.9874217741558766  0.671013813999082  1.0000
  O   O21       1.0  0.1775939257260291  0.6538855727337063  0.7003974860653983  1.0000
  O   O22       1.0  0.6775773094195756  0.8461232548146992  0.2995990965322194  1.0000
  O   O23       1.0  0.8224204010173964  0.3461231037215384  0.2995972056581024  1.0000
  O   O24       1.0  0.32240993347086544  0.1538833236236883  0.7003986077590483  1.0000
  O   O25       1.0  0.7506125611968598  0.9509269843508575  0.9916507556651343  1.0000
  O   O26       1.0  0.25059937553087513  0.5490652316174263  0.0083495274976926  1.0000
  O   O27       1.0  0.24939424227407866  0.04907024476040079  0.008350570830039301  1.0000
  O   O28       1.0  0.7493908766850764  0.45093201418020357  0.9916499927313258  1.0000
  O   O29       1.0  0.0371993832453654  0.8714087071782042  0.9345209446916913  1.0000
  O   O30       1.0  0.5371829148678842  0.6285783592714153  0.06548154513994581  1.0000
  O   O31       1.0  0.962805915589854  0.12857396926975176  0.06548701980413092  1.0000
  O   O32       1.0  0.4628028233744743  0.37141060011552435  0.9345185857757417  1.0000
