data_image0
_chemical_formula_structural       Zn8H40C104Br16N32O8
_chemical_formula_sum              "Zn8 H40 C104 Br16 N32 O8"
_cell_length_a       19.962885486580383
_cell_length_b       22.455249325862468
_cell_length_c       22.368803005550888
_cell_angle_alpha    90.00052593335776
_cell_angle_beta     87.25914708204049
_cell_angle_gamma    89.95115477474735

_space_group_name_H-M_alt    "P 1"
_space_group_IT_number       1

loop_
  _space_group_symop_operation_xyz
  'x, y, z'

loop_
  _atom_site_type_symbol
  _atom_site_label
  _atom_site_symmetry_multiplicity
  _atom_site_fract_x
  _atom_site_fract_y
  _atom_site_fract_z
  _atom_site_occupancy
  Zn  Zn1       1.0  0.6239424046353362  0.5016700180830966  0.9892241641759227  1.0000
  Zn  Zn2       1.0  0.3760299680631718  0.4983225913557021  0.0108075897062676  1.0000
  Zn  Zn3       1.0  0.12389969867798097  0.9983516952169823  0.48929295089837405  1.0000
  Zn  Zn4       1.0  0.8761688748404666  0.0016956586128742002  0.5106364147336464  1.0000
  Zn  Zn5       1.0  0.4990796942614538  0.6082084463716058  0.004628202511753404  1.0000
  Zn  Zn6       1.0  0.500879330372797  0.39178773074969087  0.9954010967151918  1.0000
  Zn  Zn7       1.0  0.0009860765065496926  0.10830914938554766  0.49563971888395036  1.0000
  Zn  Zn8       1.0  0.9990832804922435  0.8917667037259704  0.5043263994510313  1.0000
  H   H1        1.0  0.2617509260078492  0.41888546018469  0.0940366742693683  1.0000
  H   H2        1.0  0.738253856970175  0.5811432089358419  0.9059969482449689  1.0000
  H   H3        1.0  0.6299929684198844  0.5018938705306367  0.8457910895317865  1.0000
  H   H4        1.0  0.369970363588358  0.498110320538622  0.1542476881282582  1.0000
  H   H5        1.0  0.8697055148383869  0.0015859651489407002  0.6540274609989538  1.0000
  H   H6        1.0  0.13019246765399123  0.9984801560791324  0.3458915441361015  1.0000
  H   H7        1.0  0.23827803869191647  0.9189020964461747  0.40602345126141864  1.0000
  H   H8        1.0  0.7617163943830504  0.0811038708195753  0.5938652918165347  1.0000
  H   H9        1.0  0.519459955250575  0.3584717200027967  0.13103704557166654  1.0000
  H   H10       1.0  0.4805001291195623  0.6415275743610921  0.8689846545954582  1.0000
  H   H11       1.0  0.4576247219691041  0.3261167240158755  0.8779527462308677  1.0000
  H   H12       1.0  0.5423784960136616  0.6739293146863901  0.12205441922323963  1.0000
  H   H13       1.0  0.04223570057506978  0.826045937839005  0.6218661874603982  1.0000
  H   H14       1.0  0.9577991440259906  0.17410874865057482  0.37816658505339973  1.0000
  H   H15       1.0  0.9806200926310493  0.8586048693961104  0.3686688809187473  1.0000
  H   H16       1.0  0.019414055418799588  0.14148970081999582  0.6312921920322125  1.0000
  H   H17       1.0  0.7925063761393147  0.6076608971991604  0.1288651122147755  1.0000
  H   H18       1.0  0.7855908573123856  0.6383761101299187  0.055249825122786006  1.0000
  H   H19       1.0  0.830601759579217  0.5699131348725502  0.0649246714949925  1.0000
  H   H20       1.0  0.214404579833996  0.36154790760626543  0.9448365050419554  1.0000
  H   H21       1.0  0.20745074224518587  0.3922208287642661  0.8712111893247043  1.0000
  H   H22       1.0  0.16933304085458897  0.4299628101813936  0.9351485822393002  1.0000
  H   H23       1.0  0.2593720364743106  0.5397300877189011  0.8313538148487608  1.0000
  H   H24       1.0  0.22166804205853902  0.6115498601821656  0.8443175524785504  1.0000
  H   H25       1.0  0.1837389359206654  0.5462432120013077  0.8777447171722841  1.0000
  H   H26       1.0  0.7782904227871726  0.3884329572020847  0.1557126326980764  1.0000
  H   H27       1.0  0.7405885314463347  0.46025851968339293  0.16864101093114667  1.0000
  H   H28       1.0  0.816231966227832  0.4537204523945918  0.1222664016941337  1.0000
  H   H29       1.0  0.2407078376382756  0.0396434121780089  0.6688433159663204  1.0000
  H   H30       1.0  0.2783044118524529  0.11146671883967942  0.655934306594048  1.0000
  H   H31       1.0  0.316344574484873  0.04617178099035609  0.6224727952716121  1.0000
  H   H32       1.0  0.721697512027994  0.8884279064130995  0.3441118036351583  1.0000
  H   H33       1.0  0.7592038766477103  0.9602899892935427  0.3312232985559902  1.0000
  H   H34       1.0  0.6835982870509199  0.9536832300046213  0.3776135791366784  1.0000
  H   H35       1.0  0.7078633917850112  0.10774174085553768  0.37099652544117134  1.0000
  H   H36       1.0  0.7145892859690619  0.13826974050185473  0.4447181187891757  1.0000
  H   H37       1.0  0.6698026368223893  0.069799836523849  0.43481355243521597  1.0000
  H   H38       1.0  0.2854535451917144  0.8615460529837478  0.5551678036484232  1.0000
  H   H39       1.0  0.2923200083441841  0.8921042847163607  0.628851339942905  1.0000
  H   H40       1.0  0.3303849415391015  0.9299477716179754  0.5649850898232885  1.0000
  C   C1        1.0  0.6692817519487662  0.5868113097288301  0.08272624490287941  1.0000
  C   C2        1.0  0.3306713699270817  0.41315636734135824  0.9173289422665009  1.0000
  C   C3        1.0  0.3325174900118384  0.587666125687406  0.9120059628229671  1.0000
  C   C4        1.0  0.6674495401353795  0.41231000917955657  0.0880100229745437  1.0000
  C   C5        1.0  0.16749870244794351  0.08762083571507871  0.5882413834361983  1.0000
  C   C6        1.0  0.8325052866261302  0.9123673093358916  0.4117760942305608  1.0000
  C   C7        1.0  0.8310829988385537  0.0868638866270715  0.4171950973555382  1.0000
  C   C8        1.0  0.16908246694038814  0.9130974841720911  0.5826981869501539  1.0000
  C   C9        1.0  0.7305874808801177  0.7121055478082853  0.8975966789138071  1.0000
  C   C10       1.0  0.2693178288652405  0.28791158282000845  0.10235917795834132  1.0000
  C   C11       1.0  0.3597454511243683  0.6116284009062057  0.22587033630629352  1.0000
  C   C12       1.0  0.6402236518308158  0.3883708895448876  0.7741649496654048  1.0000
  C   C13       1.0  0.1405370395120045  0.1120887629510747  0.2745226232064084  1.0000
  C   C14       1.0  0.8593161749777636  0.8879996406699178  0.7254122400021431  1.0000
  C   C15       1.0  0.7690871146483927  0.21206304852604058  0.602341641436375  1.0000
  C   C16       1.0  0.2309233825499746  0.7879420160903406  0.3976893830024225  1.0000
  C   C17       1.0  0.8141891070371726  0.7837881057587737  0.8412074670523565  1.0000
  C   C18       1.0  0.1856061139516285  0.2162891869891226  0.1587054048328085  1.0000
  C   C19       1.0  0.3028235113656024  0.6595500078467255  0.32139787992936425  1.0000
  C   C20       1.0  0.6971348023082697  0.3404604202761732  0.678627376815605  1.0000
  C   C21       1.0  0.19741754405433906  0.1597399389172409  0.1788749291672502  1.0000
  C   C22       1.0  0.802343439737335  0.84032578867307  0.8210199178874261  1.0000
  C   C23       1.0  0.6853336731212991  0.2838895516203976  0.6585527808966348  1.0000
  C   C24       1.0  0.3146675709869129  0.7161008198036641  0.34149511824725215  1.0000
  C   C25       1.0  0.2292177926952164  0.25184482776439404  0.12426470535322662  1.0000
  C   C26       1.0  0.7706226610987201  0.7482159699590484  0.8756735344066229  1.0000
  C   C27       1.0  0.6631685100719551  0.36807829798971886  0.7266144366816079  1.0000
  C   C28       1.0  0.336777790193331  0.6318947262560712  0.27342451234660803  1.0000
  C   C29       1.0  0.8362719540410807  0.8677926039620799  0.7729484592088269  1.0000
  C   C30       1.0  0.16352893891907166  0.13227978814719424  0.22696226346013046  1.0000
  C   C31       1.0  0.2710121736064082  0.751798925629231  0.3758042488892954  1.0000
  C   C32       1.0  0.7289969100111834  0.24819589609712278  0.6242460169006065  1.0000
  C   C33       1.0  0.3066794563213691  0.393526073086811  0.0816687838312191  1.0000
  C   C34       1.0  0.6933068116089061  0.6064794462940172  0.9183510981549858  1.0000
  C   C35       1.0  0.6159190869452047  0.45807875961953215  0.8625746408626257  1.0000
  C   C36       1.0  0.3840589573127104  0.5419209728108499  0.13746168509800333  1.0000
  C   C37       1.0  0.8838222881206618  0.9577873701611849  0.6371752628606728  1.0000
  C   C38       1.0  0.11613640030972759  0.04228718849666541  0.36277652955845247  1.0000
  C   C39       1.0  0.1933781802192627  0.8935521684863021  0.418352742991381  1.0000
  C   C40       1.0  0.8066171830997391  0.10646359392833202  0.5815776818729007  1.0000
  C   C41       1.0  0.4053766456900263  0.6374584446544489  0.1221940586297734  1.0000
  C   C42       1.0  0.5945889849131873  0.3625457457345578  0.8778407238305235  1.0000
  C   C43       1.0  0.6165653847375125  0.6753505941831647  0.9378945131459204  1.0000
  C   C44       1.0  0.3833550518656921  0.32461309184349574  0.0620467981389794  1.0000
  C   C45       1.0  0.8832014579903812  0.17537633336132794  0.562102504019549  1.0000
  C   C46       1.0  0.1168004590591423  0.8246425413655984  0.4378885095103939  1.0000
  C   C47       1.0  0.0948620345933406  0.1378444510600261  0.3782059655291691  1.0000
  C   C48       1.0  0.9052315800657383  0.8622514321996635  0.6217775696814769  1.0000
  C   C49       1.0  0.5643533708801272  0.3796451943716761  0.1117419176948289  1.0000
  C   C50       1.0  0.4356093827386545  0.6203496457963311  0.8882775849636815  1.0000
  C   C51       1.0  0.4214125477374679  0.3592081133962211  0.8940847047693482  1.0000
  C   C52       1.0  0.578570045040685  0.6408121031480647  0.10593735936662088  1.0000
  C   C53       1.0  0.07841442426907007  0.8591301831908639  0.6057825180463041  1.0000
  C   C54       1.0  0.92166558213777  0.14096169708176381  0.3942021418808181  1.0000
  C   C55       1.0  0.9356727160615108  0.8797493631826117  0.3879800145726193  1.0000
  C   C56       1.0  0.0643472760988928  0.12031448411286046  0.6119897884817433  1.0000
  C   C57       1.0  0.6481610147621808  0.6389895308986198  0.11472830103984681  1.0000
  C   C58       1.0  0.35181701196131593  0.360990161374005  0.8853151913599505  1.0000
  C   C59       1.0  0.3700679294021895  0.6208490524947053  0.867313103468426  1.0000
  C   C60       1.0  0.6298954322051458  0.379128419626902  0.1327050635012625  1.0000
  C   C61       1.0  0.12990003544317116  0.12084824065064478  0.6329231742559501  1.0000
  C   C62       1.0  0.8701049569539094  0.8791679607079885  0.3670737128368629  1.0000
  C   C63       1.0  0.8521007948166359  0.13910271958526724  0.3852979734019897  1.0000
  C   C64       1.0  0.1479867327181452  0.8609143435677425  0.6146599202037919  1.0000
  C   C65       1.0  0.31546996847090014  0.33106656404229534  0.082412716070408  1.0000
  C   C66       1.0  0.6844619113865277  0.6689314072757854  0.9175498391952531  1.0000
  C   C67       1.0  0.6171679139829179  0.40302697264024095  0.8323084862106995  1.0000
  C   C68       1.0  0.3828107298880497  0.5969723142949022  0.1677265052993704  1.0000
  C   C69       1.0  0.8825255776676357  0.9026800714063867  0.6673273196127029  1.0000
  C   C70       1.0  0.11744141835853128  0.09739760137063772  0.3326272948995523  1.0000
  C   C71       1.0  0.1846991432009659  0.8310978472145722  0.41761256618222126  1.0000
  C   C72       1.0  0.8153062528416442  0.1689139006352534  0.5823856711110268  1.0000
  C   C73       1.0  0.6545683495053112  0.3474618472602203  0.1806996699299575  1.0000
  C   C74       1.0  0.34539494344451777  0.6525098358416415  0.8193126711827007  1.0000
  C   C75       1.0  0.31455961146338046  0.32113715126796893  0.8524139691524225  1.0000
  C   C76       1.0  0.6854417740609478  0.6788229380111164  0.1476254173979399  1.0000
  C   C77       1.0  0.18527101303712357  0.8210808435962066  0.6476169363800538  1.0000
  C   C78       1.0  0.8147677043717679  0.17893712670210957  0.3523778055277091  1.0000
  C   C79       1.0  0.8454627007121829  0.8474626949823617  0.31911119577029723  1.0000
  C   C80       1.0  0.15454080302588835  0.1525392560753787  0.6808923865321006  1.0000
  C   C81       1.0  0.6811240979548856  0.3175847613004521  0.2192701233730432  1.0000
  C   C82       1.0  0.3188466346346033  0.6823993879671378  0.7807499548607097  1.0000
  C   C83       1.0  0.2821176271322514  0.28573372101435274  0.8232791745296311  1.0000
  C   C84       1.0  0.7178939919166113  0.7142268102223002  0.1767505202867525  1.0000
  C   C85       1.0  0.2177368324663504  0.7856714157728532  0.6767831067472444  1.0000
  C   C86       1.0  0.7822830174589938  0.21434700606543797  0.32322970041658294  1.0000
  C   C87       1.0  0.8189214808809594  0.8175751236401609  0.28057062461210347  1.0000
  C   C88       1.0  0.18109113308651814  0.18241925348568344  0.7194317596391214  1.0000
  C   C89       1.0  0.7136028273143397  0.28358975056122665  0.25766362347562927  1.0000
  C   C90       1.0  0.2863815461073145  0.7164104253304661  0.7423616038455877  1.0000
  C   C91       1.0  0.24625099413042048  0.24905763804874684  0.7901331254361496  1.0000
  C   C92       1.0  0.7537763878383857  0.7509086773640377  0.20987979872754184  1.0000
  C   C93       1.0  0.25366020877059003  0.7490202938817704  0.7099657854684907  1.0000
  C   C94       1.0  0.7463460754296919  0.2509972417129092  0.2900611399788602  1.0000
  C   C95       1.0  0.7864981462438648  0.7835343434690571  0.2422172979222026  1.0000
  C   C96       1.0  0.21351788381868178  0.21644667214193453  0.7577932046175349  1.0000
  C   C97       1.0  0.7879829967960106  0.5970158540224874  0.08134325743966292  1.0000
  C   C98       1.0  0.21197753954012907  0.40289303606506616  0.9187272770332984  1.0000
  C   C99       1.0  0.23118230608505996  0.5677935921037971  0.8640152169641909  1.0000
  C   C100      1.0  0.7687850218705776  0.4321807615033748  0.1359967412865757  1.0000
  C   C101      1.0  0.2688667609885158  0.06772537015032039  0.6362065825800869  1.0000
  C   C102      1.0  0.731094342380743  0.9321710508049535  0.3638563436383748  1.0000
  C   C103      1.0  0.7123480748456857  0.09698556509100341  0.4184989961110261  1.0000
  C   C104      1.0  0.28779406609348257  0.9028484517187751  0.5813513403869025  1.0000
  Br  Br1       1.0  0.41474955337891817  0.7201017510748997  0.12878745240152512  1.0000
  Br  Br2       1.0  0.5852279384283463  0.279902881030452  0.8712291521096062  1.0000
  Br  Br3       1.0  0.5664450267528524  0.7450498564129335  0.9505368243350462  1.0000
  Br  Br4       1.0  0.4333949643675722  0.25487823624008843  0.04932702560617489  1.0000
  Br  Br5       1.0  0.9331399637687312  0.24511314248272234  0.5495330947144624  1.0000
  Br  Br6       1.0  0.06686765118429612  0.7549043928093438  0.45048937193410404  1.0000
  Br  Br7       1.0  0.08549927618970088  0.2205126112859546  0.3716955916257093  1.0000
  Br  Br8       1.0  0.9146496516657477  0.7795992812153117  0.6283394615995306  1.0000
  Br  Br9       1.0  0.7254552512255827  0.8815101904107506  0.8551736406067789  1.0000
  Br  Br10      1.0  0.2742070578708606  0.11847541595812323  0.14468063389561084  1.0000
  Br  Br11      1.0  0.3954881344071167  0.7548657661309619  0.3125535670353586  1.0000
  Br  Br12      1.0  0.6045101434679054  0.24510679348833972  0.687487114574573  1.0000
  Br  Br13      1.0  0.10477415805253541  0.2552178928734392  0.1875778089944475  1.0000
  Br  Br14      1.0  0.8950548524467195  0.7448865520791019  0.8123454654113119  1.0000
  Br  Br15      1.0  0.7740392055432322  0.38147773583970246  0.6444622159179332  1.0000
  Br  Br16      1.0  0.2258867751285081  0.618595941571961  0.3555526690839059  1.0000
  N   N1        1.0  0.6165530575319238  0.5606388399690021  0.0588005463386594  1.0000
  N   N2        1.0  0.38339246912426017  0.43935288827997  0.9412419759296994  1.0000
  N   N3        1.0  0.3724796024724597  0.5704820356358838  0.9550884048135729  1.0000
  N   N4        1.0  0.6274886931338841  0.4295038958935677  0.044930738298297995  1.0000
  N   N5        1.0  0.12754325255143334  0.0703889119051198  0.5452019544246623  1.0000
  N   N6        1.0  0.8724684819698183  0.9296268414729313  0.45479862531952625  1.0000
  N   N7        1.0  0.883840903462122  0.0606957932300674  0.44116047731908736  1.0000
  N   N8        1.0  0.11635009252480437  0.9393029761524404  0.5587260525805674  1.0000
  N   N9        1.0  0.3639211565791172  0.4206699446187798  0.0631172315413622  1.0000
  N   N10       1.0  0.6360918667867352  0.5793088440077983  0.936927272075323  1.0000
  N   N11       1.0  0.5952352808058804  0.45005331654900976  0.9202755779222259  1.0000
  N   N12       1.0  0.4047246736093512  0.5499531027845848  0.07975463314394202  1.0000
  N   N13       1.0  0.904632080581415  0.9498423336107463  0.5794956667175982  1.0000
  N   N14       1.0  0.09543097187000882  0.05024999859744381  0.4204811040043381  1.0000
  N   N15       1.0  0.1360645379345726  0.9207118928326354  0.4368331718958771  1.0000
  N   N16       1.0  0.8639191718717071  0.07931634508818772  0.5630513682034177  1.0000
  N   N17       1.0  0.41809708295406983  0.6095172650982832  0.07028801662589498  1.0000
  N   N18       1.0  0.5818536978929316  0.39049138419004253  0.9297442870818386  1.0000
  N   N19       1.0  0.5880851717923576  0.6222897599610561  0.9490620164883765  1.0000
  N   N20       1.0  0.4118871266229078  0.37766366183683436  0.050937027433526794  1.0000
  N   N21       1.0  0.9118286080817698  0.12232650007337753  0.5509784863531025  1.0000
  N   N22       1.0  0.0881625426799602  0.8777008426589604  0.44894783945455424  1.0000
  N   N23       1.0  0.0820825176989359  0.10982590528965368  0.4300617139821412  1.0000
  N   N24       1.0  0.9180603413500493  0.8902810925227697  0.5699333672364446  1.0000
  N   N25       1.0  0.5635729010443171  0.40936503288605747  0.0595300695591803  1.0000
  N   N26       1.0  0.4363905540572973  0.5906347054829836  0.9404934769825104  1.0000
  N   N27       1.0  0.4394983486160982  0.40595700790892414  0.9274283573180784  1.0000
  N   N28       1.0  0.5604670300475334  0.5940672228709902  0.0725961182139088  1.0000
  N   N29       1.0  0.060292576989297665  0.9059006467050494  0.5724427372165621  1.0000
  N   N30       1.0  0.9398483799483163  0.09418230634216233  0.4274967567442616  1.0000
  N   N31       1.0  0.9364242238173829  0.9095131836303594  0.4401693416871312  1.0000
  N   N32       1.0  0.0635995761527184  0.0905457635076914  0.5598032103863488  1.0000
  O   O1        1.0  0.7295925137319372  0.5608387029023021  0.07272457532834412  1.0000
  O   O2        1.0  0.2703439470835107  0.4391044867984064  0.9273393021298303  1.0000
  O   O3        1.0  0.26724150161901145  0.5735970878164949  0.9180902986749332  1.0000
  O   O4        1.0  0.7327309741561905  0.4263536614582933  0.0819199484275472  1.0000
  O   O5        1.0  0.23280706727410921  0.07358373675278779  0.582135575231021  1.0000
  O   O6        1.0  0.7671821006901425  0.9263402848868626  0.41791346822977726  1.0000
  O   O7        1.0  0.7708364215551526  0.06082724943416912  0.42708605480357426  1.0000
  O   O8        1.0  0.229359515936224  0.939075772636066  0.5727884502741816  1.0000
