data_image0
_chemical_formula_structural       Zn6H16C56I10O30
_chemical_formula_sum              "Zn6 H16 C56 I10 O30"
_cell_length_a       18.564106169401185
_cell_length_b       18.625028858593048
_cell_length_c       18.716471696460545
_cell_angle_alpha    109.42170159768385
_cell_angle_beta     109.18060418781236
_cell_angle_gamma    109.2299849811725

_space_group_name_H-M_alt    "P 1"
_space_group_IT_number       1

loop_
  _space_group_symop_operation_xyz
  'x, y, z'

loop_
  _atom_site_type_symbol
  _atom_site_label
  _atom_site_symmetry_multiplicity
  _atom_site_fract_x
  _atom_site_fract_y
  _atom_site_fract_z
  _atom_site_occupancy
  Zn  Zn1       1.0  0.997865737989507  0.9346212069353965  0.438245804079358  1.0000
  Zn  Zn2       1.0  0.003995861405130103  0.06442589164569058  0.5665316168403152  1.0000
  Zn  Zn3       1.0  0.42888495001099614  0.49680779013242937  0.43354607640959136  1.0000
  Zn  Zn4       1.0  0.5572588070962752  0.49556356544889  0.5593108333581256  1.0000
  Zn  Zn5       1.0  0.43926700583185146  0.9364302597050835  0.0006994221577869429  1.0000
  Zn  Zn6       1.0  0.5656200515693399  0.06533807367552667  0.0025511696502248794  1.0000
  H   H1        1.0  0.8033579312825767  0.6644106858759713  0.5729506637343749  1.0000
  H   H2        1.0  0.26582408777581185  0.9971195846127117  0.8606440010683514  1.0000
  H   H3        1.0  0.5594095694542675  0.7316409992689898  0.5243681821898676  1.0000
  H   H4        1.0  0.9758780292472052  0.8274807796678586  0.562012151962179  1.0000
  H   H5        1.0  0.7007875987405112  0.16560181160760828  0.25395054384074467  1.0000
  H   H6        1.0  0.683820924502612  0.9240907160831567  0.8757943695149066  1.0000
  H   H7        1.0  0.43275346858983704  0.17599183610543884  0.017630182887515385  1.0000
  H   H8        1.0  0.46399761734229367  0.9895482919048104  0.7609183489509164  1.0000
  H   H9        1.0  0.8576936730469882  0.123311288997769  0.3994716608738856  1.0000
  H   H10       1.0  0.6754077909080038  0.8910787775476617  0.08817234460978085  1.0000
  H   H11       1.0  0.7832700781999478  0.874770288938265  0.19409408042844942  1.0000
  H   H12       1.0  0.3321666064676023  0.7194873569876278  0.7364304164641737  1.0000
  H   H13       1.0  0.4468932925436704  0.09748658584119597  0.24077877014875781  1.0000
  H   H14       1.0  0.44716116261232486  0.34927757762974915  0.2038065825889248  1.0000
  H   H15       1.0  0.3861493466685104  0.2255329355515912  0.5578126984255078  1.0000
  H   H16       1.0  0.14828007842115912  0.2966872053436517  0.5074739300220585  1.0000
  C   C1        1.0  0.12372954633457309  0.980272563867622  0.5937823294360598  1.0000
  C   C2        1.0  0.20105168588801797  0.9884576602436181  0.663171715959315  1.0000
  C   C3        1.0  0.7374443482182187  0.8207794272891249  0.5081999096262564  1.0000
  C   C4        1.0  0.12305322931136692  0.1375035253178964  0.5282082344541337  1.0000
  C   C5        1.0  0.6746886637984274  0.7503366925000062  0.5048196149201162  1.0000
  C   C6        1.0  0.699995639680921  0.695306604203793  0.5307071709728176  1.0000
  C   C7        1.0  0.7845475715009158  0.7083837143510935  0.5556788366806203  1.0000
  C   C8        1.0  0.8454385399943121  0.7752422059893292  0.5539700856758003  1.0000
  C   C9        1.0  0.8228344329938366  0.8335991001000803  0.5327260320256496  1.0000
  C   C10       1.0  0.8191932988429329  0.072751470617483  0.3311553118918908  1.0000
  C   C11       1.0  0.7610656242776414  0.08409861706926591  0.27181279976983314  1.0000
  C   C12       1.0  0.23761493351436502  0.2590179620731376  0.4541071756169828  1.0000
  C   C13       1.0  0.7085927790287627  0.017579622257450498  0.18391373638296935  1.0000
  C   C14       1.0  0.7160186578691281  0.9419124109165864  0.15623993131573147  1.0000
  C   C15       1.0  0.7762212883545131  0.9328693700707757  0.21531838379344495  1.0000
  C   C16       1.0  0.8887318665888697  0.9869535929396844  0.3683450860257055  1.0000
  C   C17       1.0  0.8272034754710519  0.9977439175020207  0.3033899848107069  1.0000
  C   C18       1.0  0.46680065480358474  0.6139660647972036  0.5866406233910126  1.0000
  C   C19       1.0  0.40572469786550863  0.3857593367591008  0.530086222297669  1.0000
  C   C20       1.0  0.46093009695786685  0.37163512874977295  0.35729787658896583  1.0000
  C   C21       1.0  0.6328953563123179  0.6178315958506176  0.5235226534722557  1.0000
  C   C22       1.0  0.4760196915110768  0.8591286480144615  0.8828936895366937  1.0000
  C   C23       1.0  0.2014230716328598  0.2812104486505759  0.517981620881713  1.0000
  C   C24       1.0  0.4150341648231119  0.018642081662704903  0.8748892347947573  1.0000
  C   C25       1.0  0.4634175693317815  0.0917899813022132  0.1036856487260138  1.0000
  C   C26       1.0  0.6405172848194667  0.022770734946810495  0.11835969812761256  1.0000
  C   C27       1.0  0.5472234809028009  0.7517141797819278  0.7313045843526993  1.0000
  C   C28       1.0  0.8883888123250472  0.9042741683236385  0.5290686559146067  1.0000
  C   C29       1.0  0.5514053649107425  0.8070662036140773  0.8058822930778363  1.0000
  C   C30       1.0  0.47282219372019807  0.7934241980161545  0.8076038181419777  1.0000
  C   C31       1.0  0.39234447088633567  0.7271057075934448  0.7350095992794294  1.0000
  C   C32       1.0  0.3889788131561004  0.6723777218882317  0.659922139599658  1.0000
  C   C33       1.0  0.46672044495279147  0.6814632377858201  0.6581359701353975  1.0000
  C   C34       1.0  0.19857905042847074  0.2009169960942927  0.5299783129362083  1.0000
  C   C35       1.0  0.4508068729839252  0.22140043270603368  0.2979868290385213  1.0000
  C   C36       1.0  0.4486260860859872  0.1537888358210537  0.23400874838047506  1.0000
  C   C37       1.0  0.45160557979915694  0.15896400984166797  0.16223176115035193  1.0000
  C   C38       1.0  0.45069631347799793  0.22993081913669042  0.15079362788927855  1.0000
  C   C39       1.0  0.44926356597711953  0.29531418779228596  0.21366728982475539  1.0000
  C   C40       1.0  0.29579539103674074  0.2624510238873228  0.6087488210329397  1.0000
  C   C41       1.0  0.4521719551877865  0.29386398450586154  0.2886778281356754  1.0000
  C   C42       1.0  0.2972613263950876  0.3420169953760989  0.595516685120721  1.0000
  C   C43       1.0  0.334877161823286  0.3196192487772791  0.5310808737543056  1.0000
  C   C44       1.0  0.3330409029720086  0.2411084570851614  0.5455638914402456  1.0000
  C   C45       1.0  0.19834128623266178  0.9896086062674952  0.7378892984535952  1.0000
  C   C46       1.0  0.23739360981263494  0.17981689998217118  0.46759007572530464  1.0000
  C   C47       1.0  0.5815559760570821  0.7327242973664524  0.475961696326273  1.0000
  C   C48       1.0  0.9311518342222487  0.7783421111800235  0.5702715244560254  1.0000
  C   C49       1.0  0.7528011630529008  0.16377287867393153  0.3034209580103706  1.0000
  C   C50       1.0  0.6383331507768658  0.8764936292992188  0.8851529009414704  1.0000
  C   C51       1.0  0.4462074781087324  0.23571389476813914  0.07225246899486847  1.0000
  C   C52       1.0  0.43002765344662913  0.012749506583958198  0.7205567483311269  1.0000
  C   C53       1.0  0.2687149743792931  0.9980740623468235  0.8038547605750495  1.0000
  C   C54       1.0  0.34402898361182804  0.0084158654630997  0.7981505206136461  1.0000
  C   C55       1.0  0.3506918757512807  0.010238958923757502  0.7255763461268643  1.0000
  C   C56       1.0  0.2784966114271015  0.0010300109798961992  0.658672450573988  1.0000
  I   I1        1.0  0.34809602038568244  0.4682625400047796  0.6975605428475191  1.0000
  I   I2        1.0  0.092803211418918  0.9805028201796943  0.7609874194515669  1.0000
  I   I3        1.0  0.2843332913745087  0.0119475422900166  0.5514116065249012  1.0000
  I   I4        1.0  0.7041000276070123  0.9063088885420498  0.47194378559918704  1.0000
  I   I5        1.0  0.6682873412496875  0.7797197202577947  0.7324905750185239  1.0000
  I   I6        1.0  0.3400010313665972  0.2652777430739448  0.7290274897689315  1.0000
  I   I7        1.0  0.26300099848302244  0.5785729611579383  0.5534270424760521  1.0000
  I   I8        1.0  0.4469155896119902  0.2050573507116411  0.40245353403150125  1.0000
  I   I9        1.0  0.19817935397330189  0.05740763291084509  0.3658007473528073  1.0000
  I   I10       1.0  0.18471232592366246  0.2500338822443737  0.33113057860077794  1.0000
  O   O1        1.0  0.08566333944347795  0.9181222337407318  0.5152646622582893  1.0000
  O   O2        1.0  0.531293412998899  0.9383082834668456  0.9134620601339947  1.0000
  O   O3        1.0  0.3893109300812512  0.9723143847417004  0.9072858248291664  1.0000
  O   O4        1.0  0.1013538275715788  0.03655761212354489  0.6204905019628058  1.0000
  O   O5        1.0  0.4955050759588601  0.0746701636778582  0.905371698322611  1.0000
  O   O6        1.0  0.4157792324414657  0.011277704419093497  0.08019545445415588  1.0000
  O   O7        1.0  0.5220009550580185  0.1199892374046954  0.08391898917426485  1.0000
  O   O8        1.0  0.5614166321948629  0.970359320307594  0.09169498805589175  1.0000
  O   O9        1.0  0.6662611545901028  0.0778651520827438  0.09302340149503852  1.0000
  O   O10       1.0  0.09029123721140309  0.0576628366549699  0.4740621604452002  1.0000
  O   O11       1.0  0.09677265348959452  0.1679427067728483  0.5806355174723805  1.0000
  O   O12       1.0  0.5168963426302752  0.5847259617388186  0.6116844036221423  1.0000
  O   O13       1.0  0.9114835269788912  0.9298271571199592  0.33985557075237693  1.0000
  O   O14       1.0  0.9147392126238785  0.035559131699308494  0.4481039877759444  1.0000
  O   O15       1.0  0.9054604175403611  0.8766938556054454  0.46856356210936667  1.0000
  O   O16       1.0  0.9218006448386122  0.9842396254273708  0.5859402447295567  1.0000
  O   O17       1.0  0.4169212140906425  0.5900944548925581  0.5072369190146945  1.0000
  O   O18       1.0  0.534689735995812  0.7238240580358237  0.4067945996361928  1.0000
  O   O19       1.0  0.9505485289094509  0.7276761710590233  0.58868144539165  1.0000
  O   O20       1.0  0.7983444725046168  0.2245646041699914  0.37838791961396373  1.0000
  O   O21       1.0  0.6593993316704642  0.8795724529590315  0.9556034356068466  1.0000
  O   O22       1.0  0.45470158242299874  0.30077640980096026  0.06547131468988711  1.0000
  O   O23       1.0  0.380702010930861  0.41390400427919616  0.47906429089068336  1.0000
  O   O24       1.0  0.45715906400425144  0.03541518551703148  0.6761338727959796  1.0000
  O   O25       1.0  0.4858753281598425  0.4103795154330213  0.5806049246947537  1.0000
  O   O26       1.0  0.4105780841742187  0.4021350480901304  0.3320929850509912  1.0000
  O   O27       1.0  0.5189437001043443  0.40313987233080434  0.43490697236272513  1.0000
  O   O28       1.0  0.5538095436129564  0.5872622391918723  0.4678258615971415  1.0000
  O   O29       1.0  0.6586636271463675  0.5870189074292398  0.5728973985493441  1.0000
  O   O30       1.0  0.4217285436144921  0.8324841874842477  0.9088737441238804  1.0000
