data_image0
_chemical_formula_structural       Gd2H32C32N20Cl2O12
_chemical_formula_sum              "Gd2 H32 C32 N20 Cl2 O12"
_cell_length_a       8.873560897625685
_cell_length_b       10.93714311021331
_cell_length_c       12.878485530966547
_cell_angle_alpha    115.12919376118452
_cell_angle_beta     106.11802852867042
_cell_angle_gamma    89.98768249620302

_space_group_name_H-M_alt    "P 1"
_space_group_IT_number       1

loop_
  _space_group_symop_operation_xyz
  'x, y, z'

loop_
  _atom_site_type_symbol
  _atom_site_label
  _atom_site_symmetry_multiplicity
  _atom_site_fract_x
  _atom_site_fract_y
  _atom_site_fract_z
  _atom_site_occupancy
  Gd  Gd1       1.0  0.749955509996539  0.43945408792232854  0.0001581780593581652  1.0000
  Gd  Gd2       1.0  0.2500448886649877  0.5605464823645929  0.9998403731105083  1.0000
  H   H1        1.0  0.4824836671315679  0.2783788861881362  0.9945603467055689  1.0000
  H   H2        1.0  0.01763841006218309  0.2840192995548136  0.005572747082950971  1.0000
  H   H3        1.0  0.5175209383490154  0.7216185978613936  0.005440204067916491  1.0000
  H   H4        1.0  0.98236801496958  0.715982277140114  0.9944273148937695  1.0000
  H   H5        1.0  0.6409151656726593  0.23397928211978328  0.0642164011924393  1.0000
  H   H6        1.0  0.8593021952747291  0.1699325113619352  0.9358534765122852  1.0000
  H   H7        1.0  0.359088589666811  0.766020255140326  0.9357831856418172  1.0000
  H   H8        1.0  0.14070322026955034  0.8300700871526699  0.0641467674038266  1.0000
  H   H9        1.0  0.5258461742708674  0.7120376370349673  0.3533016469013217  1.0000
  H   H10       1.0  0.9740983132111651  0.3577856667117487  0.6464340226673855  1.0000
  H   H11       1.0  0.4741654212763819  0.2879670174882775  0.6466966379991348  1.0000
  H   H12       1.0  0.025897394878540966  0.642214913849628  0.3535636425908492  1.0000
  H   H13       1.0  0.4680535458534435  0.5379420910429077  0.3116911565614301  1.0000
  H   H14       1.0  0.03185020977659288  0.22577019463525969  0.688731963672076  1.0000
  H   H15       1.0  0.5319429875363396  0.4620635554242296  0.6883123990231393  1.0000
  H   H16       1.0  0.9681508625387492  0.7742273456794136  0.31126172548398046  1.0000
  H   H17       1.0  0.0002115341249577792  0.9411422235697556  0.619474764782076  1.0000
  H   H18       1.0  0.501594379844768  0.32035625427266007  0.38019922395747574  1.0000
  H   H19       1.0  0.9997915589879864  0.05886030724311551  0.3805343319537683  1.0000
  H   H20       1.0  0.49839780269788025  0.6796443582742029  0.6197946782751769  1.0000
  H   H21       1.0  0.2409549522654828  0.09296042199307661  0.7874691863316768  1.0000
  H   H22       1.0  0.26112708829974446  0.30512493651038847  0.2124646114881016  1.0000
  H   H23       1.0  0.7590447879786166  0.9070431297067856  0.2125404240357084  1.0000
  H   H24       1.0  0.7388677944898845  0.6948705781452205  0.7875271634437977  1.0000
  H   H25       1.0  0.4043926294514648  0.003480741857451604  0.9238320435118225  1.0000
  H   H26       1.0  0.0963645104785655  0.07988900940209481  0.07623210856197458  1.0000
  H   H27       1.0  0.5956099722905391  0.9965187372721331  0.07617506832415437  1.0000
  H   H28       1.0  0.9036315487631084  0.9201064905450663  0.9237614371437598  1.0000
  H   H29       1.0  0.1226909527429285  0.6280435877770217  0.7366319782394299  1.0000
  H   H30       1.0  0.37664189796719677  0.8904971974283739  0.2630857997992279  1.0000
  H   H31       1.0  0.877311637571779  0.3719559277720421  0.26337048570876925  1.0000
  H   H32       1.0  0.6233516375148012  0.1095043771717243  0.7369156991603061  1.0000
  C   C1        1.0  0.6092342282505355  0.5701779625470919  0.2116011688212325  1.0000
  C   C2        1.0  0.8906841446506204  0.3585035918175663  0.7884295103352483  1.0000
  C   C3        1.0  0.39076803194414816  0.42981952663966183  0.7883989389964299  1.0000
  C   C4        1.0  0.10931741903566917  0.6414970001803938  0.21156616372068268  1.0000
  C   C5        1.0  0.5657929599886913  0.6114786014669988  0.32756728228184767  1.0000
  C   C6        1.0  0.9341117646052977  0.2833180551173625  0.6725137598634914  1.0000
  C   C7        1.0  0.4342111235662569  0.38852296822532406  0.6724338860349801  1.0000
  C   C8        1.0  0.06588579739936756  0.7166794686234965  0.3274823634506844  1.0000
  C   C9        1.0  0.9039916466384881  0.6838283850652901  0.569958998935803  1.0000
  C   C10       1.0  0.596244861874858  0.1126530225806164  0.4299948661612162  1.0000
  C   C11       1.0  0.09601227566555078  0.3161721593060561  0.43004254061168706  1.0000
  C   C12       1.0  0.4037456413355898  0.8873516296183512  0.5700056293205762  1.0000
  C   C13       1.0  0.04425494786382698  0.7723131616460108  0.6643694378097322  1.0000
  C   C14       1.0  0.45616652742700836  0.1068527488122015  0.3354774333333521  1.0000
  C   C15       1.0  0.9557474831045167  0.2276853225121585  0.3356341720170874  1.0000
  C   C16       1.0  0.5438249833663774  0.8931508876369988  0.6645221055610758  1.0000
  C   C17       1.0  0.07849727252976624  0.9051547102889187  0.679287345997082  1.0000
  C   C18       1.0  0.4227086415526313  0.2248686137719815  0.32052098188674444  1.0000
  C   C19       1.0  0.9215041565692698  0.0948447714092779  0.3207195443609834  1.0000
  C   C20       1.0  0.5772823683470634  0.7751320013435006  0.6794726988679967  1.0000
  C   C21       1.0  0.21021966971387934  0.9890775736988571  0.7720225230933123  1.0000
  C   C22       1.0  0.29113452765967907  0.21653935004067648  0.22787809266259976  1.0000
  C   C23       1.0  0.7897799054702047  0.0109249648198499  0.22798590920881165  1.0000
  C   C24       1.0  0.7088598332043148  0.7834602502577184  0.7721142998126493  1.0000
  C   C25       1.0  0.30195986192628504  0.9393187659836145  0.848613368879924  1.0000
  C   C26       1.0  0.19868535961117562  0.09054714926283938  0.15135435077888804  1.0000
  C   C27       1.0  0.6980435785295352  0.06067869635487709  0.15139005900750388  1.0000
  C   C28       1.0  0.801309853298484  0.9094503917550726  0.8486397802835411  1.0000
  C   C29       1.0  0.14416655562022376  0.7301431005419019  0.7444532859437771  1.0000
  C   C30       1.0  0.3557269702626939  0.9849229681842075  0.2553942336506977  1.0000
  C   C31       1.0  0.8558380536694584  0.2698543713678064  0.25554881412563185  1.0000
  C   C32       1.0  0.644266722661129  0.015079643876696002  0.7446053447822505  1.0000
  N   N1        1.0  0.8119854540341931  0.7205670430417114  0.48886327764949994  1.0000
  N   N2        1.0  0.6880641048798992  0.23059294890185814  0.510997174446551  1.0000
  N   N3        1.0  0.18801963900825308  0.2794335048309406  0.5111377087279294  1.0000
  N   N4        1.0  0.3119317663652765  0.7694086509105844  0.4890008942289866  1.0000
  N   N5        1.0  0.6959555904494295  0.6171087510858017  0.42721034630408644  1.0000
  N   N6        1.0  0.804066622439528  0.1890587000858872  0.5729392538991788  1.0000
  N   N7        1.0  0.30404966574847947  0.3828928160379092  0.5727910434906532  1.0000
  N   N8        1.0  0.19592774794720919  0.8109408698629467  0.42705701181588296  1.0000
  N   N9        1.0  0.712377012032043  0.5190934268947062  0.46447828441019806  1.0000
  N   N10       1.0  0.7878367602150786  0.053828405583125495  0.5359100492866771  1.0000
  N   N11       1.0  0.28762606393997453  0.48090915854738386  0.5355238404939868  1.0000
  N   N12       1.0  0.21215542994576703  0.94617218268408  0.4640869515378227  1.0000
  N   N13       1.0  0.8443998115420186  0.5603642077820723  0.5554124232959551  1.0000
  N   N14       1.0  0.655938931367295  0.003925316322863601  0.4448509047030169  1.0000
  N   N15       1.0  0.15560309936998348  0.43963736447886964  0.44458852354296136  1.0000
  N   N16       1.0  0.34405241627062105  0.996077300875271  0.555148230774108  1.0000
  N   N17       1.0  0.26964600312823706  0.812544313021533  0.835030529173437  1.0000
  N   N18       1.0  0.23033777796641883  0.9772318233374263  0.16492327148357327  1.0000
  N   N19       1.0  0.7303574373275836  0.18745314931695842  0.16497289871399087  1.0000
  N   N20       1.0  0.7696591065753395  0.022768742515509602  0.8350761645484963  1.0000
  Cl  Cl1       1.0  0.7500562887228667  0.6890797493326276  0.0002619866833413046  1.0000
  Cl  Cl2       1.0  0.2499539862623479  0.3109238399488561  0.999741870505602  1.0000
  O   O1        1.0  0.5067079512328403  0.5760489118463924  0.12358404671238075  1.0000
  O   O2        1.0  0.9933728409222905  0.45245495696119054  0.876155246947604  1.0000
  O   O3        1.0  0.4932961609722496  0.423945526589769  0.8764137445132646  1.0000
  O   O4        1.0  0.006626698075372371  0.5475476968858715  0.12383846704322106  1.0000
  O   O5        1.0  0.742404507198799  0.531139473743323  0.20662171998156242  1.0000
  O   O6        1.0  0.7575422217617458  0.3247915602414508  0.7936343765308748  1.0000
  O   O7        1.0  0.257596781681272  0.46885187565737846  0.7933790659241351  1.0000
  O   O8        1.0  0.24246691303974183  0.6752048882126473  0.20636743138490485  1.0000
  O   O9        1.0  0.5937470351058423  0.265380745100991  0.9976184907916303  1.0000
  O   O10       1.0  0.9063611701768789  0.2679340462940019  0.00244718070960906  1.0000
  O   O11       1.0  0.40625723835017163  0.7346147186561467  0.002378929203359758  1.0000
  O   O12       1.0  0.09364525485489134  0.7320675304009255  0.9975528812671184  1.0000
