data_image0
_chemical_formula_structural       Zn2H12C22N4O8
_chemical_formula_sum              "Zn2 H12 C22 N4 O8"
_cell_length_a       7.4100865189249845
_cell_length_b       9.160437047520944
_cell_length_c       17.329834303211285
_cell_angle_alpha    96.25975796686653
_cell_angle_beta     81.39846522539973
_cell_angle_gamma    99.987801810905

_space_group_name_H-M_alt    "P 1"
_space_group_IT_number       1

loop_
  _space_group_symop_operation_xyz
  'x, y, z'

loop_
  _atom_site_type_symbol
  _atom_site_label
  _atom_site_symmetry_multiplicity
  _atom_site_fract_x
  _atom_site_fract_y
  _atom_site_fract_z
  _atom_site_occupancy
  Zn  Zn1       1.0  0.6885696006994307  0.5515749301054953  0.4998736135509674  1.0000
  Zn  Zn2       1.0  0.310170713972461  0.442873518503511  0.5109763125099533  1.0000
  H   H1        1.0  0.2651361975029189  0.3134298500167318  0.2715216240268461  1.0000
  H   H2        1.0  0.7082581375625734  0.04039141985150959  0.5060699753539666  1.0000
  H   H3        1.0  0.9165551207551629  0.3508795798008252  0.5115036505578843  1.0000
  H   H4        1.0  0.08189373364098167  0.6440664317330516  0.49963139039920895  1.0000
  H   H5        1.0  0.7606880764122792  0.5625614982375922  0.7418353875807925  1.0000
  H   H6        1.0  0.17988735749889165  0.3915483715104244  0.7553550972271597  1.0000
  H   H7        1.0  0.8432179545934915  0.49736701341282  0.24635260566496708  1.0000
  H   H8        1.0  0.861432763408061  0.4530607647270486  0.1020656244941733  1.0000
  H   H9        1.0  0.169464658832581  0.3474061579688552  0.8947624845123131  1.0000
  H   H10       1.0  0.7548722901729262  0.5180214883819048  0.8811302361549808  1.0000
  H   H11       1.0  0.2795458620020312  0.26707001484531656  0.1268729847316337  1.0000
  H   H12       1.0  0.28796530362993883  0.9517653890957548  0.5049832400782748  1.0000
  C   C1        1.0  0.4675801360902412  0.7818567077981272  0.5027097960747113  1.0000
  C   C2        1.0  0.6328437993694394  0.5137522229149809  0.7757624466408188  1.0000
  C   C3        1.0  0.40243129405526196  0.3202939212830173  0.152644034766773  1.0000
  C   C4        1.0  0.629247401373263  0.4874681665306683  0.8535474028839547  1.0000
  C   C5        1.0  0.569087415080098  0.3640075149292414  0.10442521658256251  1.0000
  C   C6        1.0  0.4622823097107159  0.42778709113999014  0.8972674547647445  1.0000
  C   C7        1.0  0.7299183302779894  0.42213868369809393  0.1386511768751078  1.0000
  C   C8        1.0  0.29979460542183034  0.3942228670111092  0.8615557446048214  1.0000
  C   C9        1.0  0.7203652477487096  0.44750732327533166  0.21966235390978994  1.0000
  C   C10       1.0  0.3048776157651004  0.4189738979754766  0.783496500931527  1.0000
  C   C11       1.0  0.5775834911874539  0.3598720181023935  0.018296952974282014  1.0000
  C   C12       1.0  0.5278081195309028  0.20962033893912493  0.5082005312550137  1.0000
  C   C13       1.0  0.4511138250378863  0.41136117823783275  0.9819281221123646  1.0000
  C   C14       1.0  0.29714944370618923  0.46634740053379176  0.028271817862688006  1.0000
  C   C15       1.0  0.7321013277327992  0.3047569243776849  0.972769000362014  1.0000
  C   C16       1.0  0.43096850081115434  0.9365932066580315  0.5044174827557342  1.0000
  C   C17       1.0  0.5651862861977504  0.05500825455226993  0.5063829116225024  1.0000
  C   C18       1.0  0.5368873405475867  0.44929258766759256  0.354268814130144  1.0000
  C   C19       1.0  0.47613648804610886  0.5062574196910958  0.6560681565266934  1.0000
  C   C20       1.0  0.5514465884509505  0.4127364192235916  0.2675551345022599  1.0000
  C   C21       1.0  0.4708819183427266  0.4801483903920812  0.740184572661768  1.0000
  C   C22       1.0  0.39406528602948737  0.3449258228813079  0.2335601773495668  1.0000
  N   N1        1.0  0.028155048840815794  0.4394323558311513  0.5092564643758379  1.0000
  N   N2        1.0  0.9702346583062678  0.5555222012826065  0.5016692529617189  1.0000
  N   N3        1.0  0.1709651227577069  0.5175086092193909  0.062161236725970105  1.0000
  N   N4        1.0  0.8590207562288014  0.2548807469373174  0.9386280370223617  1.0000
  O   O1        1.0  0.634107540947973  0.7603251692611437  0.49773207505769074  1.0000
  O   O2        1.0  0.36149184723020517  0.22999007716577324  0.5110611007192674  1.0000
  O   O3        1.0  0.3256386240772144  0.6794465082308677  0.5068462043612953  1.0000
  O   O4        1.0  0.669167684230679  0.31265893262482797  0.5063262892424093  1.0000
  O   O5        1.0  0.6855960244720904  0.501591261257957  0.3833612431123825  1.0000
  O   O6        1.0  0.32423657689955826  0.47296367102936904  0.6270264414460556  1.0000
  O   O7        1.0  0.37541088602259265  0.42676169719020157  0.3929460357154469  1.0000
  O   O8        1.0  0.6322552256203124  0.55726759168099  0.6189054076244391  1.0000
