data_image0
_chemical_formula_structural       Zn2H38C50Br2N8O8
_chemical_formula_sum              "Zn2 H38 C50 Br2 N8 O8"
_cell_length_a       9.539724250224346
_cell_length_b       10.31101195398178
_cell_length_c       13.676869564925022
_cell_angle_alpha    73.37531539898337
_cell_angle_beta     79.56334689882249
_cell_angle_gamma    65.69649566321426

_space_group_name_H-M_alt    "P 1"
_space_group_IT_number       1

loop_
  _space_group_symop_operation_xyz
  'x, y, z'

loop_
  _atom_site_type_symbol
  _atom_site_label
  _atom_site_symmetry_multiplicity
  _atom_site_fract_x
  _atom_site_fract_y
  _atom_site_fract_z
  _atom_site_occupancy
  Zn  Zn1       1.0  0.8243915234685347  0.38026388119880034  0.246929487573368  1.0000
  Zn  Zn2       1.0  0.17560998542497686  0.6197343667777987  0.7530705674171256  1.0000
  H   H1        1.0  0.8660310490325855  0.8500113980791896  0.27838909680265533  1.0000
  H   H2        1.0  0.13396467396449913  0.14999346546247241  0.721608818116884  1.0000
  H   H3        1.0  0.7520422617282206  0.7895849905364827  0.008198104546721664  1.0000
  H   H4        1.0  0.24796479776113506  0.21040992541550455  0.9917997581337231  1.0000
  H   H5        1.0  0.8003031917834419  0.19154592606032142  0.00248767062100086  1.0000
  H   H6        1.0  0.1996901560620686  0.8084567955152622  0.9975088183660714  1.0000
  H   H7        1.0  0.46859617003404  0.565322783369524  0.2039945551056519  1.0000
  H   H8        1.0  0.5314046970581571  0.4346798334330799  0.7960039109804598  1.0000
  H   H9        1.0  0.18287036267983584  0.6344412799077475  0.2332662729593267  1.0000
  H   H10       1.0  0.8171322250538536  0.36556240230127923  0.7667324729331211  1.0000
  H   H11       1.0  0.0646759314079758  0.5411566718455775  0.39783909984165416  1.0000
  H   H12       1.0  0.9353240765972329  0.45884813737394836  0.602158273921468  1.0000
  H   H13       1.0  0.22501207985213498  0.38105344454388773  0.5467008125279377  1.0000
  H   H14       1.0  0.7749877108674212  0.6189491882665551  0.4532970578165844  1.0000
  H   H15       1.0  0.8031487212088634  0.2348503674012008  0.4914914372883316  1.0000
  H   H16       1.0  0.19685258310774847  0.7651511495519686  0.5085086715053109  1.0000
  H   H17       1.0  0.46802770966857576  0.2941901109676763  0.6666579252210596  1.0000
  H   H18       1.0  0.5319712143758436  0.7058092664467351  0.3333400266094202  1.0000
  H   H19       1.0  0.6625594736748398  0.17357488126306464  0.6521049787382863  1.0000
  H   H20       1.0  0.33743817454064357  0.8264277787084497  0.34789316218444793  1.0000
  H   H21       1.0  0.4638625089185666  0.0549351132101705  0.721300333231852  1.0000
  H   H22       1.0  0.5361396340025665  0.9450642210353237  0.2786979437620117  1.0000
  H   H23       1.0  0.382430494761735  0.1334252467451336  0.6031264204461664  1.0000
  H   H24       1.0  0.6175720751425828  0.8665729925055601  0.3968720371938375  1.0000
  H   H25       1.0  0.5427621271854263  0.8970947490679823  0.5840980032799122  1.0000
  H   H26       1.0  0.45723980357065847  0.10290240634112284  0.41590150132604  1.0000
  H   H27       1.0  0.6673248458417759  0.9907176968702135  0.5259984513837281  1.0000
  H   H28       1.0  0.3326798743403003  0.0092750601245157  0.4740031025790968  1.0000
  H   H29       1.0  0.9299495648285332  0.8710626201145646  0.5896365597800395  1.0000
  H   H30       1.0  0.07005278532258788  0.12892799248677284  0.4103642992810066  1.0000
  H   H31       1.0  0.4420743435164168  0.8261500146186621  0.7844806268914155  1.0000
  H   H32       1.0  0.5579220417644493  0.17385047038774104  0.21552180105527435  1.0000
  H   H33       1.0  0.46285150878516385  0.6414011967078893  0.9489233865586895  1.0000
  H   H34       1.0  0.5371431890454232  0.3586036585684838  0.051081242926180374  1.0000
  H   H35       1.0  0.718487558098616  0.47814851740076136  0.01738961194872245  1.0000
  H   H36       1.0  0.28150629865991306  0.5218530703430063  0.9826187541755687  1.0000
  H   H37       1.0  0.9604815429516833  0.4967161980978291  0.9224650111103683  1.0000
  H   H38       1.0  0.039512497901291986  0.5032821303786221  0.07754037708800605  1.0000
  C   C1        1.0  0.8442695230938  0.12846509194854153  0.20665872077312028  1.0000
  C   C2        1.0  0.15572663200708792  0.8715386741709993  0.7933401058232616  1.0000
  C   C3        1.0  0.833937867792926  0.03086450144227371  0.14685460089912536  1.0000
  C   C4        1.0  0.16605828730795485  0.96913926467726  0.8531442256972567  1.0000
  C   C5        1.0  0.8410020802999439  0.8905576357014977  0.19821069694817342  1.0000
  C   C6        1.0  0.1589979225846605  0.10944717594534131  0.8017859457842602  1.0000
  C   C7        1.0  0.8112157315723961  0.8039599695212162  0.1490203898605671  1.0000
  C   C8        1.0  0.18878535033793753  0.19603937345019062  0.8509794844837798  1.0000
  C   C9        1.0  0.7773771203929839  0.856304198234021  0.04602494332584679  1.0000
  C   C10       1.0  0.22262480524248224  0.1436929596023973  0.9539738302494098  1.0000
  C   C11       1.0  0.7762092726289181  0.9945252464139078  0.9949280633439982  1.0000
  C   C12       1.0  0.2237915715132814  0.005471929857669999  0.005069383458980792  1.0000
  C   C13       1.0  0.8039005893301264  0.0828814763022976  0.04314230513277547  1.0000
  C   C14       1.0  0.196096419737124  0.9171200998276348  0.9568568827559004  1.0000
  C   C15       1.0  0.8124974901213521  0.6568555042176172  0.20922490367315305  1.0000
  C   C16       1.0  0.18750938015293875  0.34314267342900007  0.7907752059025127  1.0000
  C   C17       1.0  0.5065547729632199  0.42945797951320247  0.3584494460294606  1.0000
  C   C18       1.0  0.4934441715636594  0.5705413881919555  0.641551429923794  1.0000
  C   C19       1.0  0.4161362862117812  0.5237808890700321  0.27731357612388763  1.0000
  C   C20       1.0  0.5838660739950186  0.47622062158453826  0.7226842042885693  1.0000
  C   C21       1.0  0.25737911567395594  0.5620656878552951  0.29460811664063863  1.0000
  C   C22       1.0  0.7426181157995728  0.43793806225639303  0.7053913056973327  1.0000
  C   C23       1.0  0.18955446646508986  0.5088941112404584  0.38971191072332795  1.0000
  C   C24       1.0  0.8104472519403882  0.4911117682401169  0.6102842807847465  1.0000
  C   C25       1.0  0.2777917029757759  0.4164098090079308  0.4717233840246421  1.0000
  C   C26       1.0  0.7222085198475767  0.5835917263803978  0.5282753979967224  1.0000
  C   C27       1.0  0.4373594120190917  0.377638064437683  0.45391655052569746  1.0000
  C   C28       1.0  0.5626433802915045  0.6223623487947734  0.5460821415636019  1.0000
  C   C29       1.0  0.6911910348477333  0.292619946795533  0.4600022685530901  1.0000
  C   C30       1.0  0.30881240173171426  0.7073815478511917  0.5399961076009561  1.0000
  C   C31       1.0  0.5478224815732559  0.2141073323959688  0.6237698595851454  1.0000
  C   C32       1.0  0.4521775137231927  0.7858920314379038  0.376227956956235  1.0000
  C   C33       1.0  0.4917293038760916  0.09024018384691601  0.6390727417379339  1.0000
  C   C34       1.0  0.5082736878907921  0.9097569628362836  0.3609251655175284  1.0000
  C   C35       1.0  0.6053376172237106  0.9577497786827182  0.598632845826799  1.0000
  C   C36       1.0  0.39466412431731607  0.0422506384210237  0.4013689056743743  1.0000
  C   C37       1.0  0.8756721858736326  0.8161788755950994  0.6552959074513252  1.0000
  C   C38       1.0  0.1243276101520863  0.18381285188017674  0.3447072346338587  1.0000
  C   C39       1.0  0.8366007060556484  0.6732023857389464  0.8000521769712563  1.0000
  C   C40       1.0  0.1633986910574876  0.32679587483483635  0.19995253478160172  1.0000
  C   C41       1.0  0.6907648754921638  0.7652646500105363  0.7621513416477014  1.0000
  C   C42       1.0  0.3092332177214344  0.23473145501664314  0.23785180888358326  1.0000
  C   C43       1.0  0.5540452027855663  0.7561730638725382  0.8140665637683853  1.0000
  C   C44       1.0  0.4459518421259858  0.24382849526620023  0.18593774133513108  1.0000
  C   C45       1.0  0.5675023200548992  0.6514116451605076  0.906277356774602  1.0000
  C   C46       1.0  0.43249408570842  0.34858883013664155  0.0937279952948629  1.0000
  C   C47       1.0  0.7121339694721625  0.5587031882583134  0.9448353303811458  1.0000
  C   C48       1.0  0.28786415181203756  0.44129835487257213  0.05516957046396692  1.0000
  C   C49       1.0  0.8486057325784058  0.5680143962044895  0.8926752253406249  1.0000
  C   C50       1.0  0.15138895254342086  0.43198501368623  0.10732984692250365  1.0000
  Br  Br1       1.0  0.7300261251411727  0.0680930384940837  0.8547886200549825  1.0000
  Br  Br2       1.0  0.2699783546196953  0.9319030044684031  0.14520787049613645  1.0000
  N   N1        1.0  0.6656788783391151  0.37348949472614384  0.36532443350198207  1.0000
  N   N2        1.0  0.3343198411283979  0.6265131516648311  0.6346735721316462  1.0000
  N   N3        1.0  0.5590765979199972  0.29067506789481007  0.5166270257539622  1.0000
  N   N4        1.0  0.44092662137378363  0.7093242503428457  0.48337184698149116  1.0000
  N   N5        1.0  0.7202692280162492  0.8544471426083079  0.6698500224209667  1.0000
  N   N6        1.0  0.2797329226785834  0.1455467365422862  0.3301516214739165  1.0000
  N   N7        1.0  0.9492794501863672  0.7086580334059108  0.7307991768384949  1.0000
  N   N8        1.0  0.050720990108196376  0.2913347754836337  0.2692036493114358  1.0000
  O   O1        1.0  0.8144775743871334  0.2636762779644428  0.15645927721895703  1.0000
  O   O2        1.0  0.18552112971853782  0.7363263757084725  0.8435365353225917  1.0000
  O   O3        1.0  0.871692196546114  0.07907599212590811  0.2992167563928803  1.0000
  O   O4        1.0  0.12830329380346223  0.9209267022886111  0.70077946201598  1.0000
  O   O5        1.0  0.8459427721443973  0.6123399357885404  0.30065862926289816  1.0000
  O   O6        1.0  0.15406495968441183  0.3876614996814355  0.6993406677961218  1.0000
  O   O7        1.0  0.7783478277059926  0.5827308717569792  0.1613604913378666  1.0000
  O   O8        1.0  0.22165113730334707  0.41726848623892476  0.838643308738149  1.0000
