data_image0
_chemical_formula_structural       Zn12H96C144I24N48
_chemical_formula_sum              "Zn12 H96 C144 I24 N48"
_cell_length_a       14.936052373978558
_cell_length_b       18.529229241564504
_cell_length_c       32.86323004513355
_cell_angle_alpha    103.25561256009841
_cell_angle_beta     93.12452299009335
_cell_angle_gamma    109.05852826717252

_space_group_name_H-M_alt    "P 1"
_space_group_IT_number       1

loop_
  _space_group_symop_operation_xyz
  'x, y, z'

loop_
  _atom_site_type_symbol
  _atom_site_label
  _atom_site_symmetry_multiplicity
  _atom_site_fract_x
  _atom_site_fract_y
  _atom_site_fract_z
  _atom_site_occupancy
  Zn  Zn1       1.0  0.20514516877270952  0.7346376315879938  0.06432031634665239  1.0000
  Zn  Zn2       1.0  0.6686723700503663  0.16493046288660912  0.22342215768613014  1.0000
  Zn  Zn3       1.0  0.2964734107657847  0.3315736389017588  0.8990210541876349  1.0000
  Zn  Zn4       1.0  0.9673621369200873  0.14408494897492832  0.7312450915932301  1.0000
  Zn  Zn5       1.0  0.48569334691814  0.22904979844663131  0.4281961373584479  1.0000
  Zn  Zn6       1.0  0.0401534988625088  0.7389509139425814  0.5506169083886903  1.0000
  Zn  Zn7       1.0  0.7948564781726972  0.26536388965404006  0.9356801328283665  1.0000
  Zn  Zn8       1.0  0.33132843528994027  0.8350722420835625  0.776578119810331  1.0000
  Zn  Zn9       1.0  0.703527644122616  0.6684296578620915  0.10097900179641775  1.0000
  Zn  Zn10      1.0  0.03263699876349345  0.8559153898311892  0.2687545341171925  1.0000
  Zn  Zn11      1.0  0.5143086417262097  0.7709493561637403  0.5718037094226247  1.0000
  Zn  Zn12      1.0  0.9598479898756835  0.2610470577642658  0.4493821643198855  1.0000
  H   H1        1.0  0.32905663927620316  0.87187205528668  0.13606581164986406  1.0000
  H   H2        1.0  0.3114865325794583  0.9872885686640985  0.18786752702481374  1.0000
  H   H3        1.0  0.01783484814553312  0.909852678701256  0.12934412362178446  1.0000
  H   H4        1.0  0.0477019358857476  0.7997052711391318  0.07942238100949334  1.0000
  H   H5        1.0  0.2828800161623519  0.22062208044068402  0.40144944767119023  1.0000
  H   H6        1.0  0.16904329858451922  0.17565939346512494  0.3350875150619785  1.0000
  H   H7        1.0  0.39546848123099215  0.13449073783362311  0.2670592594822523  1.0000
  H   H8        1.0  0.5032602963078575  0.18711606451646656  0.3361019679396832  1.0000
  H   H9        1.0  0.7412467172073534  0.04457440582591941  0.16887056086557808  1.0000
  H   H10       1.0  0.8951471034370755  0.0163289944264449  0.16490275637324456  1.0000
  H   H11       1.0  0.020768036428357624  0.2125492255154597  0.2748418092982305  1.0000
  H   H12       1.0  0.8618726907548008  0.2334984984400563  0.2741499966172611  1.0000
  H   H13       1.0  0.8070282513495569  0.3179597187704743  0.21589564186341895  1.0000
  H   H14       1.0  0.8346137311848453  0.4025517698527636  0.1644196887041502  1.0000
  H   H15       1.0  0.5755473956028966  0.23474248042163745  0.08718368738179547  1.0000
  H   H16       1.0  0.561157916628197  0.15387678494716542  0.1404142530060071  1.0000
  H   H17       1.0  0.034981169992484296  0.6290452029162382  0.9994866390526764  1.0000
  H   H18       1.0  0.8769136076498402  0.5210237835990769  0.9969746259931895  1.0000
  H   H19       1.0  0.9456634874109044  0.558764863708788  0.13105966250964224  1.0000
  H   H20       1.0  0.09991507617986164  0.6647190354902789  0.12831742007094243  1.0000
  H   H21       1.0  0.34694453517320073  0.2578144831633509  0.9629293207865713  1.0000
  H   H22       1.0  0.486813025346109  0.27668173850883454  0.015959145424339707  1.0000
  H   H23       1.0  0.6398884318993935  0.48978217363560356  0.9814048026194226  1.0000
  H   H24       1.0  0.4937166855576081  0.4620909791516182  0.9292804589793988  1.0000
  H   H25       1.0  0.46783721271546613  0.30063725147866904  0.8742320214560947  1.0000
  H   H26       1.0  0.5165482441429744  0.2136632912459717  0.8173884136652558  1.0000
  H   H27       1.0  0.21655027730241017  0.08406610100745841  0.7712675280168992  1.0000
  H   H28       1.0  0.17916052868746854  0.1750704613076337  0.8318299280314463  1.0000
  H   H29       1.0  0.7897179300054588  0.023910300327550295  0.6702670320572748  1.0000
  H   H30       1.0  0.6116856589447085  0.9909579193767262  0.6639509749536074  1.0000
  H   H31       1.0  0.6591702615627854  0.172844202153108  0.7801336102414351  1.0000
  H   H32       1.0  0.8355879353628594  0.2000499233431299  0.7809140122386893  1.0000
  H   H33       1.0  0.046473547801724586  0.848984016779866  0.6340363570543983  1.0000
  H   H34       1.0  0.16992473906381642  0.9492869004965955  0.6927661649502211  1.0000
  H   H35       1.0  0.3867735668652303  0.8918039949299442  0.6239539536037453  1.0000
  H   H36       1.0  0.25581536312972747  0.7956817985250099  0.5678647234786495  1.0000
  H   H37       1.0  0.08081360731266332  0.1305112273044458  0.6605967598411053  1.0000
  H   H38       1.0  0.1543218533006225  0.20942747499117334  0.6101830450958942  1.0000
  H   H39       1.0  0.006208434819591015  0.3688937264553473  0.6569034784188047  1.0000
  H   H40       1.0  0.9421849487032715  0.2860965170382457  0.7069518911883108  1.0000
  H   H41       1.0  0.4597547854553383  0.3859496818770581  0.46011687881889424  1.0000
  H   H42       1.0  0.3510141565976214  0.43964206692951546  0.5046368425201777  1.0000
  H   H43       1.0  0.24070516012935883  0.21360524280056842  0.533008600190321  1.0000
  H   H44       1.0  0.35028499394941554  0.16777938496878866  0.4857868039916226  1.0000
  H   H45       1.0  0.021761998539524582  0.6444213851474956  0.6123287250524141  1.0000
  H   H46       1.0  0.063118584446734  0.5283002577677253  0.6237238038792865  1.0000
  H   H47       1.0  0.15781483200127877  0.5029325550344556  0.5013677743690579  1.0000
  H   H48       1.0  0.11419303647502943  0.6214998005109394  0.49518979499602267  1.0000
  H   H49       1.0  0.6709446801312139  0.1281270984538168  0.8639358443131469  1.0000
  H   H50       1.0  0.6885109352698323  0.012709402439341502  0.8121341853685278  1.0000
  H   H51       1.0  0.982164629439481  0.09014529330223552  0.8706552039690221  1.0000
  H   H52       1.0  0.9523001305459998  0.2002956593500613  0.9205761762216651  1.0000
  H   H53       1.0  0.7171263381072351  0.7793747055770696  0.5985517211461014  1.0000
  H   H54       1.0  0.8309571939862221  0.8243362093574333  0.6649154864395184  1.0000
  H   H55       1.0  0.6045294842970392  0.8655084180538709  0.7329398799659756  1.0000
  H   H56       1.0  0.4967421116203354  0.8128824995120143  0.6638956826232061  1.0000
  H   H57       1.0  0.258755242710116  0.955434217392778  0.8311274685787352  1.0000
  H   H58       1.0  0.10485293768055472  0.9836766704925991  0.8350954513460918  1.0000
  H   H59       1.0  0.9792323623715974  0.7874493371000996  0.725159138890177  1.0000
  H   H60       1.0  0.13812937790437743  0.7665024301686005  0.725851907631508  1.0000
  H   H61       1.0  0.192971975487211  0.6820400281011842  0.7841039340131458  1.0000
  H   H62       1.0  0.16538590420240243  0.5974497520278348  0.8355804068044463  1.0000
  H   H63       1.0  0.4244561822783623  0.7652572666964161  0.9128141451689656  1.0000
  H   H64       1.0  0.4388462531075704  0.8461211868200281  0.8595836684613829  1.0000
  H   H65       1.0  0.9650218176542112  0.3709563181850157  0.0005135387760760008  1.0000
  H   H66       1.0  0.12308955054258065  0.47897655444278087  0.0030247942270946837  1.0000
  H   H67       1.0  0.054338579830819425  0.4412360660965716  0.8689401118188298  1.0000
  H   H68       1.0  0.9000856501580827  0.3352818946268171  0.8716823213294658  1.0000
  H   H69       1.0  0.6530571117722133  0.7421870380786828  0.037071128388440365  1.0000
  H   H70       1.0  0.5131885298534442  0.7233227408166344  0.984042293180863  1.0000
  H   H71       1.0  0.3601136347348515  0.510218756682626  0.018594058886066005  1.0000
  H   H72       1.0  0.5062850523236904  0.5379075846908137  0.07071778366811542  1.0000
  H   H73       1.0  0.5321614238719262  0.6993619037400904  0.12576804727914487  1.0000
  H   H74       1.0  0.4834467898269069  0.7863352736422726  0.18261057716492246  1.0000
  H   H75       1.0  0.7834444161834926  0.9159348294867159  0.22873389085318505  1.0000
  H   H76       1.0  0.8208364259046875  0.8249310603416546  0.16817162299266636  1.0000
  H   H77       1.0  0.2102812852879623  0.9760918128187653  0.3297340425721841  1.0000
  H   H78       1.0  0.38831330659812824  0.009043602146867601  0.336050016913937  1.0000
  H   H79       1.0  0.3408272850863769  0.8271555439743707  0.21986833397363628  1.0000
  H   H80       1.0  0.1644101103824909  0.7999510063717069  0.21908748895155838  1.0000
  H   H81       1.0  0.9535256796277167  0.1510133639428162  0.3659622792258332  1.0000
  H   H82       1.0  0.8300741464641915  0.050712847028712794  0.3072327694496265  1.0000
  H   H83       1.0  0.6132255688183507  0.1081963438761733  0.37604567210668444  1.0000
  H   H84       1.0  0.7441846139564634  0.20431735672392654  0.43213476963600067  1.0000
  H   H85       1.0  0.9191841086672669  0.8694873367893691  0.3394026011195307  1.0000
  H   H86       1.0  0.8456765331311974  0.7905710889467772  0.38981633232877033  1.0000
  H   H87       1.0  0.9937883611603625  0.6311042460006603  0.3430960875902045  1.0000
  H   H88       1.0  0.057811176419797126  0.713901455915547  0.2930470498080097  1.0000
  H   H89       1.0  0.5402442710233899  0.6140488822469338  0.5398819065211454  1.0000
  H   H90       1.0  0.6489863195847505  0.5603582719067788  0.4953622075696557  1.0000
  H   H91       1.0  0.7592944752578888  0.7863962790800302  0.46699149531826817  1.0000
  H   H92       1.0  0.6497145632454462  0.8322203613749083  0.5142139725182274  1.0000
  H   H93       1.0  0.9782359673934878  0.35557777039808514  0.38767102294446687  1.0000
  H   H94       1.0  0.9368805518443255  0.4717000805255225  0.37627673465411954  1.0000
  H   H95       1.0  0.842182135334376  0.49706423367832997  0.49863225112880366  1.0000
  H   H96       1.0  0.8858057710630831  0.3784981713065108  0.5048101246794161  1.0000
  C   C1        1.0  0.26188801678266327  0.8833593730536293  0.13555458264679027  1.0000
  C   C2        1.0  0.2516189095274087  0.9468729848232442  0.16422447016159936  1.0000
  C   C3        1.0  0.16296544882724365  0.9576798615801393  0.16252328554287482  1.0000
  C   C4        1.0  0.08824946047456472  0.9045330753517649  0.1314368581746876  1.0000
  C   C5        1.0  0.10468717550266865  0.8427714602756922  0.10369934906966448  1.0000
  C   C6        1.0  0.1492295291515262  0.0223477818965137  0.19446242145796325  1.0000
  C   C7        1.0  0.20428456672888023  0.11660383788925799  0.256648671974105  1.0000
  C   C8        1.0  0.0606298712475066  0.0961799912281265  0.22076298305880465  1.0000
  C   C9        1.0  0.3060394874907644  0.2026279314308894  0.37105673238387726  1.0000
  C   C10       1.0  0.24246432473696444  0.17754515815393998  0.33399724467140857  1.0000
  C   C11       1.0  0.2737256710367789  0.1518180244026794  0.2957843504182662  1.0000
  C   C12       1.0  0.3686330028145406  0.15448409118680928  0.2961331349807068  1.0000
  C   C13       1.0  0.42837478862476536  0.18262380860409883  0.3345090910586066  1.0000
  C   C14       1.0  0.8057153677154432  0.08103996777552422  0.19119469077124046  1.0000
  C   C15       1.0  0.8906250905153286  0.06549450568681443  0.1891946870125025  1.0000
  C   C16       1.0  0.9700595299688503  0.11308558103892352  0.21952576116726868  1.0000
  C   C17       1.0  0.9607347247266633  0.1751728126883876  0.2505147189715302  1.0000
  C   C18       1.0  0.8736426037913533  0.18700401553628856  0.25021970276038985  1.0000
  C   C19       1.0  0.7585991214309901  0.3010794896493181  0.18651218411588388  1.0000
  C   C20       1.0  0.7731239726386507  0.3480785404542601  0.1583746637203092  1.0000
  C   C21       1.0  0.7065878424145495  0.3245641433514733  0.12191958286964416  1.0000
  C   C22       1.0  0.6283267665704387  0.2542550931681404  0.1152218349575449  1.0000
  C   C23       1.0  0.6199462450349814  0.20981919598679613  0.14447287165980774  1.0000
  C   C24       1.0  0.718065150408556  0.37247320342158463  0.09086514580582158  1.0000
  C   C25       1.0  0.8095703155395882  0.4679574453591897  0.06342687164637789  1.0000
  C   C26       1.0  0.655889040383407  0.3988948123047892  0.0340346218129284  1.0000
  C   C27       1.0  0.011987763553975126  0.6106254632423999  0.02762996226140758  1.0000
  C   C28       1.0  0.9255054973774149  0.5512433488856344  0.026391294858505884  1.0000
  C   C29       1.0  0.901315258221054  0.5306794544351947  0.06374708048807778  1.0000
  C   C30       1.0  0.9640104501637767  0.571828031807968  0.10130856377222133  1.0000
  C   C31       1.0  0.048660362337216205  0.6309475061501288  0.09994832710487596  1.0000
  C   C32       1.0  0.41370539970937864  0.30796102218553045  0.9679858267751269  1.0000
  C   C33       1.0  0.490324790274002  0.3188728789074559  0.9973661052157466  1.0000
  C   C34       1.0  0.573267002715319  0.38518059617067735  0.002698134005761689  1.0000
  C   C35       1.0  0.5759910208566981  0.43799972488435673  0.9780258865863157  1.0000
  C   C36       1.0  0.49598734613721257  0.42300885852547054  0.9493678345914629  1.0000
  C   C37       1.0  0.4140187536455571  0.2516867860350089  0.851139796787322  1.0000
  C   C38       1.0  0.44114827096753123  0.20354371485272793  0.8192040178764087  1.0000
  C   C39       1.0  0.37016459099150006  0.1422567429746309  0.7895416741996684  1.0000
  C   C40       1.0  0.2739957495656995  0.13058401519253238  0.7939558775601725  1.0000
  C   C41       1.0  0.2528546774611939  0.1809486318542355  0.8273925393617602  1.0000
  C   C42       1.0  0.39889654178826833  0.09237242674937113  0.7545223207513487  1.0000
  C   C43       1.0  0.5172370530628428  0.06262539754969511  0.7219458386026432  1.0000
  C   C44       1.0  0.362226703150462  0.989310307928086  0.6962087608576011  1.0000
  C   C45       1.0  0.7575109164841507  0.055888646876482505  0.6936685957858728  1.0000
  C   C46       1.0  0.6587561740961688  0.03709395660516181  0.6906166596127219  1.0000
  C   C47       1.0  0.6215393740426622  0.0793542360471804  0.7220406669621011  1.0000
  C   C48       1.0  0.6855911108217682  0.13911121391723213  0.755092426414457  1.0000
  C   C49       1.0  0.7828920459523872  0.15447265211791014  0.7556754310521612  1.0000
  C   C50       1.0  0.1228520814296985  0.8604855601772742  0.6334270407609138  1.0000
  C   C51       1.0  0.19122367478346566  0.9153625760527364  0.6658781492044169  1.0000
  C   C52       1.0  0.2881221382896015  0.9277869483783049  0.6630103136240209  1.0000
  C   C53       1.0  0.3123339464466  0.8835985726233916  0.6276316044705155  1.0000
  C   C54       1.0  0.23954490523387068  0.8302012418532316  0.5962317757547736  1.0000
  C   C55       1.0  0.06695791930789599  0.18408049214627198  0.6587683503644115  1.0000
  C   C56       1.0  0.10710608524138372  0.22754052482119394  0.6310431779212775  1.0000
  C   C57       1.0  0.08611966002901993  0.2954057440448921  0.6300501661223875  1.0000
  C   C58       1.0  0.024721142404743542  0.31686336491996775  0.6572220740442773  1.0000
  C   C59       1.0  0.9884216784226539  0.27068756544166217  0.6845078585101092  1.0000
  C   C60       1.0  0.12834265559998678  0.34168309720668333  0.6002441679288282  1.0000
  C   C61       1.0  0.2218262611510653  0.3566031520365414  0.5485120714788889  1.0000
  C   C62       1.0  0.1412746408589172  0.44018159471423257  0.5686076451502302  1.0000
  C   C63       1.0  0.4090342837945117  0.3500178851375964  0.47663069722471346  1.0000
  C   C64       1.0  0.3500076098302501  0.3795379423226422  0.5014711619152975  1.0000
  C   C65       1.0  0.2881807579568162  0.330037976574829  0.5222051423129983  1.0000
  C   C66       1.0  0.2885086921464862  0.2531189122850677  0.517330610259023  1.0000
  C   C67       1.0  0.34826594177565084  0.22761714393595872  0.49134396104111017  1.0000
  C   C68       1.0  0.052706297295458296  0.611394235127321  0.5888439643698717  1.0000
  C   C69       1.0  0.07461323205462382  0.5470881999837687  0.5948076426082096  1.0000
  C   C70       1.0  0.11362915107697096  0.5073105417953485  0.5631316835658707  1.0000
  C   C71       1.0  0.12761984511873684  0.5330148644368221  0.5263670488199423  1.0000
  C   C72       1.0  0.103562730597858  0.5979277139822586  0.522817781748941  1.0000
  C   C73       1.0  0.7381128819234563  0.1166403724654543  0.8644471396141141  1.0000
  C   C74       1.0  0.748379478524356  0.05312557774704631  0.8357773414576997  1.0000
  C   C75       1.0  0.837034529878892  0.042319292301137096  0.8374786417664025  1.0000
  C   C76       1.0  0.9117507671721797  0.0954666708360605  0.8685639347991978  1.0000
  C   C77       1.0  0.8953139719415688  0.157228877720904  0.8963009345815179  1.0000
  C   C78       1.0  0.850769029040983  0.9776495979562941  0.8055380240042068  1.0000
  C   C79       1.0  0.7957139918686168  0.8833935416216363  0.7433523820367254  1.0000
  C   C80       1.0  0.9393699352929444  0.9038203470802059  0.7792372676643067  1.0000
  C   C81       1.0  0.6939643559219774  0.7973676718090275  0.6289442215174786  1.0000
  C   C82       1.0  0.7575375079275873  0.8224504450407083  0.6660045726608386  1.0000
  C   C83       1.0  0.7262721383089571  0.8481775802400477  0.7042164553068061  1.0000
  C   C84       1.0  0.6313666461261748  0.8455126970734526  0.7038666520989523  1.0000
  C   C85       1.0  0.5716268710641403  0.817372979701432  0.6654898325901613  1.0000
  C   C86       1.0  0.19428735561473343  0.9189656961781268  0.808804191352884  1.0000
  C   C87       1.0  0.10937470125670502  0.9345105672675942  0.8108040464935725  1.0000
  C   C88       1.0  0.029941696072768347  0.8869165321526608  0.7804744500313062  1.0000
  C   C89       1.0  0.03926533176687753  0.8248281170717108  0.749485918787826  1.0000
  C   C90       1.0  0.12635996376151587  0.8129980968306896  0.7497814541892395  1.0000
  C   C91       1.0  0.24140160470446406  0.6989214406387346  0.8134872530102014  1.0000
  C   C92       1.0  0.22687675369929391  0.6519223896628431  0.8416250776800992  1.0000
  C   C93       1.0  0.29341447417277794  0.6754373784185219  0.8780796656720895  1.0000
  C   C94       1.0  0.371675720562614  0.7457452455424589  0.8847766559757274  1.0000
  C   C95       1.0  0.3800573334537632  0.7901805506183877  0.8555258737139366  1.0000
  C   C96       1.0  0.2819367454774664  0.6275289101270047  0.9091341690337982  1.0000
  C   C97       1.0  0.19043125220096618  0.5320423012007255  0.9365727371582578  1.0000
  C   C98       1.0  0.3441126063595021  0.6011067091082013  0.9659655230877602  1.0000
  C   C99       1.0  0.9880145536408308  0.389376058014733  0.9723701991033094  1.0000
  C   C100      1.0  0.07449791016060912  0.4487575811208587  0.9736075995750468  1.0000
  C   C101      1.0  0.09868722972197472  0.46932088359157836  0.9362526275425083  1.0000
  C   C102      1.0  0.03599161687545664  0.4281728981683557  0.8986909062819206  1.0000
  C   C103      1.0  0.9513412846081977  0.3690540150919118  0.9000521220701427  1.0000
  C   C104      1.0  0.5862955765816481  0.6920404993833388  0.03201430166152619  1.0000
  C   C105      1.0  0.5096762652218845  0.6811304173435248  0.0026348635912895827  1.0000
  C   C106      1.0  0.4267348935756915  0.6148215170359991  0.9973017893825187  1.0000
  C   C107      1.0  0.4240103757306457  0.5620012052478316  0.021973567003797687  1.0000
  C   C108      1.0  0.5040148916502434  0.5769908882205003  0.0506311821285479  1.0000
  C   C109      1.0  0.5859794618355494  0.7483129613042506  0.14885972969715056  1.0000
  C   C110      1.0  0.5588476832048245  0.7964554415023742  0.18079507217971974  1.0000
  C   C111      1.0  0.6298311926351302  0.8577435964398674  0.21045817346492868  1.0000
  C   C112      1.0  0.7259995349647357  0.8694151406346152  0.20604441312924138  1.0000
  C   C113      1.0  0.7471424478791848  0.8190517065647  0.17260855832820704  1.0000
  C   C114      1.0  0.6010979007320858  0.9076279131478273  0.2454771897108543  1.0000
  C   C115      1.0  0.4827616623244211  0.937375532693096  0.2780544619543263  1.0000
  C   C116      1.0  0.6377713409749433  0.010690623154396003  0.3037903061380263  1.0000
  C   C117      1.0  0.24248921941673984  0.9441140573947778  0.30633318661819686  1.0000
  C   C118      1.0  0.34124262090093543  0.9629087479778349  0.3093850898632907  1.0000
  C   C119      1.0  0.37845842195209667  0.9206461020449269  0.27796075146623167  1.0000
  C   C120      1.0  0.3144076053754716  0.8608897156417256  0.24490909123982615  1.0000
  C   C121      1.0  0.21710667024485283  0.8455282774410549  0.24432608660212193  1.0000
  C   C122      1.0  0.8771472245971237  0.1395135957403966  0.3665715230667175  1.0000
  C   C123      1.0  0.8087754602926297  0.0846377632662509  0.33412056368302245  1.0000
  C   C124      1.0  0.7118765760852028  0.07221398271926921  0.33698846556130485  1.0000
  C   C125      1.0  0.687666529735772  0.11640176621290271  0.372367445619318  1.0000
  C   C126      1.0  0.7604553214004142  0.16979850518938377  0.4037674958474682  1.0000
  C   C127      1.0  0.9330382058151797  0.8159174808075207  0.34123059063190897  1.0000
  C   C128      1.0  0.892890960286664  0.7724580394284927  0.36895616657532315  1.0000
  C   C129      1.0  0.9138773852965228  0.7045928203757512  0.3699488740998901  1.0000
  C   C130      1.0  0.9752749827183324  0.6831346080338178  0.3427768669520431  1.0000
  C   C131      1.0  0.011574196949830333  0.7293098158894085  0.31549099972428957  1.0000
  C   C132      1.0  0.8716559805824249  0.6583160583539893  0.39975529225775114  1.0000
  C   C133      1.0  0.7781732958412987  0.6433965944781123  0.4514884007566308  1.0000
  C   C134      1.0  0.8587235754321585  0.5598181519412008  0.4313930984315562  1.0000
  C   C135      1.0  0.590964601935994  0.6499818622167551  0.5233685414494573  1.0000
  C   C136      1.0  0.6499926170065179  0.6204618045490161  0.49852841396127445  1.0000
  C   C137      1.0  0.711819968583626  0.6699629533713107  0.4777949033617403  1.0000
  C   C138      1.0  0.7114922841445405  0.7468826092837942  0.4826695181776372  1.0000
  C   C139      1.0  0.6517354554191713  0.7723837856833599  0.5086564053719868  1.0000
  C   C140      1.0  0.9472923390894438  0.3886049202623952  0.4111558000910449  1.0000
  C   C141      1.0  0.9253851549846743  0.452910363441312  0.40519264763944557  1.0000
  C   C142      1.0  0.8863694855104215  0.49268861342340386  0.43686838516936877  1.0000
  C   C143      1.0  0.8723778714686717  0.466983699144123  0.47363322496367727  1.0000
  C   C144      1.0  0.8964360769402547  0.4020702578351846  0.47718213792649067  1.0000
  I   I1        1.0  0.32340428574624264  0.6937698375903593  0.10535111725000226  1.0000
  I   I2        1.0  0.21344571399222195  0.7621535284319165  0.9920678918819802  1.0000
  I   I3        1.0  0.529611027911898  0.0359606864965301  0.1891058655405757  1.0000
  I   I4        1.0  0.6835053264453635  0.2554660292342632  0.2965740294652547  1.0000
  I   I5        1.0  0.15609321751132654  0.27107803811183834  0.9359868576870767  1.0000
  I   I6        1.0  0.3307037983048318  0.44176492787695304  0.8616676603733422  1.0000
  I   I7        1.0  0.03778826596722954  0.24590177656798323  0.8022427190885395  1.0000
  I   I8        1.0  0.0092101349278053  0.018519126685255596  0.7065289852817073  1.0000
  I   I9        1.0  0.6384176719241523  0.3415802640013296  0.4277669596677924  1.0000
  I   I10       1.0  0.46974641727427974  0.09090082260083679  0.4351122078518941  1.0000
  I   I11       1.0  0.879693639069572  0.7184949725367746  0.5799081457546222  1.0000
  I   I12       1.0  0.07790316732548067  0.7696870030788503  0.4808233525204669  1.0000
  I   I13       1.0  0.6765908417919347  0.3062257676758477  0.8946496226189423  1.0000
  I   I14       1.0  0.7865540927507267  0.23784680970545932  0.007932663115461504  1.0000
  I   I15       1.0  0.4703849943417709  0.964044976109541  0.8108980246068072  1.0000
  I   I16       1.0  0.31649657025062805  0.7445360836305  0.7034265024716858  1.0000
  I   I17       1.0  0.84390841608311  0.7289282165795754  0.0640142041912029  1.0000
  I   I18       1.0  0.6692963357736162  0.5582377779329234  0.13833138356176988  1.0000
  I   I19       1.0  0.9622148922251911  0.7540985614738815  0.19775670113174468  1.0000
  I   I20       1.0  0.9907885014570966  0.9814800287044605  0.29347077917920916  1.0000
  I   I21       1.0  0.3615916278620262  0.6584123790534234  0.5722346578872716  1.0000
  I   I22       1.0  0.530257161821943  0.909098923491477  0.5648874503448339  1.0000
  I   I23       1.0  0.12030750695721083  0.2815053666565177  0.4200900079762562  1.0000
  I   I24       1.0  0.922109548549095  0.2303121490376228  0.5191767576851162  1.0000
  N   N1        1.0  0.18934468999575677  0.8317621742726402  0.10597350841262446  1.0000
  N   N2        1.0  0.21942649601638212  0.06004169183640331  0.22732345024281383  1.0000
  N   N3        1.0  0.127818748408103  0.13907549168091995  0.25419328433105887  1.0000
  N   N4        1.0  0.0675513557588019  0.037399754270062105  0.18992291904173436  1.0000
  N   N5        1.0  0.39711777294862577  0.20508950800238776  0.37140447614507366  1.0000
  N   N6        1.0  0.7972265031466818  0.14079029069689847  0.22114538299009467  1.0000
  N   N7        1.0  0.6838918649919918  0.2327715925480334  0.17958556817522006  1.0000
  N   N8        1.0  0.8028836041895104  0.42959340884358715  0.09380047762874003  1.0000
  N   N9        1.0  0.7389936973165233  0.4542959877321024  0.03249865893403128  1.0000
  N   N10       1.0  0.6420114412630086  0.3553235338202541  0.06206935364851769  1.0000
  N   N11       1.0  0.07265222919099307  0.6494628577825026  0.06371418557027647  1.0000
  N   N12       1.0  0.4163240534279283  0.3591524693339352  0.944424947802055  1.0000
  N   N13       1.0  0.3217311672871262  0.24101339622951917  0.8552451250243536  1.0000
  N   N14       1.0  0.492822094057587  0.11210618250939322  0.752080724608774  1.0000
  N   N15       1.0  0.4549661484889426  0.0006214400080893002  0.6927782220376952  1.0000
  N   N16       1.0  0.33071689997368037  0.031469201659774605  0.7274305992789465  1.0000
  N   N17       1.0  0.8187329031331672  0.11369659240684632  0.7255265656169172  1.0000
  N   N18       1.0  0.14640173828811945  0.8187790444487887  0.5990563918129579  1.0000
  N   N19       1.0  0.008898296698227216  0.20529278497243555  0.6852712331430693  1.0000
  N   N20       1.0  0.1869787599692074  0.31558101144219824  0.576298373876021  1.0000
  N   N21       1.0  0.19971357222561895  0.4183718601632478  0.5426556422330647  1.0000
  N   N22       1.0  0.10574314364059495  0.4054695760967918  0.5988043638130234  1.0000
  N   N23       1.0  0.4072173537235528  0.2751481511105709  0.4711983737608206  1.0000
  N   N24       1.0  0.06732016599693949  0.6365129691814175  0.5535554835918574  1.0000
  N   N25       1.0  0.8106571281028608  0.16823816339712747  0.8940270959769092  1.0000
  N   N26       1.0  0.78057164187981  0.9399562794530852  0.772677670065903  1.0000
  N   N27       1.0  0.8721798101893941  0.8609218878299745  0.7458077696797715  1.0000
  N   N28       1.0  0.9324497916854283  0.9626005837265266  0.8100773646094409  1.0000
  N   N29       1.0  0.6028845573946596  0.7949072799763215  0.6285947682420597  1.0000
  N   N30       1.0  0.20277572169478483  0.859214189156532  0.7788548549818302  1.0000
  N   N31       1.0  0.3161092816422767  0.767228746132389  0.8204134983786486  1.0000
  N   N32       1.0  0.1971182133016215  0.5704069293390576  0.9061992139378104  1.0000
  N   N33       1.0  0.26100879001902655  0.5457043508075402  0.9675001362735713  1.0000
  N   N34       1.0  0.3579904550280021  0.6446785793864224  0.9379305697397624  1.0000
  N   N35       1.0  0.9273487471000338  0.3505386637863596  0.9362859428663766  1.0000
  N   N36       1.0  0.5836770936113211  0.6408478690045741  0.05557472730046699  1.0000
  N   N37       1.0  0.6782655369469667  0.7589875343099237  0.14475543041484673  1.0000
  N   N38       1.0  0.5071741108778272  0.8878935646136485  0.24791996958091994  1.0000
  N   N39       1.0  0.5450320675996424  0.999378306818301  0.30722221726976057  1.0000
  N   N40       1.0  0.669278711487266  0.9685323221817725  0.27256757179947744  1.0000
  N   N41       1.0  0.18126472170838787  0.886304929257527  0.27447469759689364  1.0000
  N   N42       1.0  0.8535991585955571  0.18122070260891124  0.400942591978982  1.0000
  N   N43       1.0  0.9910971581754493  0.794705187966265  0.31472799566354576  1.0000
  N   N44       1.0  0.8130210463687604  0.6844193270370907  0.4237015725727601  1.0000
  N   N45       1.0  0.8002857346111725  0.5816272950705967  0.4573441386918801  1.0000
  N   N46       1.0  0.8942545725418259  0.594528987826074  0.40119530142193577  1.0000
  N   N47       1.0  0.5927828735182104  0.7248515954191677  0.5288018106644046  1.0000
  N   N48       1.0  0.9326791410423425  0.36348618588147014  0.4464446016074176  1.0000
