data_image0
_chemical_formula_structural       Ca2H14C14N2O12
_chemical_formula_sum              "Ca2 H14 C14 N2 O12"
_cell_length_a       7.470110282661699
_cell_length_b       8.172151787505268
_cell_length_c       8.17214406340148
_cell_angle_alpha    101.22503567037569
_cell_angle_beta     101.09401691556269
_cell_angle_gamma    101.09443101742932

_space_group_name_H-M_alt    "P 1"
_space_group_IT_number       1

loop_
  _space_group_symop_operation_xyz
  'x, y, z'

loop_
  _atom_site_type_symbol
  _atom_site_label
  _atom_site_symmetry_multiplicity
  _atom_site_fract_x
  _atom_site_fract_y
  _atom_site_fract_z
  _atom_site_occupancy
  Ca  Ca1       1.0  0.4109076273675499  0.7856680574574142  0.09799040645904007  1.0000
  Ca  Ca2       1.0  0.9109072037322932  0.09798857153064232  0.7856660207218198  1.0000
  H   H1        1.0  0.37627873258103517  0.7674747786950961  0.4965158236674442  1.0000
  H   H2        1.0  0.8762812254780173  0.496512272333483  0.7674767894156532  1.0000
  H   H3        1.0  0.4115741099540315  0.27756151082867586  0.60591026677686  1.0000
  H   H4        1.0  0.9115826648187519  0.6059135847981736  0.27756763789450645  1.0000
  H   H5        1.0  0.4433821974885319  0.38713750800098995  0.11549505710679855  1.0000
  H   H6        1.0  0.9433652859920301  0.11548802835503125  0.38713026605729783  1.0000
  H   H7        1.0  0.7972016147508186  0.8389955089010784  0.30166972374602363  1.0000
  H   H8        1.0  0.2972008592810411  0.30167107746589744  0.8389962370996145  1.0000
  H   H9        1.0  0.8119807914753925  0.930595125370765  0.1475318235966443  1.0000
  H   H10       1.0  0.3119809385679559  0.14753196524512194  0.9305961977863787  1.0000
  H   H11       1.0  0.024804845407942415  0.5813582956153454  0.043543360427463505  1.0000
  H   H12       1.0  0.5248036197441266  0.043542017030667096  0.581350099564645  1.0000
  H   H13       1.0  0.009878971297219222  0.7353830223577233  0.951592471186423  1.0000
  H   H14       1.0  0.5098769223617907  0.9515949109275185  0.7353775449827609  1.0000
  C   C1        1.0  0.39469119510638967  0.6376653242767532  0.45953141470521786  1.0000
  C   C2        1.0  0.8946926840817682  0.45953019455190974  0.6376680306746821  1.0000
  C   C3        1.0  0.4013187590734617  0.5341696857127332  0.5771799243707392  1.0000
  C   C4        1.0  0.9013250519302859  0.577180232451312  0.5341725525109811  1.0000
  C   C5        1.0  0.3992303532455709  0.6111669999575468  0.7590231878257825  1.0000
  C   C6        1.0  0.8992330838502912  0.7590193976710682  0.6111704911463463  1.0000
  C   C7        1.0  0.41100724472314454  0.3638814301960878  0.5195006516826055  1.0000
  C   C8        1.0  0.9110133222553359  0.5195033242694791  0.3638861583378272  1.0000
  C   C9        1.0  0.4200023822200691  0.3063494459098379  0.3490145517541592  1.0000
  C   C10       1.0  0.9199988189947633  0.34900749286016725  0.3063491862795473  1.0000
  C   C11       1.0  0.4226813371126497  0.12467129266814683  0.2719333378676723  1.0000
  C   C12       1.0  0.9226777751244128  0.27193618604582076  0.12466950243641149  1.0000
  C   C13       1.0  0.4255751334136519  0.4239467991396353  0.24549263016821501  1.0000
  C   C14       1.0  0.9255674283215286  0.24549013521782112  0.4239445757176555  1.0000
  N   N1        1.0  0.40994162656029703  0.5856027739195969  0.2977442569831369  1.0000
  N   N2        1.0  0.9099381780401218  0.2977379087892373  0.5855971643077353  1.0000
  O   O1        1.0  0.41035037896259047  0.7725817185719636  0.8024488849302713  1.0000
  O   O2        1.0  0.9103506201042677  0.8024480973643267  0.7725815049308409  1.0000
  O   O3        1.0  0.3878575178397838  0.5173588322159477  0.8658018516743695  1.0000
  O   O4        1.0  0.8878609645535747  0.8657995783947569  0.5173588340312634  1.0000
  O   O5        1.0  0.4344456243531808  0.0179222175860616  0.3657774312270448  1.0000
  O   O6        1.0  0.9344472023373456  0.3657767853189783  0.01792429310138036  1.0000
  O   O7        1.0  0.4116854271852972  0.08139125212470331  0.11056073445616478  1.0000
  O   O8        1.0  0.9116795786360328  0.11055786345870192  0.0813856296943243  1.0000
  O   O9        1.0  0.7364241365281856  0.8340856826235878  0.18074435200319539  1.0000
  O   O10       1.0  0.2364250209945737  0.18074286073764514  0.8340837604888094  1.0000
  O   O11       1.0  0.08538948651859365  0.7022437732492081  0.048178590477796525  1.0000
  O   O12       1.0  0.5853885681848823  0.04817668173760839  0.7022337566755609  1.0000
