data_image0
_chemical_formula_structural       K4H40C40N12O36
_chemical_formula_sum              "K4 H40 C40 N12 O36"
_cell_length_a       7.152739128066072
_cell_length_b       10.6393975960117
_cell_length_c       18.046600123789826
_cell_angle_alpha    89.99989754037728
_cell_angle_beta     93.787141881242
_cell_angle_gamma    89.99987142116832

_space_group_name_H-M_alt    "P 1"
_space_group_IT_number       1

loop_
  _space_group_symop_operation_xyz
  'x, y, z'

loop_
  _atom_site_type_symbol
  _atom_site_label
  _atom_site_symmetry_multiplicity
  _atom_site_fract_x
  _atom_site_fract_y
  _atom_site_fract_z
  _atom_site_occupancy
  K   K1        1.0  0.3010092101170584  0.7177638359714964  0.17054568167969106  1.0000
  K   K2        1.0  0.6989898738428337  0.21777164074768515  0.3294560915187786  1.0000
  K   K3        1.0  0.6989864628227949  0.2822322387032088  0.8294624522142157  1.0000
  K   K4        1.0  0.3010114334751036  0.7822300733538582  0.6705427726053796  1.0000
  H   H1        1.0  0.323427258283111  0.5097619914778521  0.42734793322307496  1.0000
  H   H2        1.0  0.6765697624900611  0.00976778942794  0.0726523414749991  1.0000
  H   H3        1.0  0.6765740402500598  0.4902359630081464  0.5726537012758826  1.0000
  H   H4        1.0  0.3234259350557664  0.9902339246755362  0.927348035372283  1.0000
  H   H5        1.0  0.7935868628496506  0.6997009408788911  0.44119378433287426  1.0000
  H   H6        1.0  0.20641789285473067  0.1997037308241332  0.0588070509288343  1.0000
  H   H7        1.0  0.2064102323105601  0.3002970136104466  0.5588077380407341  1.0000
  H   H8        1.0  0.7935820168537902  0.8002989231830356  0.941190667670618  1.0000
  H   H9        1.0  0.7793973527384636  0.6023509769025778  0.1367339906200797  1.0000
  H   H10       1.0  0.2206007460528454  0.10235094201514977  0.36326510715495164  1.0000
  H   H11       1.0  0.22060815266764414  0.39765637661013664  0.8632666478497768  1.0000
  H   H12       1.0  0.7793991619073422  0.8976460725741546  0.6367331655222586  1.0000
  H   H13       1.0  0.9991702195124574  0.5315225818450103  0.11762057339792158  1.0000
  H   H14       1.0  0.0008281273883242001  0.031521880772849904  0.3823791596561463  1.0000
  H   H15       1.0  0.0008366870179657011  0.4684847716665885  0.8823801024470511  1.0000
  H   H16       1.0  0.9991689748099827  0.968473254011322  0.6176201464209681  1.0000
  H   H17       1.0  0.9027458247758274  0.33611396464765875  0.1638616578504326  1.0000
  H   H18       1.0  0.09725285223748162  0.8361125443726181  0.33613665521879443  1.0000
  H   H19       1.0  0.09725268907823188  0.6638915090716608  0.8361343611487084  1.0000
  H   H20       1.0  0.9027400624107288  0.16388353032528613  0.6638575520616781  1.0000
  H   H21       1.0  0.6732277817200226  0.40285850552116637  0.17223225455890656  1.0000
  H   H22       1.0  0.3267720521654525  0.9028577041265818  0.3277687897356997  1.0000
  H   H23       1.0  0.3267735273479034  0.5971479080954082  0.8277660554880341  1.0000
  H   H24       1.0  0.6732250517911355  0.09713743065842814  0.6722299622668899  1.0000
  H   H25       1.0  0.59035373102504  0.7163088779784204  0.018942425455584597  1.0000
  H   H26       1.0  0.4096467592052377  0.21630914032905926  0.4810593867904274  1.0000
  H   H27       1.0  0.40964616637551643  0.2836937760228793  0.9810591716655634  1.0000
  H   H28       1.0  0.5903559457204608  0.7836925737696917  0.5189406228579045  1.0000
  H   H29       1.0  0.3975826977084224  0.6599576009414393  0.9601493519557919  1.0000
  H   H30       1.0  0.6024212520273621  0.15995515119110587  0.5398506218059324  1.0000
  H   H31       1.0  0.6024186008197745  0.340043173253072  0.03985228254155258  1.0000
  H   H32       1.0  0.3975800552972045  0.8400428032990849  0.4601482423203791  1.0000
  H   H33       1.0  0.22713499631220194  0.47631062237451965  0.005309977514734496  1.0000
  H   H34       1.0  0.7728659795755275  0.9763095812154463  0.49469101994291975  1.0000
  H   H35       1.0  0.7728677015770558  0.5236929715265576  0.9946922484306313  1.0000
  H   H36       1.0  0.2271339213432455  0.02369213288469751  0.5053094690297115  1.0000
  H   H37       1.0  0.3137477526466412  0.41121181343165614  0.0930504239000882  1.0000
  H   H38       1.0  0.6862534546525725  0.9112111691695048  0.4069500941180165  1.0000
  H   H39       1.0  0.686254945240961  0.588792720372254  0.9069518020447447  1.0000
  H   H40       1.0  0.31374785090874  0.08878960502836013  0.5930493240812069  1.0000
  C   C1        1.0  0.9502135230567603  0.5300861866767477  0.2894122105903918  1.0000
  C   C2        1.0  0.04978903579339541  0.030089692476458704  0.21058652808437017  1.0000
  C   C3        1.0  0.04978357561835621  0.46991270771710714  0.7105882036336266  1.0000
  C   C4        1.0  0.9502122732795044  0.9699139014315963  0.7894117819641904  1.0000
  C   C5        1.0  0.1336424872361377  0.4969006493811961  0.3316710451019844  1.0000
  C   C6        1.0  0.8663528150373878  0.9968976374708236  0.1683286711010012  1.0000
  C   C7        1.0  0.8663546079207548  0.5030991849138147  0.668330477270544  1.0000
  C   C8        1.0  0.13364288779155942  0.0030993771209822008  0.831670043525392  1.0000
  C   C9        1.0  0.1874991034724829  0.5372843675618953  0.40190626242566907  1.0000
  C   C10       1.0  0.8125048240734285  0.0372889432664252  0.09809472166905657  1.0000
  C   C11       1.0  0.8125021950623434  0.46271264702125586  0.5980953720738282  1.0000
  C   C12       1.0  0.18749787909564464  0.9627118309286545  0.9019058420543401  1.0000
  C   C13       1.0  0.0683764326892415  0.615357428431068  0.4403442411853219  1.0000
  C   C14       1.0  0.9316160121947235  0.11536288086377774  0.05965580032337669  1.0000
  C   C15       1.0  0.9316150562187318  0.3846386462562066  0.5596576857634332  1.0000
  C   C16       1.0  0.06837829126155272  0.8846378933413349  0.9403423228512152  1.0000
  C   C17       1.0  0.8887580375528757  0.6455314970217502  0.40938197078379795  1.0000
  C   C18       1.0  0.11124689694269559  0.14553339419423145  0.09062280510490688  1.0000
  C   C19       1.0  0.1112446621095842  0.3544636377546126  0.5906197010918959  1.0000
  C   C20       1.0  0.888755800951543  0.8544673799983259  0.9093794208420788  1.0000
  C   C21       1.0  0.8296274215500146  0.6043469843956402  0.3399425346866565  1.0000
  C   C22       1.0  0.17037487356824244  0.10434952158221479  0.1600566729238437  1.0000
  C   C23       1.0  0.17037668099172984  0.39565003018612555  0.6600586204885487  1.0000
  C   C24       1.0  0.8296236402858171  0.895655952137105  0.8399393460752904  1.0000
  C   C25       1.0  0.8942832297673603  0.5423314808086843  0.1590438045731517  1.0000
  C   C26       1.0  0.1057178759726085  0.04233262689476901  0.3409576530613662  1.0000
  C   C27       1.0  0.10572226685563628  0.457671173185645  0.8409596042720436  1.0000
  C   C28       1.0  0.8942834313503027  0.9576662674982612  0.6590412110644124  1.0000
  C   C29       1.0  0.8240839624907464  0.4152914062319084  0.18554508757394217  1.0000
  C   C30       1.0  0.1759172321696951  0.9152936926193079  0.3144548716907423  1.0000
  C   C31       1.0  0.17591594722109244  0.5847093679695874  0.81445263102659  1.0000
  C   C32       1.0  0.8240812781777578  0.084706141681302  0.6855422554606818  1.0000
  C   C33       1.0  0.5167251286605108  0.6313637287523264  0.998470991285636  1.0000
  C   C34       1.0  0.48327751906321476  0.1313625149798554  0.5015295319574163  1.0000
  C   C35       1.0  0.48327757099200136  0.36863704544106923  0.0015306805868248981  1.0000
  C   C36       1.0  0.5167237864980976  0.8686382592180097  0.49846988624181426  1.0000
  C   C37       1.0  0.354264582015908  0.4549765570706725  0.04139767085034409  1.0000
  C   C38       1.0  0.645732267515072  0.9549776970742628  0.4586026848655037  1.0000
  C   C39       1.0  0.6457381158783306  0.5450242171218846  0.9586045550966417  1.0000
  C   C40       1.0  0.3542634353072529  0.04502307712890289  0.5413960297587294  1.0000
  N   N1        1.0  0.2606148053954129  0.41699006913351155  0.2954782994853034  1.0000
  N   N2        1.0  0.7393891872803523  0.9169918385745252  0.2045211785078749  1.0000
  N   N3        1.0  0.7393892953880511  0.5830069454474157  0.7045234097644197  1.0000
  N   N4        1.0  0.260609323070419  0.08300611592040498  0.7954759486446291  1.0000
  N   N5        1.0  0.12774367396840353  0.6617048244072308  0.5116052883719462  1.0000
  N   N6        1.0  0.872257462069946  0.16170812589545852  0.9883962708566614  1.0000
  N   N7        1.0  0.8722632308219714  0.3382921901723037  0.4883959415534846  1.0000
  N   N8        1.0  0.12774524110741942  0.8382879487854213  0.011604292869435496  1.0000
  N   N9        1.0  0.6423144499582206  0.6343620230040373  0.3135651533492663  1.0000
  N   N10       1.0  0.35768353591470975  0.13435667824143843  0.18643390772842847  1.0000
  N   N11       1.0  0.35768405158788846  0.36564345070941323  0.6864347441715636  1.0000
  N   N12       1.0  0.6423149656463207  0.8656403363464662  0.8135659897972471  1.0000
  O   O1        1.0  0.9833633729151713  0.6015592927006141  0.22381739192613984  1.0000
  O   O2        1.0  0.016633325787069005  0.10155888993457302  0.2761822234561676  1.0000
  O   O3        1.0  0.016640727860007604  0.398442421394499  0.77618431732089  1.0000
  O   O4        1.0  0.983363776402946  0.8984409443637987  0.723817082618254  1.0000
  O   O5        1.0  0.8571394945316156  0.4167593890638344  0.2649591516524623  1.0000
  O   O6        1.0  0.14286589832255464  0.9167619662514003  0.23504091805437347  1.0000
  O   O7        1.0  0.14286321391726634  0.5832385654252407  0.7350397498489727  1.0000
  O   O8        1.0  0.8571368136346037  0.08324068775354482  0.7649568752953114  1.0000
  O   O9        1.0  0.3957623396617223  0.3703303124438335  0.3337763851507559  1.0000
  O   O10       1.0  0.6042334091127232  0.8703333419531986  0.16622347616053187  1.0000
  O   O11       1.0  0.6042305503672624  0.6296676420480053  0.6662255791720353  1.0000
  O   O12       1.0  0.3957664900477766  0.12966837214609944  0.8337775668866242  1.0000
  O   O13       1.0  0.2332125942381609  0.3970886904757052  0.22733238620052987  1.0000
  O   O14       1.0  0.7667914704105242  0.8970864522185593  0.272666560537175  1.0000
  O   O15       1.0  0.766792909419614  0.6029130236191378  0.7726688063470917  1.0000
  O   O16       1.0  0.23321403853535116  0.1029077426560931  0.7273329697911703  1.0000
  O   O17       1.0  0.28147350024561046  0.6248341540169663  0.5418206993125592  1.0000
  O   O18       1.0  0.7185305751602442  0.12482932006681581  0.9581787606447276  1.0000
  O   O19       1.0  0.7185292081817211  0.3751760192090074  0.45817820218186966  1.0000
  O   O20       1.0  0.2814609172742379  0.8751611152051098  0.04182205815820338  1.0000
  O   O21       1.0  0.024820784686568204  0.7391143123688622  0.5429748104095253  1.0000
  O   O22       1.0  0.9751702686352105  0.23912037339533754  0.9570269525169266  1.0000
  O   O23       1.0  0.9751693030954269  0.2608827022223679  0.4570270791635735  1.0000
  O   O24       1.0  0.024821243138688897  0.7608710017886576  0.042967771465654885  1.0000
  O   O25       1.0  0.5368596081388901  0.6906584600381437  0.3550729549421874  1.0000
  O   O26       1.0  0.46314797997340656  0.1906512022157188  0.14492851951715827  1.0000
  O   O27       1.0  0.4631430985434335  0.3093441939642858  0.6449265006310795  1.0000
  O   O28       1.0  0.5368547267138836  0.8093486320781977  0.8550709360577216  1.0000
  O   O29       1.0  0.5892002715981308  0.6022870372192416  0.24869368332437602  1.0000
  O   O30       1.0  0.4108020255233953  0.10228329529523711  0.2513071888750176  1.0000
  O   O31       1.0  0.41080804484634825  0.39772125619828125  0.7513042595225342  1.0000
  O   O32       1.0  0.5891950819480911  0.8977127793942973  0.748690454977975  1.0000
  O   O33       1.0  0.44841426087187125  0.5702903135911797  0.06247600798550219  1.0000
  O   O34       1.0  0.5515881508765759  0.0702914336815468  0.4375243468205311  1.0000
  O   O35       1.0  0.5515912392693423  0.42971140050198636  0.9375262927111762  1.0000
  O   O36       1.0  0.44841035419437963  0.9297093405193877  0.5624744425539348  1.0000
