data_image0
_chemical_formula_structural       Zn3H18C26N6O10
_chemical_formula_sum              "Zn3 H18 C26 N6 O10"
_cell_length_a       9.141090187082993
_cell_length_b       10.647855452356149
_cell_length_c       11.431693020908705
_cell_angle_alpha    120.22621152613942
_cell_angle_beta     99.54171845025498
_cell_angle_gamma    97.45294410500019

_space_group_name_H-M_alt    "P 1"
_space_group_IT_number       1

loop_
  _space_group_symop_operation_xyz
  'x, y, z'

loop_
  _atom_site_type_symbol
  _atom_site_label
  _atom_site_symmetry_multiplicity
  _atom_site_fract_x
  _atom_site_fract_y
  _atom_site_fract_z
  _atom_site_occupancy
  Zn  Zn1       1.0  0.3155149685112377  0.3741411314152501  0.3729648103053761  1.0000
  Zn  Zn2       1.0  0.6844855287401543  0.6258595673892274  0.6270301369276722  1.0000
  Zn  Zn3       1.0  7.802209008583631e-08  0.4999998266845935  0.49999964561387583  1.0000
  H   H1        1.0  0.8715947081783711  0.580904479384586  0.19291650194394797  1.0000
  H   H2        1.0  0.12840932717414688  0.4191051810866782  0.8070830521147128  1.0000
  H   H3        1.0  0.24769084728192334  0.9982473307686565  0.43681809048275966  1.0000
  H   H4        1.0  0.7522979744253746  0.0017435730653829985  0.5631829776029917  1.0000
  H   H5        1.0  0.8551474283196185  0.1812259025194436  0.49633889457965097  1.0000
  H   H6        1.0  0.14485774864830606  0.8187681558538459  0.5036685323766719  1.0000
  H   H7        1.0  0.21868231190165227  0.38495382751568036  0.007781851326548413  1.0000
  H   H8        1.0  0.7813153971189378  0.6150368520109595  0.9922142325648335  1.0000
  H   H9        1.0  0.2117398230548062  0.754247652017618  0.8237193968938638  1.0000
  H   H10       1.0  0.7882652884752376  0.24575427518268367  0.17628988187902184  1.0000
  H   H11       1.0  0.5341996452802178  0.8135876566337573  0.8840447668800948  1.0000
  H   H12       1.0  0.46580130487324567  0.18641085034550997  0.11595448702610155  1.0000
  H   H13       1.0  0.7653543732259963  0.9344168194203349  0.15806335929827497  1.0000
  H   H14       1.0  0.23464261912174328  0.06557179211808521  0.8419447981741542  1.0000
  H   H15       1.0  0.9887739352102116  0.09712927725060183  0.8422894755780347  1.0000
  H   H16       1.0  0.01121427858083729  0.9028516190246451  0.15771653878892514  1.0000
  H   H17       1.0  0.7574244065621016  0.046848705553401294  0.9142553319274639  1.0000
  H   H18       1.0  0.24255916407116018  0.9531310094883947  0.08573986788851323  1.0000
  C   C1        1.0  0.9268077409705454  0.5460900484677182  0.10777851020176843  1.0000
  C   C2        1.0  0.07318478447053418  0.4539344516129519  0.8922262437451352  1.0000
  C   C3        1.0  0.1396787183821288  0.9980611087685672  0.4651851059167098  1.0000
  C   C4        1.0  0.860324610418786  0.0019495385701943963  0.5348034291747296  1.0000
  C   C5        1.0  0.11556746772088639  0.20416900226200602  0.42074271216225156  1.0000
  C   C6        1.0  0.8844227891713883  0.7957949867017575  0.5792584543948249  1.0000
  C   C7        1.0  0.916248726527165  0.10005678816843748  0.49667176016114195  1.0000
  C   C8        1.0  0.08377279370346703  0.8999512776832789  0.5033155094507719  1.0000
  C   C9        1.0  0.12312273595281908  0.4352538153132457  0.0029495021745659503  1.0000
  C   C10       1.0  0.8768755410639955  0.5647593895021715  0.997056122156003  1.0000
  C   C11       1.0  0.2863486478856814  0.7049923909471545  0.7579800415821863  1.0000
  C   C12       1.0  0.7136560179620801  0.2950117162877675  0.24202405127034146  1.0000
  C   C13       1.0  0.05632929153850339  0.09836212483632073  0.461526809665628  1.0000
  C   C14       1.0  0.9436823166594477  0.9016382906362564  0.538461687512658  1.0000
  C   C15       1.0  0.10481519439067444  0.4640066225819409  0.23239444075068139  1.0000
  C   C16       1.0  0.8951939875601979  0.5360019447634131  0.7676140798016107  1.0000
  C   C17       1.0  0.05041832024156179  0.4814317394094587  0.11149362362534274  1.0000
  C   C18       1.0  0.9495770227692901  0.5185949700750072  0.888512538082743  1.0000
  C   C19       1.0  0.444998974525781  0.7353244100281628  0.7872870753583497  1.0000
  C   C20       1.0  0.5550054160130885  0.26467852762083066  0.21271294294174942  1.0000
  C   C21       1.0  0.9934914302223135  0.053490824088982016  0.9107511643130832  1.0000
  C   C22       1.0  0.006512855840867294  0.9464998316418657  0.08925195221087988  1.0000
  C   C23       1.0  0.8638641596128522  0.026643327543219197  0.9520681108607858  1.0000
  C   C24       1.0  0.13613426271930953  0.9733541160369937  0.04793205134222924  1.0000
  C   C25       1.0  0.8704128466241413  0.9734245750809625  0.04188168419989313  1.0000
  C   C26       1.0  0.1295795276238465  0.026575266838669603  0.9581222322170362  1.0000
  N   N1        1.0  0.34652933210705317  0.5599563564327281  0.566461450010486  1.0000
  N   N2        1.0  0.6534679635090868  0.44004890295259713  0.4335351422087966  1.0000
  N   N3        1.0  0.22949577308526156  0.5958816216125769  0.6207900393597396  1.0000
  N   N4        1.0  0.7705036811860778  0.40412368486358474  0.3792130002240695  1.0000
  N   N5        1.0  0.4785644851727326  0.6429645035285888  0.6660368279205925  1.0000
  N   N6        1.0  0.5214326256304389  0.3570441290584583  0.33396041142518834  1.0000
  O   O1        1.0  0.20792380087726767  0.3899369049241058  0.22120601899670325  1.0000
  O   O2        1.0  0.7920866088666257  0.6100636815478353  0.7787937620783438  1.0000
  O   O3        1.0  0.2536713861144904  0.21405878955627597  0.4091473562303491  1.0000
  O   O4        1.0  0.7463002140256662  0.7859457314224018  0.5908435546395693  1.0000
  O   O5        1.0  0.0481407740513333  0.5240567718247391  0.33533690673211675  1.0000
  O   O6        1.0  0.9518561668382688  0.4759474476711817  0.6646652826540842  1.0000
  O   O7        1.0  0.02855651276455258  0.27703171578168906  0.3979291369835208  1.0000
  O   O8        1.0  0.9714834784856023  0.7229547166801851  0.602056912625322  1.0000
  O   O9        1.0  0.7389001812150227  0.948537471390296  0.08004821054957036  1.0000
  O   O10       1.0  0.261077732196945  0.0514627659791742  0.9199661132071454  1.0000
