data_image0
_chemical_formula_structural       Cd2H14C26N2O10
_chemical_formula_sum              "Cd2 H14 C26 N2 O10"
_cell_length_a       7.572059195806823
_cell_length_b       8.557686739803021
_cell_length_c       9.082039166768967
_cell_angle_alpha    81.2726634320219
_cell_angle_beta     77.95877364894396
_cell_angle_gamma    82.33516488032141

_space_group_name_H-M_alt    "P 1"
_space_group_IT_number       1

loop_
  _space_group_symop_operation_xyz
  'x, y, z'

loop_
  _atom_site_type_symbol
  _atom_site_label
  _atom_site_symmetry_multiplicity
  _atom_site_fract_x
  _atom_site_fract_y
  _atom_site_fract_z
  _atom_site_occupancy
  Cd  Cd1       1.0  0.18757681011294378  0.0709253439045057  0.0843556162587689  1.0000
  Cd  Cd2       1.0  0.8124248697247013  0.9290735840950006  0.9156447047540013  1.0000
  H   H1        1.0  0.39676164858602897  0.4754649767300593  0.7775294112641049  1.0000
  H   H2        1.0  0.603235820573218  0.5245351765240189  0.22247363660462585  1.0000
  H   H3        1.0  0.8825040204271275  0.7059006914745538  0.5816936132516446  1.0000
  H   H4        1.0  0.11749632687234879  0.2940982055561392  0.4183047362871122  1.0000
  H   H5        1.0  0.05422111261686521  0.5041983250059233  0.7365511693323867  1.0000
  H   H6        1.0  0.945780726388648  0.4957993819147646  0.2634471116407298  1.0000
  H   H7        1.0  0.09372577695088319  0.8981327575875894  0.6098519134051514  1.0000
  H   H8        1.0  0.9062719925787803  0.10186498586958238  0.3901492547970448  1.0000
  H   H9        1.0  0.2957195841208674  0.7173427824295119  0.757988225588207  1.0000
  H   H10       1.0  0.7042804538255183  0.28265854057845985  0.2420131038234814  1.0000
  H   H11       1.0  0.7361374059427915  0.7479368182460107  0.3916763818425864  1.0000
  H   H12       1.0  0.2638611402975499  0.2520656948719733  0.6083250161347422  1.0000
  H   H13       1.0  0.5519931538999998  0.937921766044866  0.2354130199802071  1.0000
  H   H14       1.0  0.4480044744271225  0.06207716613040049  0.7645879878488699  1.0000
  C   C1        1.0  0.3008674465034816  0.9280417192016088  0.4049853192142053  1.0000
  C   C2        1.0  0.6991315323271509  0.07195721158173998  0.5950154596761053  1.0000
  C   C3        1.0  0.9376002449199774  0.2583718361228052  0.9353386874139246  1.0000
  C   C4        1.0  0.062401452883001716  0.7416270595159704  0.0646594331860655  1.0000
  C   C5        1.0  0.5342125573245938  0.24595964450841018  0.9601642268967296  1.0000
  C   C6        1.0  0.46578762182433303  0.754040489781467  0.0398372628880779  1.0000
  C   C7        1.0  0.8244273505893815  0.3761189224379251  0.8435958535705197  1.0000
  C   C8        1.0  0.17557432924826347  0.6238800055615814  0.15640446744225042  1.0000
  C   C9        1.0  0.6372335247320536  0.37125535318992325  0.8559383251260684  1.0000
  C   C10       1.0  0.3627666633995475  0.6287447649195884  0.14406206445234906  1.0000
  C   C11       1.0  0.541070418265555  0.4846676407926084  0.76632674626304  1.0000
  C   C12       1.0  0.4589309701843404  0.5153336808234458  0.23367435420988164  1.0000
  C   C13       1.0  0.6279042693923175  0.6034282249132731  0.6665623379539339  1.0000
  C   C14       1.0  0.3720972692427794  0.39657189180432084  0.3334378226857169  1.0000
  C   C15       1.0  0.8142233240543106  0.6098314121044269  0.6544202668950021  1.0000
  C   C16       1.0  0.18577553153911452  0.3901686750362856  0.3455781512094021  1.0000
  C   C17       1.0  0.9105422695589239  0.49605876164093843  0.7424381277865634  1.0000
  C   C18       1.0  0.08945672723704232  0.5039401367816793  0.257560450690967  1.0000
  C   C19       1.0  0.2338632073137177  0.863086728645321  0.5578950381795025  1.0000
  C   C20       1.0  0.7661341296256551  0.13691459714648602  0.442106749109719  1.0000
  C   C21       1.0  0.34405012756061387  0.7627689801451042  0.6398744105753025  1.0000
  C   C22       1.0  0.6559485598822618  0.23723234425478526  0.3601271477751524  1.0000
  C   C23       1.0  0.593331456494944  0.7833274127968224  0.43452934189575393  1.0000
  C   C24       1.0  0.4066672309479386  0.21667391160306693  0.565472216454701  1.0000
  C   C25       1.0  0.48942724120551884  0.8862499958657324  0.34816733649571313  1.0000
  C   C26       1.0  0.5105701047165212  0.1137513137457091  0.6518333505871183  1.0000
  N   N1        1.0  0.522252526802383  0.718803456484082  0.5789270342255222  1.0000
  N   N2        1.0  0.47774616064049963  0.2811978679158075  0.42107452412492563  1.0000
  O   O1        1.0  0.9489353270601272  0.2830979560645162  0.06646849170630986  1.0000
  O   O2        1.0  0.05106502922200921  0.7169009247858187  0.9335287576260569  1.0000
  O   O3        1.0  0.028100194878867092  0.139955947310284  0.8712577629916608  1.0000
  O   O4        1.0  0.9719001524206091  0.8600429497204091  0.12874058654709594  1.0000
  O   O5        1.0  0.6218717627640019  0.1270879624253922  0.025568974465791372  1.0000
  O   O6        1.0  0.378128293147725  0.8729133282218485  0.9744301545331169  1.0000
  O   O7        1.0  0.3623480455775763  0.2676497970888078  0.9767260994541899  1.0000
  O   O8        1.0  0.6376534930575275  0.7323503196287859  0.0232740611854609  1.0000
  O   O9        1.0  0.19429202680117186  0.021751561007370402  0.32917669739034494  1.0000
  O   O10       1.0  0.8057056105086174  0.9782473549875306  0.670823210232335  1.0000
