data_image0
_chemical_formula_structural       Cu2H30C30S6I2N12
_chemical_formula_sum              "Cu2 H30 C30 S6 I2 N12"
_cell_length_a       8.75567296219205
_cell_length_b       8.948490221332621
_cell_length_c       12.304553366601628
_cell_angle_alpha    87.43452829591199
_cell_angle_beta     85.46164896126774
_cell_angle_gamma    88.68211127516145

_space_group_name_H-M_alt    "P 1"
_space_group_IT_number       1

loop_
  _space_group_symop_operation_xyz
  'x, y, z'

loop_
  _atom_site_type_symbol
  _atom_site_label
  _atom_site_symmetry_multiplicity
  _atom_site_fract_x
  _atom_site_fract_y
  _atom_site_fract_z
  _atom_site_occupancy
  Cu  Cu1       1.0  0.5971163468671108  0.5907684583190401  0.08884474102865882  1.0000
  Cu  Cu2       1.0  0.40288548379509587  0.4092289595903935  0.9111490398210123  1.0000
  H   H1        1.0  0.042952416973335496  0.2489268235769089  0.19977099766264672  1.0000
  H   H2        1.0  0.957038932137486  0.7510772882400757  0.8002280069084334  1.0000
  H   H3        1.0  0.3403290265723981  0.8075810876875096  0.13978475975898164  1.0000
  H   H4        1.0  0.6596820132096751  0.1924141340570884  0.8602118405044765  1.0000
  H   H5        1.0  0.9879970041767904  0.021147687193071394  0.12430026786265101  1.0000
  H   H6        1.0  0.012008268297392996  0.9788486497913951  0.8757014877584979  1.0000
  H   H7        1.0  0.11928556081245026  0.8964136516006678  0.052010746862770005  1.0000
  H   H8        1.0  0.880728902993688  0.10358159753565839  0.9479905403659715  1.0000
  H   H9        1.0  0.5638365616383253  0.2331595123675996  0.14877973173280884  1.0000
  H   H10       1.0  0.4361767828956928  0.7668346140638463  0.8512216555031031  1.0000
  H   H11       1.0  0.8764572229877743  0.3882483553261125  0.06665219790119178  1.0000
  H   H12       1.0  0.12353990479687837  0.6117535408207003  0.9333473773343004  1.0000
  H   H13       1.0  0.318551565618037  0.0896677268278623  0.1671448904085722  1.0000
  H   H14       1.0  0.6814583071347612  0.910327517331787  0.8328599003967412  1.0000
  H   H15       1.0  0.9621916034534124  0.26433488628889285  0.4001962213518624  1.0000
  H   H16       1.0  0.03780879667391449  0.7356737423546988  0.5998053815230336  1.0000
  H   H17       1.0  0.6491903283681777  0.5833776561654601  0.5148161362138738  1.0000
  H   H18       1.0  0.3508034131089133  0.41662199332743194  0.48518451493011133  1.0000
  H   H19       1.0  0.460235921790435  0.6663882973220793  0.5127157804089322  1.0000
  H   H20       1.0  0.539758936818103  0.333612477504488  0.487285583466516  1.0000
  H   H21       1.0  0.214519193550025  0.6021681392234514  0.3730835427631192  1.0000
  H   H22       1.0  0.7854710825678237  0.39783262011123804  0.626918073734366  1.0000
  H   H23       1.0  0.9433739413721721  0.6570339915029705  0.3236830410819209  1.0000
  H   H24       1.0  0.056615193404326185  0.34296675870113796  0.676317013093801  1.0000
  H   H25       1.0  0.8533315841944425  0.9282886189961911  0.32184635190098737  1.0000
  H   H26       1.0  0.14666210886284858  0.07171326290291088  0.6781526000624043  1.0000
  H   H27       1.0  0.5161675401190209  0.9372024550288883  0.3842982830908426  1.0000
  H   H28       1.0  0.48382274950542836  0.06279720124670969  0.6157082466901116  1.0000
  H   H29       1.0  0.5828470981106264  0.114427638387383  0.4200938654213289  1.0000
  H   H30       1.0  0.41714205017247247  0.8855720087576414  0.5799111020378618  1.0000
  C   C1        1.0  0.9433093376093494  0.31504670127814893  0.22808927964739206  1.0000
  C   C2        1.0  0.05669005078876671  0.6849563267041175  0.7719117579026858  1.0000
  C   C3        1.0  0.7019515363102256  0.4849821952390839  0.2992537363347055  1.0000
  C   C4        1.0  0.29804894715010016  0.5150230716511716  0.7007463516179088  1.0000
  C   C5        1.0  0.7007426020682175  0.89829307844262  0.09926284206662221  1.0000
  C   C6        1.0  0.2992695747738948  0.1017021576901556  0.9007369459958668  1.0000
  C   C7        1.0  0.4393650983575198  0.8804984596828332  0.13299769465782424  1.0000
  C   C8        1.0  0.560645855950895  0.1195001264438957  0.8670012332665494  1.0000
  C   C9        1.0  0.006643819828710205  0.952902059826968  0.0524953125540435  1.0000
  C   C10       1.0  0.9933672555292075  0.047090945284232105  0.9475078633218176  1.0000
  C   C11       1.0  0.564333348718456  0.11235941022522407  0.13883194884324723  1.0000
  C   C12       1.0  0.43568001788480587  0.887633602631915  0.8611711007215916  1.0000
  C   C13       1.0  0.8534715223061653  0.3918249993662783  0.15505826212200446  1.0000
  C   C14       1.0  0.1465255812685839  0.6081780129836433  0.8449404635231944  1.0000
  C   C15       1.0  0.42821248111068394  0.0331952795743007  0.14863366473086612  1.0000
  C   C16       1.0  0.5717997441512281  0.966797724152265  0.8513678225122094  1.0000
  C   C17       1.0  0.8999240635341933  0.32636913577080406  0.33880552904098243  1.0000
  C   C18       1.0  0.10007524795290829  0.6736372460783925  0.6611945852154762  1.0000
  C   C19       1.0  0.5360213319563056  0.5749075486606896  0.4837422385865224  1.0000
  C   C20       1.0  0.4639757936876875  0.4250943501149251  0.5162581493876035  1.0000
  C   C21       1.0  0.20219605843036698  0.9639546855388302  0.3908492906246224  1.0000
  C   C22       1.0  0.7977952621892328  0.03605054773886  0.6091504898334322  1.0000
  C   C23       1.0  0.166884657984042  0.7159554384401048  0.3710138700425461  1.0000
  C   C24       1.0  0.8331079179417955  0.2840453181253154  0.6289843691893822  1.0000
  C   C25       1.0  0.017588948799989595  0.7456216001375677  0.3438052327583847  1.0000
  C   C26       1.0  0.9824058849360212  0.2543813781783797  0.6561854918114918  1.0000
  C   C27       1.0  0.9687440207088969  0.895195706116098  0.3426962436721582  1.0000
  C   C28       1.0  0.031249654560475897  0.1048072840996994  0.6572994204850318  1.0000
  C   C29       1.0  0.4966797893388345  0.028375606873332505  0.4409165957613297  1.0000
  C   C30       1.0  0.5033070192791058  0.9716262649319631  0.5590867988282824  1.0000
  S   S1        1.0  0.5524625598240644  0.609164484235009  0.33724957846443  1.0000
  S   S2        1.0  0.44753339384669727  0.39083852949954684  0.6627508358135401  1.0000
  S   S3        1.0  0.8722290165886475  0.8005352192041568  0.06588965703337381  1.0000
  S   S4        1.0  0.12777985941955447  0.19945440589255273  0.9341088792766855  1.0000
  S   S5        1.0  0.31368716078205944  0.11732315327495968  0.4165198217169746  1.0000
  S   S6        1.0  0.6863041819067843  0.8826809664284241  0.583481621070007  1.0000
  I   I1        1.0  0.6910363470159097  0.5118395833562347  0.8888068337623451  1.0000
  I   I2        1.0  0.30896313541850867  0.4881600697286926  0.1111886251722893  1.0000
  N   N1        1.0  0.7304844158723893  0.4754442295587324  0.18918536724335414  1.0000
  N   N2        1.0  0.2695103679657932  0.5245598965059558  0.8108142605998341  1.0000
  N   N3        1.0  0.5748283330929096  0.8110529175105724  0.10721588627336592  1.0000
  N   N4        1.0  0.4251839071536239  0.18894006781437162  0.8927799117992736  1.0000
  N   N5        1.0  0.780341159015414  0.4121807415472886  0.3747679170030551  1.0000
  N   N6        1.0  0.21966039315657326  0.5878278830828664  0.6252311845004215  1.0000
  N   N7        1.0  0.7007094373674574  0.0451816585725879  0.11499470144870831  1.0000
  N   N8        1.0  0.29930281210435067  0.954810228950869  0.8850076353846745  1.0000
  N   N9        1.0  0.2607435193976925  0.8244982548004742  0.3952876524352007  1.0000
  N   N10       1.0  0.7392466534585721  0.17550697723304856  0.6047130039169916  1.0000
  N   N11       1.0  0.059953610018091276  0.0055174409499301  0.36559665521879486  1.0000
  N   N12       1.0  0.9400411254002917  0.9944889175209819  0.6344012734437996  1.0000
