data_image0
_chemical_formula_structural       CdH32C36I2N12
_chemical_formula_sum              "Cd1 H32 C36 I2 N12"
_cell_length_a       7.529122453488896
_cell_length_b       8.840588959774347
_cell_length_c       15.16181757432316
_cell_angle_alpha    90.48106914203807
_cell_angle_beta     82.12238954367304
_cell_angle_gamma    69.5104745697563

_space_group_name_H-M_alt    "P 1"
_space_group_IT_number       1

loop_
  _space_group_symop_operation_xyz
  'x, y, z'

loop_
  _atom_site_type_symbol
  _atom_site_label
  _atom_site_symmetry_multiplicity
  _atom_site_fract_x
  _atom_site_fract_y
  _atom_site_fract_z
  _atom_site_occupancy
  Cd  Cd1       1.0  1.7494225942404457e-06  0.9999989334230007  0.500000398555656  1.0000
  H   H1        1.0  0.07454168826544108  0.16451391282183184  0.28837812273756214  1.0000
  H   H2        1.0  0.9254624599397301  0.8354872975296957  0.7116314598215184  1.0000
  H   H3        1.0  0.4379350751116816  0.7353049036739138  0.3811842852817976  1.0000
  H   H4        1.0  0.562077539479439  0.2646849925773225  0.618811559439628  1.0000
  H   H5        1.0  0.5700739654579438  0.6540035152947896  0.16475013581896286  1.0000
  H   H6        1.0  0.4299235539096741  0.3459936965006562  0.8352494150946941  1.0000
  H   H7        1.0  0.7021852849903069  0.6617411432449318  0.2526041046754273  1.0000
  H   H8        1.0  0.2978239655045698  0.33825365368805654  0.747393932073024  1.0000
  H   H9        1.0  0.6181630488929457  0.7722045728257287  0.025972923613402102  1.0000
  H   H10       1.0  0.3818448298621959  0.22779013328288047  0.9740225770402945  1.0000
  H   H11       1.0  0.7953863131344715  0.9033300099073645  0.9274132682880847  1.0000
  H   H12       1.0  0.20461556335327194  0.09666969978194122  0.0725879184814531  1.0000
  H   H13       1.0  0.052953861302377406  0.00019677966006530098  0.14920636314663946  1.0000
  H   H14       1.0  0.9470518834462208  0.9997967978871787  0.8507919437737925  1.0000
  H   H15       1.0  0.8646675102014778  0.8759098318114626  0.2485514897729857  1.0000
  H   H16       1.0  0.13533199342200666  0.12408236658956896  0.7514426740744042  1.0000
  H   H17       1.0  0.8506751338037901  0.41799557390669423  0.4456617366788934  1.0000
  H   H18       1.0  0.149318061742214  0.5820091328208434  0.5543453355728759  1.0000
  H   H19       1.0  0.5629897399230328  0.09837003265318603  0.40389031530244074  1.0000
  H   H20       1.0  0.4370129717372817  0.9016309117676758  0.5961114596059858  1.0000
  H   H21       1.0  0.2351864282203308  0.4993706041099699  0.3615278368868218  1.0000
  H   H22       1.0  0.7648152751107699  0.5006328032315253  0.6384753136657724  1.0000
  H   H23       1.0  0.291142553546024  0.29120740209049245  0.33394714422016863  1.0000
  H   H24       1.0  0.7088579755039104  0.7087922824392978  0.6660534832880742  1.0000
  H   H25       1.0  0.12186286603984078  0.611635718243747  0.22750803465356034  1.0000
  H   H26       1.0  0.8781297767377082  0.38837008861439415  0.7724957717533699  1.0000
  H   H27       1.0  0.18968679185145015  0.663142123438604  0.0708640078671579  1.0000
  H   H28       1.0  0.8102969554285622  0.33686236339571  0.9291378316665659  1.0000
  H   H29       1.0  0.7498678560944185  0.2892427087683416  0.052066689532622897  1.0000
  H   H30       1.0  0.25011270745068237  0.7107530977109919  0.9479295157735166  1.0000
  H   H31       1.0  0.6766867303707045  0.23436812565660864  0.20690984917256827  1.0000
  H   H32       1.0  0.3233030110760635  0.7656313357087189  0.7930856453008205  1.0000
  C   C1        1.0  0.1930043550377292  0.052304020110234724  0.29209622575399413  1.0000
  C   C2        1.0  0.8070061102415163  0.9476946090758961  0.707907628761241  1.0000
  C   C3        1.0  0.3726252494345628  0.8367936665182044  0.34193730977506936  1.0000
  C   C4        1.0  0.6273873813578349  0.16319627350960533  0.6580598528353292  1.0000
  C   C5        1.0  0.6172917366119249  0.7337311969282325  0.2040441926273502  1.0000
  C   C6        1.0  0.38270876813608357  0.266268421936701  0.795954458047433  1.0000
  C   C7        1.0  0.7288598645272015  0.8142924597143308  0.1441438037065268  1.0000
  C   C8        1.0  0.27114617072615477  0.18570347458336306  0.8558524844524414  1.0000
  C   C9        1.0  0.7132443737120154  0.8229832498608192  0.0533398049668037  1.0000
  C   C10       1.0  0.2867627548161094  0.17701618836573377  0.9466524167916432  1.0000
  C   C11       1.0  0.8168703395058471  0.896454613001119  0.9970728080765454  1.0000
  C   C12       1.0  0.18314188016814367  0.10354254722478373  0.0029230105440589955  1.0000
  C   C13       1.0  0.9424925480528327  0.9622820526689682  0.029639186645553692  1.0000
  C   C14       1.0  0.05751938921703468  0.03771277269478191  0.9703593096810084  1.0000
  C   C15       1.0  0.9556355230557614  0.9533975897381667  0.12132398021762472  1.0000
  C   C16       1.0  0.044372166341453585  0.046600770246058715  0.8786721663301478  1.0000
  C   C17       1.0  0.8503502499924948  0.8819046440410647  0.17771822745262264  1.0000
  C   C18       1.0  0.14965607576561982  0.11809364700707192  0.8222760419448749  1.0000
  C   C19       1.0  0.7489993535880187  0.36800295057606297  0.4248244986287517  1.0000
  C   C20       1.0  0.25099781946630634  0.6320016565237553  0.5751789798510103  1.0000
  C   C21       1.0  0.6058098268765447  0.2035327209717579  0.40478998848887227  1.0000
  C   C22       1.0  0.3941902142100559  0.7964682387949227  0.5952126447304238  1.0000
  C   C23       1.0  0.34640594506448946  0.39092518328048703  0.3263296235397277  1.0000
  C   C24       1.0  0.6535935918575076  0.6090770079465033  0.6736736975016555  1.0000
  C   C25       1.0  0.393748735050572  0.41982870904498537  0.2292761223253166  1.0000
  C   C26       1.0  0.6062448836536303  0.5801745473393825  0.7707236726595071  1.0000
  C   C27       1.0  0.25900814532494104  0.5389028060477018  0.1884315963519541  1.0000
  C   C28       1.0  0.740982306741593  0.46110171903107766  0.811570403710306  1.0000
  C   C29       1.0  0.29909966898434687  0.5683663681473093  0.09911481667266032  1.0000
  C   C30       1.0  0.7008856150914086  0.43163448997091086  0.9008869362282824  1.0000
  C   C31       1.0  0.4770983481088323  0.4821342757707612  0.047123467028747305  1.0000
  C   C32       1.0  0.5228843665400474  0.517872608319337  0.9528777713156843  1.0000
  C   C33       1.0  0.6104181515225663  0.36118512354239846  0.08890212199536758  1.0000
  C   C34       1.0  0.38956535779568213  0.6388228858378254  0.9110964097655128  1.0000
  C   C35       1.0  0.5692666676941373  0.3300489527003805  0.1777537491038785  1.0000
  C   C36       1.0  0.43072475219840806  0.6699530000163421  0.8222435805917813  1.0000
  I   I1        1.0  0.849592855570975  0.7581911040516475  0.4328198042411914  1.0000
  I   I2        1.0  0.15040396217347043  0.24181097119144823  0.5671804214441423  1.0000
  N   N1        1.0  0.7568225634494966  0.21331189754982924  0.4385114110159877  1.0000
  N   N2        1.0  0.24317193903111425  0.7866927248958077  0.5614929257746368  1.0000
  N   N3        1.0  0.21082772611302397  0.9636004595086761  0.36561430331660466  1.0000
  N   N4        1.0  0.789184126211282  0.03638839900557401  0.634386883766318  1.0000
  N   N5        1.0  0.44646892604138333  0.8507676786218569  0.2578009187209176  1.0000
  N   N6        1.0  0.5535351087548291  0.14923322529367067  0.7421994386153444  1.0000
  N   N7        1.0  0.3337317879929244  0.9878018446478763  0.22444368928798752  1.0000
  N   N8        1.0  0.6662779594618726  0.012201604209323593  0.7755595221099439  1.0000
  N   N9        1.0  0.5132892963333615  0.3461812231195723  0.3722968406255377  1.0000
  N   N10       1.0  0.4867120840904205  0.6538197399183335  0.6277056929105741  1.0000
  N   N11       1.0  0.6029339487496728  0.45303491441880095  0.38431476036329576  1.0000
  N   N12       1.0  0.39706289329669164  0.5469672264891514  0.6156874421554975  1.0000
