data_image0
_chemical_formula_structural       Ag2P6H68C60S4O4
_chemical_formula_sum              "Ag2 P6 H68 C60 S4 O4"
_cell_length_a       11.755437416786481
_cell_length_b       12.74776785247328
_cell_length_c       13.058381175458102
_cell_angle_alpha    60.96257382023011
_cell_angle_beta     77.3044367571715
_cell_angle_gamma    69.32782355300313

_space_group_name_H-M_alt    "P 1"
_space_group_IT_number       1

loop_
  _space_group_symop_operation_xyz
  'x, y, z'

loop_
  _atom_site_type_symbol
  _atom_site_label
  _atom_site_symmetry_multiplicity
  _atom_site_fract_x
  _atom_site_fract_y
  _atom_site_fract_z
  _atom_site_occupancy
  Ag  Ag1       1.0  0.8138624469616929  0.8026590968410187  0.5943355729278181  1.0000
  Ag  Ag2       1.0  0.18613674764561236  0.19734180071952062  0.40566231757829746  1.0000
  P   P1        1.0  0.7421145768412953  0.7234440148496617  0.8579647837196164  1.0000
  P   P2        1.0  0.2578872285834636  0.27655690507149433  0.14203487597310274  1.0000
  P   P3        1.0  0.6754917504640686  0.8950697981930203  0.4399465021140612  1.0000
  P   P4        1.0  0.3245094484742097  0.10493020502353535  0.5600483480086852  1.0000
  P   P5        1.0  0.019825717877367293  0.8112064359169506  0.5206817879563986  1.0000
  P   P6        1.0  0.9801737123646249  0.18879068267078483  0.4793208948358014  1.0000
  H   H1        1.0  0.5087543386122987  0.7403292620033921  0.8391492245021726  1.0000
  H   H2        1.0  0.4912480592953016  0.2596726117299539  0.16084910369035305  1.0000
  H   H3        1.0  0.47675493066245167  0.8618289802393662  0.8820747419345593  1.0000
  H   H4        1.0  0.5232475041487347  0.13817574002347746  0.11791841229963043  1.0000
  H   H5        1.0  0.32955940858354893  0.7394193693195417  0.9895391462797107  1.0000
  H   H6        1.0  0.6704390562197203  0.26058998152231533  0.010455682396660344  1.0000
  H   H7        1.0  0.43096748643588956  0.7070025395302153  0.09171815380661737  1.0000
  H   H8        1.0  0.5690324428731657  0.2930077679389242  0.9082767007321949  1.0000
  H   H9        1.0  0.44863153513568915  0.5958834306757907  0.03953265072164669  1.0000
  H   H10       1.0  0.5513674852468494  0.40412402744875925  0.9604660204128592  1.0000
  H   H11       1.0  0.8805126517897789  0.8197692732197694  0.9375098661397134  1.0000
  H   H12       1.0  0.11948623687657539  0.1802297009776765  0.0624951152645323  1.0000
  H   H13       1.0  0.7630941481806699  0.7652555596926472  0.042446902905425174  1.0000
  H   H14       1.0  0.236903588922658  0.2347443626868112  0.9575540322733361  1.0000
  H   H15       1.0  0.9539830568298412  0.7034834436719705  0.1411288328228436  1.0000
  H   H16       1.0  0.046011807420484295  0.2965173609594841  0.858875320644195  1.0000
  H   H17       1.0  0.03612909566767539  0.6170222407968637  0.060808592564065136  1.0000
  H   H18       1.0  0.9638683319938006  0.3829757674964042  0.9391978982452829  1.0000
  H   H19       1.0  0.9165590777096354  0.5698701407374642  0.16482457301252418  1.0000
  H   H20       1.0  0.08343491801866067  0.4301306518020026  0.8351797583594165  1.0000
  H   H21       1.0  0.752652321975589  0.6252335571156776  0.5409124968227488  1.0000
  H   H22       1.0  0.2473514421242982  0.37476364512424704  0.45908545827607844  1.0000
  H   H23       1.0  0.7006680917237842  0.47260561662663736  0.5057381225871751  1.0000
  H   H24       1.0  0.2993336610433132  0.5273924985110553  0.4942598023599345  1.0000
  H   H25       1.0  0.5384982277490947  0.5477774964297949  0.3711945704528859  1.0000
  H   H26       1.0  0.4615023453036642  0.4522186971681703  0.6288083203959404  1.0000
  H   H27       1.0  0.42796797048761437  0.7755097887996951  0.27218353688405045  1.0000
  H   H28       1.0  0.5720354771685977  0.22448551790782995  0.72781690331027  1.0000
  H   H29       1.0  0.48199824258752244  0.9276119470114066  0.3033488194375949  1.0000
  H   H30       1.0  0.5180078475383638  0.07238624250157949  0.6966459130836853  1.0000
  H   H31       1.0  0.7548563125308901  0.8354474862299527  0.23613891771517367  1.0000
  H   H32       1.0  0.24514813186262774  0.16455632577356027  0.7638534990369551  1.0000
  H   H33       1.0  0.8673502732346066  0.9327349712436965  0.04747444302937267  1.0000
  H   H34       1.0  0.13265312841211596  0.06727538923184538  0.9525189322560551  1.0000
  H   H35       1.0  0.9311658334744377  0.11859348753613118  0.9994017209025686  1.0000
  H   H36       1.0  0.06883410983824936  0.8814167828254114  0.0005992747064241078  1.0000
  H   H37       1.0  0.8773318783584328  0.20995444820960066  0.1411743478773318  1.0000
  H   H38       1.0  0.1226624934730083  0.7900510260919231  0.8588323036798189  1.0000
  H   H39       1.0  0.7621206521457111  0.11645772293287847  0.32765818825848914  1.0000
  H   H40       1.0  0.23787443723659146  0.8835393305564734  0.672346151691997  1.0000
  H   H41       1.0  0.9949725746352982  0.6147429250565819  0.48839214687733795  1.0000
  H   H42       1.0  0.005022324768148714  0.3852607307428214  0.5116060649975938  1.0000
  H   H43       1.0  0.07565204701463564  0.5380735301801564  0.3355292538294422  1.0000
  H   H44       1.0  0.9243451397607882  0.46192827100126266  0.6644701417925064  1.0000
  H   H45       1.0  0.20181462738032244  0.6464640293099675  0.16379171485179  1.0000
  H   H46       1.0  0.7981857152890937  0.3535359293454545  0.8362086866122668  1.0000
  H   H47       1.0  0.24255759819612163  0.8369374254640646  0.1396905571184845  1.0000
  H   H48       1.0  0.7574444393624231  0.1630597247611831  0.8603123595927827  1.0000
  H   H49       1.0  0.16373756245725693  0.9137138366842733  0.289662893682497  1.0000
  H   H50       1.0  0.8362664864340769  0.08628240064319927  0.7103400531804881  1.0000
  H   H51       1.0  0.28641312993093493  0.781947973052702  0.4789292362064757  1.0000
  H   H52       1.0  0.71358684538761  0.21804728064842036  0.5210726832412292  1.0000
  H   H53       1.0  0.4542814690929049  0.6680788123543165  0.6132570047000813  1.0000
  H   H54       1.0  0.5457191022093966  0.3319173858821002  0.3867451185149663  1.0000
  H   H55       1.0  0.4123509011871106  0.5438774350799348  0.827854338605157  1.0000
  H   H56       1.0  0.5876496736160989  0.456118753879579  0.17214931987743415  1.0000
  H   H57       1.0  0.2015129561892336  0.5349508814270864  0.9065367730843192  1.0000
  H   H58       1.0  0.7984875677067647  0.46504249811052745  0.0934659182864336  1.0000
  H   H59       1.0  0.031229391318717548  0.653004203259023  0.7721568292143249  1.0000
  H   H60       1.0  0.9687722753880408  0.3469882512888275  0.22784607021305456  1.0000
  H   H61       1.0  0.5705840247638817  0.0983103843885189  0.4307301058426846  1.0000
  H   H62       1.0  0.4294130619475779  0.9016857933106408  0.5692681231893459  1.0000
  H   H63       1.0  0.483098666129159  0.05908053724405698  0.3669057287391553  1.0000
  H   H64       1.0  0.5169013021875697  0.9409147350108639  0.6330931201734559  1.0000
  H   H65       1.0  0.12022471724467466  0.9777624079921877  0.4266754591390622  1.0000
  H   H66       1.0  0.8797770021197451  0.022232851339111896  0.5733291750339262  1.0000
  H   H67       1.0  0.9732671762390974  0.027160630455952593  0.37724972135340823  1.0000
  H   H68       1.0  0.02673371675822981  0.9728374493975093  0.6227522196674615  1.0000
  C   C1        1.0  0.5062011100786207  0.7595444478323258  0.9134687988568829  1.0000
  C   C2        1.0  0.49380073750107556  0.24045930470298046  0.0865279897788228  1.0000
  C   C3        1.0  0.4242558569237147  0.6963554824869786  0.014838781457342512  1.0000
  C   C4        1.0  0.5757426113804627  0.3036538590779756  0.9851575824865719  1.0000
  C   C5        1.0  0.8547086257440097  0.7353937076032577  0.004338149964226533  1.0000
  C   C6        1.0  0.14529085015383464  0.2646062343217252  0.9956631970385035  1.0000
  C   C7        1.0  0.9457248629816281  0.651437310587461  0.09769133233015018  1.0000
  C   C8        1.0  0.05427114407945772  0.3485625690542306  0.9023130291935076  1.0000
  C   C9        1.0  0.6218647650349282  0.7862531873013837  0.42430195180542546  1.0000
  C   C10       1.0  0.3781386791203756  0.2137421286830374  0.5756969531213515  1.0000
  C   C11       1.0  0.6822668669139701  0.6577267544061411  0.4812440297618323  1.0000
  C   C12       1.0  0.317736895435459  0.34227045247222776  0.5187531577032162  1.0000
  C   C13       1.0  0.6525632219642927  0.5721962638129127  0.4618480767928546  1.0000
  C   C14       1.0  0.34744049998064935  0.4277981058128545  0.5381527493629862  1.0000
  C   C15       1.0  0.5614911457985058  0.6146060310962793  0.3862390211611243  1.0000
  C   C16       1.0  0.4385119836635879  0.38538738471729767  0.6137631364949173  1.0000
  C   C17       1.0  0.49979878216617374  0.7422771415321348  0.3305658348289456  1.0000
  C   C18       1.0  0.500203793467108  0.25771816236030526  0.6694332480027327  1.0000
  C   C19       1.0  0.5300806261185756  0.8280562741339421  0.3488488559822899  1.0000
  C   C20       1.0  0.4699239538456723  0.17193813541451414  0.6511471864660195  1.0000
  C   C21       1.0  0.7498742737198824  0.9690494306038531  0.2954318573281822  1.0000
  C   C22       1.0  0.2501234546311792  0.030950514967855693  0.7045652396817205  1.0000
  C   C23       1.0  0.7810997209695143  0.9177875189184873  0.21563489729543045  1.0000
  C   C24       1.0  0.21889841863782067  0.0822199595832203  0.7843585783075753  1.0000
  C   C25       1.0  0.8456603780555197  0.9719215702611234  0.10971131924650035  1.0000
  C   C26       1.0  0.1543386827315061  0.028088725116027995  0.8902837131972208  1.0000
  C   C27       1.0  0.8814957323163739  0.0763273309254586  0.08261910824093374  1.0000
  C   C28       1.0  0.1185016001788598  0.9236829170754743  0.9173801181814554  1.0000
  C   C29       1.0  0.8510911513793998  0.12769164400018695  0.1616354191397775  1.0000
  C   C30       1.0  0.14890005930667624  0.8723156867426737  0.8383679236739496  1.0000
  C   C31       1.0  0.7854120731728853  0.07483710159338837  0.2671136505103605  1.0000
  C   C32       1.0  0.2145810522829236  0.9251636834925422  0.7328900911327167  1.0000
  C   C33       1.0  0.07647990797880767  0.7668038199716205  0.40142424610505867  1.0000
  C   C34       1.0  0.9235192918798558  0.23319706367357168  0.5985759473023793  1.0000
  C   C35       1.0  0.05106702429220894  0.6619161062022909  0.41245978945432443  1.0000
  C   C36       1.0  0.9489301642336655  0.33808569034068364  0.5875403738013887  1.0000
  C   C37       1.0  0.09599273597875416  0.6190933137782294  0.3272984020592844  1.0000
  C   C38       1.0  0.9040047268358434  0.38090754568298735  0.6727021471579563  1.0000
  C   C39       1.0  0.1664460508584327  0.6809871817896392  0.2296902974457851  1.0000
  C   C40       1.0  0.8335514084552641  0.3190136869484731  0.7703087165039054  1.0000
  C   C41       1.0  0.18966455564395804  0.786975219750452  0.21688729591124906  1.0000
  C   C42       1.0  0.8103372058753989  0.2130228721949976  0.7831144672047189  1.0000
  C   C43       1.0  0.14489308844228083  0.8302665095954038  0.30200777184506233  1.0000
  C   C44       1.0  0.855108398788353  0.169732519431804  0.6979936053093854  1.0000
  C   C45       1.0  0.147129389367059  0.7255799491296385  0.6170404878243475  1.0000
  C   C46       1.0  0.8528703151636704  0.2744162323763462  0.38296258092938024  1.0000
  C   C47       1.0  0.2666910852811881  0.7293444623227427  0.5727389564562132  1.0000
  C   C48       1.0  0.7333071547437554  0.2706507625559594  0.42726408643507346  1.0000
  C   C49       1.0  0.3616554716937799  0.6649206834756709  0.6483928661963461  1.0000
  C   C50       1.0  0.6383439550473113  0.33507644438896017  0.35160828132831073  1.0000
  C   C51       1.0  0.33811189895142485  0.595375690710142  0.7687010810703259  1.0000
  C   C52       1.0  0.6618881220229654  0.404622386328235  0.23129950258790186  1.0000
  C   C53       1.0  0.2197401169075731  0.5905399288259899  0.8131375748508134  1.0000
  C   C54       1.0  0.7802627400162477  0.4094544194308937  0.18686496447747913  1.0000
  C   C55       1.0  0.12417434566390986  0.6559763069337875  0.7375750714460666  1.0000
  C   C56       1.0  0.875827046754125  0.34401708469581377  0.262427442019778  1.0000
  C   C57       1.0  0.5377923697892513  0.022267038662498396  0.44198841841144093  1.0000
  C   C58       1.0  0.4622047221735669  0.9777291251213142  0.5580121135219045  1.0000
  C   C59       1.0  0.026237460415380515  0.9732277116583601  0.4559117272122253  1.0000
  C   C60       1.0  0.9737637086211348  0.02676942647489969  0.5440913674039438  1.0000
  S   S1        1.0  0.766968080636957  0.6108660302213593  0.785551863946154  1.0000
  S   S2        1.0  0.23303313230495348  0.3891339358875995  0.21444912724676615  1.0000
  S   S3        1.0  0.7252882212140008  0.9035775786012507  0.7468262047817974  1.0000
  S   S4        1.0  0.27471559379308985  0.09642243306056739  0.2531727174288676  1.0000
  O   O1        1.0  0.6280595859482571  0.7103813619990262  0.954321435981605  1.0000
  O   O2        1.0  0.37193997600992645  0.2896242405158133  0.04567493654085552  1.0000
  O   O3        1.0  0.8499899054157822  0.6653027816494795  0.9447769782810129  1.0000
  O   O4        1.0  0.1500101647153684  0.33469810944924916  0.055223804855288  1.0000
