data_image0
_chemical_formula_structural       Cd2H14C14N14O2
_chemical_formula_sum              "Cd2 H14 C14 N14 O2"
_cell_length_a       6.828497143541338
_cell_length_b       8.424220829087137
_cell_length_c       10.677924820078836
_cell_angle_alpha    71.2719765640216
_cell_angle_beta     70.98773974127995
_cell_angle_gamma    66.19139812470344

_space_group_name_H-M_alt    "P 1"
_space_group_IT_number       1

loop_
  _space_group_symop_operation_xyz
  'x, y, z'

loop_
  _atom_site_type_symbol
  _atom_site_label
  _atom_site_symmetry_multiplicity
  _atom_site_fract_x
  _atom_site_fract_y
  _atom_site_fract_z
  _atom_site_occupancy
  Cd  Cd1       1.0  0.2380420477350921  0.9529749087119657  0.5622498699556573  1.0000
  Cd  Cd2       1.0  0.7619602995197068  0.04702494565757581  0.43775196387220217  1.0000
  H   H1        1.0  0.26197070478928464  0.45468978578924185  0.024473995195449988  1.0000
  H   H2        1.0  0.7380230450582342  0.5453047699235186  0.9755253026374363  1.0000
  H   H3        1.0  0.304054675721673  0.20543440846680744  0.931926289370132  1.0000
  H   H4        1.0  0.6959422045036587  0.7945640733464713  0.06806763038041913  1.0000
  H   H5        1.0  0.2936488739783626  0.2645223753395811  0.6860054320961523  1.0000
  H   H6        1.0  0.7063530851758769  0.7354827051730909  0.31398578192574433  1.0000
  H   H7        1.0  0.2452407364628399  0.5739232730725304  0.5449848370991645  1.0000
  H   H8        1.0  0.7547615768006608  0.4260845065923675  0.4550112370622728  1.0000
  H   H9        1.0  0.28968942975946294  0.8778518573656838  0.02609093415708938  1.0000
  H   H10       1.0  0.71030935374727  0.12214535923812522  0.9739113537642156  1.0000
  H   H11       1.0  0.28203002919835274  0.6546937927944826  0.0783889088958674  1.0000
  H   H12       1.0  0.717965606934932  0.34530346035649023  0.9216158772745612  1.0000
  H   H13       1.0  0.037486107250934673  0.837556234611242  0.07236490285950474  1.0000
  H   H14       1.0  0.962508454590697  0.16244367800708662  0.9276394219460187  1.0000
  C   C1        1.0  0.23856456587850508  0.6455244954418549  0.8320181368637732  1.0000
  C   C2        1.0  0.7614326646966205  0.35447273115575934  0.16798446152080973  1.0000
  C   C3        1.0  0.25996031609238196  0.4778576247181265  0.9184179358980701  1.0000
  C   C4        1.0  0.7400374968982744  0.5221422099541471  0.08157919735189981  1.0000
  C   C5        1.0  0.28188392176114957  0.3375812367087789  0.8663973139762007  1.0000
  C   C6        1.0  0.7181180751438488  0.6624198728764343  0.1335958412176268  1.0000
  C   C7        1.0  0.2783706837791655  0.3692158157932468  0.730972670847983  1.0000
  C   C8        1.0  0.721628128001626  0.6307893012665813  0.26902104142304484  1.0000
  C   C9        1.0  0.2517836222220921  0.541416223995526  0.6514861759032653  1.0000
  C   C10       1.0  0.7482166802249635  0.45858890790984225  0.3485100418883463  1.0000
  C   C11       1.0  0.22636897796427044  0.8016870597704013  0.8763857929573574  1.0000
  C   C12       1.0  0.7736288105118019  0.19830882881375794  0.12361609744839096  1.0000
  C   C13       1.0  0.21241884339355005  0.7891196741000429  0.02110780103012641  1.0000
  C   C14       1.0  0.7875789450825222  0.21087621448410943  0.978894089375622  1.0000
  N   N1        1.0  0.35958187475390685  0.1901652970132162  0.4631560622710539  1.0000
  N   N2        1.0  0.6404267389737367  0.8098265838060003  0.5368493507088276  1.0000
  N   N3        1.0  0.2979310314911102  0.3060801617190023  0.36835129822008367  1.0000
  N   N4        1.0  0.702070158451576  0.6939223852370233  0.6316538288880196  1.0000
  N   N5        1.0  0.24333104053745552  0.4201409411556228  0.2772106617927008  1.0000
  N   N6        1.0  0.7566679725478593  0.5798590242790952  0.7228021182358687  1.0000
  N   N7        1.0  0.1584238608572123  0.9165435126235053  0.3794040137577496  1.0000
  N   N8        1.0  0.8415826325611703  0.0834615875864344  0.6205919008420437  1.0000
  N   N9        1.0  0.2416887328824516  0.9839004516229507  0.26669399363192525  1.0000
  N   N10       1.0  0.7583093719521229  0.016102107040886403  0.7333108157414401  1.0000
  N   N11       1.0  0.32092440756002105  0.046730986155012  0.15760750084110237  1.0000
  N   N12       1.0  0.679073725548605  0.9532794729648517  0.842388732881986  1.0000
  N   N13       1.0  0.23348899273656085  0.6750103981579231  0.7007098072233191  1.0000
  N   N14       1.0  0.7665128796377514  0.3249907611059655  0.2992889799382255  1.0000
  O   O1        1.0  0.22492895002459787  0.944007120433689  0.7920556018883076  1.0000
  O   O2        1.0  0.7750682390403013  0.055990122723486  0.20794887381884308  1.0000
