data_image0
_chemical_formula_structural       Cd2H56C60N12O8
_chemical_formula_sum              "Cd2 H56 C60 N12 O8"
_cell_length_a       9.858642379821502
_cell_length_b       12.154385052402333
_cell_length_c       12.154410941974248
_cell_angle_alpha    105.2028630389188
_cell_angle_beta     98.46888405344978
_cell_angle_gamma    98.46858847418778

_space_group_name_H-M_alt    "P 1"
_space_group_IT_number       1

loop_
  _space_group_symop_operation_xyz
  'x, y, z'

loop_
  _atom_site_type_symbol
  _atom_site_label
  _atom_site_symmetry_multiplicity
  _atom_site_fract_x
  _atom_site_fract_y
  _atom_site_fract_z
  _atom_site_occupancy
  Cd  Cd1       1.0  0.749998351672474  0.3732746681210203  0.6267223649894473  1.0000
  Cd  Cd2       1.0  0.2500005212913052  0.626725348597823  0.3732758413031263  1.0000
  H   H1        1.0  0.9611520594896064  0.6453138779387757  0.7885938254951411  1.0000
  H   H2        1.0  0.5388482653369024  0.21140723633473604  0.35468454218560197  1.0000
  H   H3        1.0  0.03884804533071673  0.3546869948825134  0.21140558283507715  1.0000
  H   H4        1.0  0.4611526548383154  0.7885927644524527  0.6453139100684098  1.0000
  H   H5        1.0  0.5414657456978204  0.5835640124872796  0.6173972343092442  1.0000
  H   H6        1.0  0.9585357167829684  0.3826021293896319  0.41643440693572126  1.0000
  H   H7        1.0  0.45853084338755684  0.41643512543620165  0.3826045718954418  1.0000
  H   H8        1.0  0.041466597435089576  0.6173952326023695  0.5835659790394558  1.0000
  H   H9        1.0  0.9334368112200195  0.9115060640864383  0.7664166847838841  1.0000
  H   H10       1.0  0.566564397604509  0.23358419808561584  0.08849118027477941  1.0000
  H   H11       1.0  0.0665616310340482  0.08849220916650319  0.23358182586009238  1.0000
  H   H12       1.0  0.4334381756649108  0.7664183920503405  0.9115098113089672  1.0000
  H   H13       1.0  0.9935908406333667  0.8597393213429501  0.8834726430655164  1.0000
  H   H14       1.0  0.506410909120021  0.11652756873548498  0.14026099924684837  1.0000
  H   H15       1.0  0.006409273658995591  0.14026156169791898  0.11652512362120146  1.0000
  H   H16       1.0  0.4935906452797028  0.8834750344760848  0.859739048534429  1.0000
  H   H17       1.0  0.8552521290595365  0.8364097873323432  0.1351683711075893  1.0000
  H   H18       1.0  0.6447491020294365  0.8648318728216181  0.16358915569432492  1.0000
  H   H19       1.0  0.14474797576078657  0.16359108548894596  0.8648310372226218  1.0000
  H   H20       1.0  0.3552497756703588  0.13516814900701488  0.8364082297765023  1.0000
  H   H21       1.0  0.9218298280903879  0.7953533627926956  0.006771846986566633  1.0000
  H   H22       1.0  0.578171022053759  0.9932278573186649  0.20464593896306846  1.0000
  H   H23       1.0  0.0781702862019742  0.20464752024816593  0.9932259197001583  1.0000
  H   H24       1.0  0.42182827688370134  0.006773897756289696  0.7953527837998492  1.0000
  H   H25       1.0  0.7452525238354683  0.7429698888639182  0.007402997498431319  1.0000
  H   H26       1.0  0.7547490833635493  0.9925978647653224  0.2570301935581369  1.0000
  H   H27       1.0  0.2547473632619841  0.2570301096695218  0.992596973418351  1.0000
  H   H28       1.0  0.24525102619278982  0.007403013165749397  0.7429683939503278  1.0000
  H   H29       1.0  0.90051799091286  0.13377099125892036  0.7763637130622029  1.0000
  H   H30       1.0  0.599483200986562  0.2236358315082043  0.8662284853549733  1.0000
  H   H31       1.0  0.09948168793376766  0.8662281432062499  0.22363517879766448  1.0000
  H   H32       1.0  0.4005189510451928  0.7763650253814234  0.13377116893667554  1.0000
  H   H33       1.0  0.7179956628117309  0.1075238468881281  0.7296795315695732  1.0000
  H   H34       1.0  0.782004761420943  0.2703206468954135  0.8924743535137764  1.0000
  H   H35       1.0  0.2820064892200235  0.8924770100015067  0.27032012272208306  1.0000
  H   H36       1.0  0.21799594103140416  0.7296784796039334  0.10752466132681356  1.0000
  H   H37       1.0  0.8071009375330929  0.9915585517606115  0.6980091694817289  1.0000
  H   H38       1.0  0.692900484983781  0.30199112790727156  0.008440419366578985  1.0000
  H   H39       1.0  0.19290100151181383  0.0084414359509637  0.3019902265747517  1.0000
  H   H40       1.0  0.30710022220458905  0.6980080037018652  0.9915577746522642  1.0000
  H   H41       1.0  0.2673843747867153  0.4604094274101058  0.6861016586382147  1.0000
  H   H42       1.0  0.2326119197489973  0.31389958455866207  0.5395914701073818  1.0000
  H   H43       1.0  0.732616345314021  0.5395940273963831  0.31390262850623424  1.0000
  H   H44       1.0  0.7673867260198648  0.686099547652752  0.46040894041525593  1.0000
  H   H45       1.0  0.5008283850938398  0.49390252737666873  0.8033489355780857  1.0000
  H   H46       1.0  0.999170209056338  0.1966523169072829  0.5060972033706576  1.0000
  H   H47       1.0  0.4991727562445618  0.5061026606761487  0.19665668885845372  1.0000
  H   H48       1.0  0.0008296827771374873  0.8033476867359468  0.49390194672437804  1.0000
  H   H49       1.0  0.3153783291453749  0.48466645732848684  0.10360977794470468  1.0000
  H   H50       1.0  0.18462232889669383  0.8963908493749667  0.5153292123200897  1.0000
  H   H51       1.0  0.6846202421428345  0.5153282852582848  0.8963952101350116  1.0000
  H   H52       1.0  0.8153798326071068  0.1036100177342476  0.4846688003280803  1.0000
  H   H53       1.0  0.0834151760681578  0.4443029123930273  0.9819444887819911  1.0000
  H   H54       1.0  0.41658606137477255  0.018057652269092703  0.5556943840270208  1.0000
  H   H55       1.0  0.9165854661115984  0.5556918398110468  0.018056641150437296  1.0000
  H   H56       1.0  0.5834130198398313  0.9819432285180196  0.4443049013224679  1.0000
  C   C1        1.0  0.8564183608819037  0.6544539344618555  0.754875540892577  1.0000
  C   C2        1.0  0.6435812387616693  0.24512805825978748  0.3455448366233469  1.0000
  C   C3        1.0  0.1435800719001179  0.34554432857150624  0.24512461139488548  1.0000
  C   C4        1.0  0.3564196766775183  0.7548719374176115  0.6544544364524183  1.0000
  C   C5        1.0  0.6438139558315755  0.6271819509577057  0.669251896353849  1.0000
  C   C6        1.0  0.8561864031945491  0.3307478437675967  0.37281932264279755  1.0000
  C   C7        1.0  0.3561849029241344  0.37281805043176763  0.3307487724039575  1.0000
  C   C8        1.0  0.1438140815349341  0.6692504084439007  0.6271802547843632  1.0000
  C   C9        1.0  0.8992603228122746  0.8731380538355537  0.8322139894836694  1.0000
  C   C10       1.0  0.6007389167120323  0.16778710525881016  0.1268619606540184  1.0000
  C   C11       1.0  0.1007373135589376  0.1268611016710679  0.16778383559301344  1.0000
  C   C12       1.0  0.3992634435705469  0.832214615699087  0.8731387726945525  1.0000
  C   C13       1.0  0.8205877040414293  0.9496012322925793  0.9074358824459735  1.0000
  C   C14       1.0  0.6794124122417955  0.0925642509953448  0.050398402635714504  1.0000
  C   C15       1.0  0.1794119795412215  0.050397907282388084  0.09256218859215438  1.0000
  C   C16       1.0  0.3205868772236257  0.9074374938600301  0.9496019617706962  1.0000
  C   C17       1.0  0.788360098878826  0.9231224786406002  0.00796938030626397  1.0000
  C   C18       1.0  0.7116422982044099  0.9920329832694463  0.07687904309987191  1.0000
  C   C19       1.0  0.21164000120547402  0.0768783890708917  0.9920308488456938  1.0000
  C   C20       1.0  0.2883570007330576  0.007968771805515496  0.9231196796630454  1.0000
  C   C21       1.0  0.8301751124774128  0.8200725141665901  0.0406671748418078  1.0000
  C   C22       1.0  0.6698265653800847  0.9593339888068398  0.17992781060686264  1.0000
  C   C23       1.0  0.16982396873718392  0.17992836662051553  0.959332110507681  1.0000
  C   C24       1.0  0.330172733557383  0.04066776626811469  0.8200709121560549  1.0000
  C   C25       1.0  0.7816338891244355  0.0463828889021869  0.8773010470550772  1.0000
  C   C26       1.0  0.7183637810437773  0.1226977999606618  0.9536163413001544  1.0000
  C   C27       1.0  0.2183637425107534  0.9536162614946377  0.1226975988433452  1.0000
  C   C28       1.0  0.28163303523651706  0.8773022224702558  0.04638326067446745  1.0000
  C   C29       1.0  0.8034834076553423  0.0705745751703475  0.7651620735814075  1.0000
  C   C30       1.0  0.6965183862285543  0.23483791292028391  0.9294243869948529  1.0000
  C   C31       1.0  0.19651729006098148  0.9294245462192093  0.23483776208092166  1.0000
  C   C32       1.0  0.30348252921063323  0.7651620827571148  0.07057488608091227  1.0000
  C   C33       1.0  0.01773652202357569  0.41788871642398107  0.749258605409487  1.0000
  C   C34       1.0  0.4822604076475585  0.2507419114954459  0.5821074662550527  1.0000
  C   C35       1.0  0.9822608729446572  0.5821095392458274  0.25074388636249256  1.0000
  C   C36       1.0  0.5177405172636823  0.7492580944015398  0.41789016517721905  1.0000
  C   C37       1.0  0.15923198317364037  0.44658661118774007  0.8247693125599652  1.0000
  C   C38       1.0  0.3407645196645603  0.17523044714143043  0.5534068116662779  1.0000
  C   C39       1.0  0.8407656153093939  0.5534125034405478  0.17523507909067598  1.0000
  C   C40       1.0  0.6592361969958559  0.824768694687286  0.44658974070907215  1.0000
  C   C41       1.0  0.2790913926272367  0.46431575881979376  0.7774866484238245  1.0000
  C   C42       1.0  0.22090748143703115  0.2225149981230174  0.5356830407110209  1.0000
  C   C43       1.0  0.7209080495524346  0.5356824809183677  0.22251608930960026  1.0000
  C   C44       1.0  0.7790934245301174  0.7774849873347945  0.4643178740082305  1.0000
  C   C45       1.0  0.4114323374549543  0.48450082041476616  0.8453283188032045  1.0000
  C   C46       1.0  0.0885665187173288  0.15467449550511245  0.5155035650560293  1.0000
  C   C47       1.0  0.5885683779097589  0.51550262928194  0.15467678916299116  1.0000
  C   C48       1.0  0.9114346097087064  0.845326369350346  0.4844959662549044  1.0000
  C   C49       1.0  0.4295045343337592  0.4902589004661593  0.9641186672393474  1.0000
  C   C50       1.0  0.0704955029153851  0.03588472627024689  0.5097437072478995  1.0000
  C   C51       1.0  0.5704977975326814  0.5097427898329911  0.035886991039696184  1.0000
  C   C52       1.0  0.9295035688271652  0.9641161442972787  0.4902572197450822  1.0000
  C   C53       1.0  0.308075836470401  0.47731523837941137  0.0116313639148728  1.0000
  C   C54       1.0  0.191924141689789  0.988369235783928  0.5226823869472383  1.0000
  C   C55       1.0  0.691927306014911  0.5226855747758563  0.9883741591097176  1.0000
  C   C56       1.0  0.808073707668264  0.011630788900738799  0.47731569636461296  1.0000
  C   C57       1.0  0.17551471264564364  0.45502664502958373  0.9432560628306277  1.0000
  C   C58       1.0  0.32448494492868457  0.05674407444092111  0.544966906119754  1.0000
  C   C59       1.0  0.8244880038659801  0.5449724297695653  0.05674894372361189  1.0000
  C   C60       1.0  0.6755149611128531  0.9432559445316785  0.45502978151005635  1.0000
  N   N1        1.0  0.7497795776207781  0.5700588614145161  0.6900213977058911  1.0000
  N   N2        1.0  0.7502199668836198  0.3099790693600397  0.42994215140655706  1.0000
  N   N3        1.0  0.2502182527931893  0.42994114283098356  0.30997996889294643  1.0000
  N   N4        1.0  0.24978256032127888  0.6900191618100135  0.5700584928037884  1.0000
  N   N5        1.0  0.6794717537079435  0.7414854876571012  0.7175157246210303  1.0000
  N   N6        1.0  0.8205303409466823  0.2824833194221766  0.25851634487320035  1.0000
  N   N7        1.0  0.3205260767060238  0.2585145165884057  0.2824856419778  1.0000
  N   N8        1.0  0.17947138037536095  0.7175157940015567  0.7414836137698514  1.0000
  N   N9        1.0  0.815097793559211  0.7569281662013053  0.7713260748500587  1.0000
  N   N10       1.0  0.6849019412609323  0.22867669174100064  0.24307143534645084  1.0000
  N   N11       1.0  0.1848996203531144  0.24307010990766995  0.22867313363494185  1.0000
  N   N12       1.0  0.3150999930479586  0.7713232908607851  0.7569287815317765  1.0000
  O   O1        1.0  0.006413158093785381  0.41973265009789873  0.6439220662120632  1.0000
  O   O2        1.0  0.4935871696715353  0.3560791205742434  0.5802674959850335  1.0000
  O   O3        1.0  0.9935889749938838  0.580268186352562  0.3560808713665722  1.0000
  O   O4        1.0  0.5064137457676594  0.6439208751031559  0.4197317770907247  1.0000
  O   O5        1.0  0.9108721290621277  0.3924103468901947  0.7935582812894211  1.0000
  O   O6        1.0  0.5891241564590219  0.20644059400066792  0.6075878414035002  1.0000
  O   O7        1.0  0.0891232376387592  0.6075879451504348  0.20644068123413456  1.0000
  O   O8        1.0  0.4108767637161961  0.7935594067865278  0.39241061085051127  1.0000
