data_image0
_chemical_formula_structural       Cu4H28C16N4O20
_chemical_formula_sum              "Cu4 H28 C16 N4 O20"
_cell_length_a       6.007428459105396
_cell_length_b       9.951281304120657
_cell_length_c       11.165107377474364
_cell_angle_alpha    89.99942267300543
_cell_angle_beta     99.14923910687463
_cell_angle_gamma    90.00009710337652

_space_group_name_H-M_alt    "P 1"
_space_group_IT_number       1

loop_
  _space_group_symop_operation_xyz
  'x, y, z'

loop_
  _atom_site_type_symbol
  _atom_site_label
  _atom_site_symmetry_multiplicity
  _atom_site_fract_x
  _atom_site_fract_y
  _atom_site_fract_z
  _atom_site_occupancy
  Cu  Cu1       1.0  0.8571573447390365  0.2405771819735491  0.7522321106680893  1.0000
  Cu  Cu2       1.0  0.1428512399581052  0.740590835295265  0.7477716272593539  1.0000
  Cu  Cu3       1.0  0.1428366009771196  0.7594174321513519  0.24777356612730025  1.0000
  Cu  Cu4       1.0  0.8571395121554419  0.2594158376145757  0.2522274804044216  1.0000
  H   H1        1.0  0.8784531628904377  0.20889250410277066  0.9826428537931876  1.0000
  H   H2        1.0  0.1215641011747763  0.7088967400980407  0.5173530169842664  1.0000
  H   H3        1.0  0.1215528128960131  0.7911001002771059  0.017355886945615902  1.0000
  H   H4        1.0  0.878439985174076  0.2910828005960652  0.48265271300890333  1.0000
  H   H5        1.0  0.11794928249248933  0.16960895544197999  0.942052951465449  1.0000
  H   H6        1.0  0.8820813103303919  0.6696054825158696  0.5579498859092311  1.0000
  H   H7        1.0  0.8820618526746956  0.8303987223943352  0.057942688983779106  1.0000
  H   H8        1.0  0.1179244364369012  0.3303800875473613  0.4420568951759094  1.0000
  H   H9        1.0  0.4930535833509495  0.2930441197353915  0.8363470843408295  1.0000
  H   H10       1.0  0.5069583803919501  0.7930430499652059  0.6636565092348405  1.0000
  H   H11       1.0  0.5069520107386297  0.7069615482111897  0.16366505686657012  1.0000
  H   H12       1.0  0.4930257554956157  0.20695759359630023  0.3363375006133467  1.0000
  H   H13       1.0  0.4901141616140095  0.49744701470842756  0.6499415638475554  1.0000
  H   H14       1.0  0.5099235257512904  0.9974659008072777  0.8500483102353087  1.0000
  H   H15       1.0  0.5098847399099  0.5025506140828425  0.3500681596582353  1.0000
  H   H16       1.0  0.49009453099967715  0.0025417770651756997  0.1499417076352501  1.0000
  H   H17       1.0  0.2717170433295593  0.3871654895380843  0.6731873771307377  1.0000
  H   H18       1.0  0.7283103098940772  0.8871698005030028  0.8268096641723091  1.0000
  H   H19       1.0  0.7282885762055641  0.6128261098735803  0.3268238707699354  1.0000
  H   H20       1.0  0.2716908882106637  0.11282581862106157  0.1731787762509427  1.0000
  H   H21       1.0  0.7216252796322282  0.4387956389259741  0.9550423488615892  1.0000
  H   H22       1.0  0.2783885684292926  0.9387957011238227  0.544953871247138  1.0000
  H   H23       1.0  0.2783839152053035  0.5612130437543144  0.04496206751711902  1.0000
  H   H24       1.0  0.7216141883081023  0.0612099669315356  0.45503919372403356  1.0000
  H   H25       1.0  0.5350406272037845  0.546056658174052  0.8585328544699209  1.0000
  H   H26       1.0  0.4649700742644711  0.0460639710348048  0.6414566657384527  1.0000
  H   H27       1.0  0.4649738033527129  0.45394800495952126  0.1414657815977236  1.0000
  H   H28       1.0  0.5350121467405985  0.95394672143734  0.35854522663117905  1.0000
  C   C1        1.0  0.4523524109637904  0.3921569218464711  0.6696738779113574  1.0000
  C   C2        1.0  0.5476750447427748  0.8921710512643484  0.8303195461210393  1.0000
  C   C3        1.0  0.5476533103576814  0.6078386971687876  0.3303337964981381  1.0000
  C   C4        1.0  0.4523261533627476  0.1078356217126526  0.16966889425376055  1.0000
  C   C5        1.0  0.5133249180732946  0.3123778848168755  0.5646479038646248  1.0000
  C   C6        1.0  0.4866935373601537  0.8123917407136857  0.9353650848530678  1.0000
  C   C7        1.0  0.4866773297333111  0.6876217537606093  0.435363028500781  1.0000
  C   C8        1.0  0.5132872267989725  0.1876179469093628  0.06462860945543981  1.0000
  C   C9        1.0  0.669513200195077  0.47095282105576075  0.8605077146077917  1.0000
  C   C10       1.0  0.3305074975960665  0.9709578745290909  0.6394852811211251  1.0000
  C   C11       1.0  0.3304977059530287  0.5290488273596309  0.13949596618336815  1.0000
  C   C12       1.0  0.6694800354675152  0.029048798411871187  0.3605081508322741  1.0000
  C   C13       1.0  0.8758229533785737  0.5302028509092123  0.8146975907772571  1.0000
  C   C14       1.0  0.12416547338763453  0.030201259483206403  0.6853025248491917  1.0000
  C   C15       1.0  0.12417781213620319  0.46980482687548886  0.1853060368557706  1.0000
  C   C16       1.0  0.8758154180028228  0.9697903400427562  0.31468670269664767  1.0000
  N   N1        1.0  0.5874071885682  0.35243379106497486  0.7871078404335066  1.0000
  N   N2        1.0  0.41261157780972  0.8524410969224049  0.7128940767688832  1.0000
  N   N3        1.0  0.41259853275355607  0.6475658475331727  0.2128998339583674  1.0000
  N   N4        1.0  0.5873792251968695  0.14756557599778825  0.2871032441581107  1.0000
  O   O1        1.0  0.7011910419607903  0.24582061683604903  0.583409627687729  1.0000
  O   O2        1.0  0.2988226265087306  0.7458475558259606  0.9165936441000753  1.0000
  O   O3        1.0  0.2988163652252922  0.7541760070749034  0.4165982044673768  1.0000
  O   O4        1.0  0.7011749708497491  0.2541691660617005  0.0834025210461604  1.0000
  O   O5        1.0  0.3923408607377397  0.316302531766631  0.4621031224832635  1.0000
  O   O6        1.0  0.6076575837135109  0.8163221148338166  0.03788518216640569  1.0000
  O   O7        1.0  0.6076581171257943  0.6836961019358936  0.537903920912953  1.0000
  O   O8        1.0  0.3923452239171326  0.18368656791906088  0.962106096054768  1.0000
  O   O9        1.0  0.023166705245358802  0.45109615981658624  0.7882011722232177  1.0000
  O   O10       1.0  0.9768676802655991  0.951113115666608  0.7117861125666849  1.0000
  O   O11       1.0  0.9768444044747469  0.5489034788487855  0.21179536162963328  1.0000
  O   O12       1.0  0.023085238483986407  0.048882503582461795  0.2881763122647172  1.0000
  O   O13       1.0  0.8820193756661397  0.6590194710983893  0.8078878006426748  1.0000
  O   O14       1.0  0.11799931284201652  0.1590167895201304  0.6921175987776209  1.0000
  O   O15       1.0  0.11798629476271572  0.3409821772808428  0.1921216604771772  1.0000
  O   O16       1.0  0.8819960133807427  0.8409818441254943  0.30789895617085256  1.0000
  O   O17       1.0  0.9495579245749896  0.1664682288465612  0.9177843079790549  1.0000
  O   O18       1.0  0.050459104554327915  0.6664696304229735  0.582219975010382  1.0000
  O   O19       1.0  0.050441155074196296  0.8335243755023496  0.0822191619700234  1.0000
  O   O20       1.0  0.9495415591723456  0.3335089053651075  0.4177872262239362  1.0000
