data_image0
_chemical_formula_structural       Cu2H24C32N16
_chemical_formula_sum              "Cu2 H24 C32 N16"
_cell_length_a       9.074992027900056
_cell_length_b       9.97990247285671
_cell_length_c       11.248712363113903
_cell_angle_alpha    74.91708747612896
_cell_angle_beta     66.20043986516744
_cell_angle_gamma    62.96163716308183

_space_group_name_H-M_alt    "P 1"
_space_group_IT_number       1

loop_
  _space_group_symop_operation_xyz
  'x, y, z'

loop_
  _atom_site_type_symbol
  _atom_site_label
  _atom_site_symmetry_multiplicity
  _atom_site_fract_x
  _atom_site_fract_y
  _atom_site_fract_z
  _atom_site_occupancy
  Cu  Cu1       1.0  8.181730350262627e-07  5.325685635006375e-07  0.49999876736620064  1.0000
  Cu  Cu2       1.0  0.4999989273475334  0.49999806587189993  7.709581880171176e-07  1.0000
  H   H1        1.0  0.20532525740807  0.8394828972329905  0.680748632377096  1.0000
  H   H2        1.0  0.27427718484258173  0.33943214401804067  0.1809067899939905  1.0000
  H   H3        1.0  0.7946764992182195  0.16051884676925005  0.31924693791718556  1.0000
  H   H4        1.0  0.7257197926418327  0.6605650518284067  0.8190923926413234  1.0000
  H   H5        1.0  0.36327952494815446  0.8984283371976433  0.7829193820104265  1.0000
  H   H6        1.0  0.9551757913839795  0.398460990526509  0.2830835574943509  1.0000
  H   H7        1.0  0.6367224626803818  0.1015711501777901  0.21707596594484374  1.0000
  H   H8        1.0  0.04481938748861587  0.6015418518419297  0.7169155931407475  1.0000
  H   H9        1.0  0.2792896673227858  0.31995801914430905  0.5358620863418011  1.0000
  H   H10       1.0  0.8650658046303266  0.8197417379486822  0.035633900773191896  1.0000
  H   H11       1.0  0.7207095213718017  0.6800414234190131  0.46413849432796894  1.0000
  H   H12       1.0  0.13493425866710848  0.1802610845998842  0.9643676012528175  1.0000
  H   H13       1.0  0.12961381159641402  0.24015445349368753  0.44134520944544425  1.0000
  H   H14       1.0  0.1891050417809266  0.7398874962020301  0.941215256038632  1.0000
  H   H15       1.0  0.8703888474143181  0.7598450086896167  0.5586530937722927  1.0000
  H   H16       1.0  0.8108934103442208  0.26011304349312786  0.05878908489737008  1.0000
  H   H17       1.0  0.548608952425873  0.14399984837267252  0.6769369955838583  1.0000
  H   H18       1.0  0.6304297233933835  0.6440740282088911  0.17680827880840871  1.0000
  H   H19       1.0  0.4513874203654424  0.85600183883858  0.3230651950934417  1.0000
  H   H20       1.0  0.3695687831067433  0.35592881189071335  0.8231911577386413  1.0000
  H   H21       1.0  0.41503160102018904  0.09425023574974034  0.8299484252318123  1.0000
  H   H22       1.0  0.660640381844054  0.5942716855686071  0.329843641620748  1.0000
  H   H23       1.0  0.584962692437294  0.9057525989776  0.170051615186793  1.0000
  H   H24       1.0  0.33935656785876483  0.4057311720820209  0.6701537294473425  1.0000
  C   C1        1.0  0.25785913763191814  0.6687016242916429  0.4377549704884771  1.0000
  C   C2        1.0  0.6356475164111186  0.16875551010973314  0.9376989317311198  1.0000
  C   C3        1.0  0.742139688184082  0.33129668066552403  0.5622465847445354  1.0000
  C   C4        1.0  0.36435322908077683  0.8312439149025579  0.06230371441760953  1.0000
  C   C5        1.0  0.43162763097944873  0.4627314456458437  0.31625006133187133  1.0000
  C   C6        1.0  0.7890168465266638  0.962763928146281  0.816180249848287  1.0000
  C   C7        1.0  0.5683761614179654  0.5372634780917098  0.683750752470317  1.0000
  C   C8        1.0  0.21099114194406351  0.037233290423571916  0.1838163373753829  1.0000
  C   C9        1.0  0.22460762562165096  0.9448833239487872  0.6520062003781106  1.0000
  C   C10       1.0  0.1784017034410113  0.4447911756195779  0.1520840010527635  1.0000
  C   C11       1.0  0.775389181392555  0.055119511813032304  0.3479937340539579  1.0000
  C   C12       1.0  0.8215946801625761  0.5552071392475212  0.847916378484797  1.0000
  C   C13       1.0  0.31192909593547546  0.9798390345056877  0.7088506900884042  1.0000
  C   C14       1.0  0.9992521878955924  0.4798016284076995  0.20893572066399466  1.0000
  C   C15       1.0  0.6880745198346717  0.020160446263119507  0.2911454416638364  1.0000
  C   C16       1.0  0.0007433646678622062  0.5201989792227409  0.7910606442681214  1.0000
  C   C17       1.0  0.33063463343883365  0.11794083547170696  0.6713875103671114  1.0000
  C   C18       1.0  0.8800316650570678  0.6178656987280251  0.17133785779638097  1.0000
  C   C19       1.0  0.6693666176202627  0.8820597490355625  0.3286115978543904  1.0000
  C   C20       1.0  0.11996485042285321  0.3821360103720367  0.8286617695169414  1.0000
  C   C21       1.0  0.2669980525005117  0.21182592893769234  0.5712570694724377  1.0000
  C   C22       1.0  0.9500439645742204  0.7116343127788982  0.07110888173627217  1.0000
  C   C23       1.0  0.7330065369983811  0.7881712809565898  0.42874051352127657  1.0000
  C   C24       1.0  0.04995439923729336  0.28836850543189035  0.9288931181747558  1.0000
  C   C25       1.0  0.18164726113120366  0.16978436354573742  0.5186222100732536  1.0000
  C   C26       1.0  0.13006872943588368  0.6695746137736408  0.01853716204795565  1.0000
  C   C27       1.0  0.8183551063452512  0.8302139719758161  0.4813757860257371  1.0000
  C   C28       1.0  0.8699295024992892  0.33042481020417824  0.9814655900873107  1.0000
  C   C29       1.0  0.4112371231966988  0.16574495249678733  0.7377642148583591  1.0000
  C   C30       1.0  0.6852089161142415  0.6657745744571458  0.23766734729626654  1.0000
  C   C31       1.0  0.5887596838175071  0.8342578832650251  0.26223571957370945  1.0000
  C   C32       1.0  0.3147913612161024  0.33422828092464846  0.7623303096837688  1.0000
  N   N1        1.0  0.18090112991143303  0.7952468967993697  0.4634138930799736  1.0000
  N   N2        1.0  0.5606149184414374  0.29526521873180667  0.9634346982875995  1.0000
  N   N3        1.0  0.819096287952938  0.20475253048175554  0.5365884671568111  1.0000
  N   N4        1.0  0.4393797888026113  0.704731885221591  0.0365752356886659  1.0000
  N   N5        1.0  0.33888153972593915  0.526251284463456  0.4248735541026393  1.0000
  N   N6        1.0  0.7097193477727117  0.026316500366178306  0.9247711024131818  1.0000
  N   N7        1.0  0.6611135242396385  0.4737458742119858  0.5751299714636674  1.0000
  N   N8        1.0  0.29029965784138045  0.9736818238111984  0.07522832324554686  1.0000
  N   N9        1.0  0.5177176829574178  0.39282481691246574  0.2243461038387409  1.0000
  N   N10       1.0  0.8647984050152426  0.8927535140966543  0.7243336679784917  1.0000
  N   N11       1.0  0.48228716067010385  0.6071689297790857  0.7756603133696344  1.0000
  N   N12       1.0  0.1351985011248686  0.10724367080538853  0.2756667963388111  1.0000
  N   N13       1.0  0.1567960722542949  0.040174235779858215  0.5607446946328096  1.0000
  N   N14       1.0  0.2423011014338028  0.5400114066313154  0.06075445652842149  1.0000
  N   N15       1.0  0.8432057726856285  0.9598252297067592  0.43925321668644574  1.0000
  N   N16       1.0  0.7576977243822042  0.45998689832585177  0.9392470987045982  1.0000
