data_image0
_chemical_formula_structural       Cu2H30C38N4O8
_chemical_formula_sum              "Cu2 H30 C38 N4 O8"
_cell_length_a       8.430029466665939
_cell_length_b       9.208019364636433
_cell_length_c       11.512051947756984
_cell_angle_alpha    110.11295207946773
_cell_angle_beta     93.45936841144334
_cell_angle_gamma    87.77397384879706

_space_group_name_H-M_alt    "P 1"
_space_group_IT_number       1

loop_
  _space_group_symop_operation_xyz
  'x, y, z'

loop_
  _atom_site_type_symbol
  _atom_site_label
  _atom_site_symmetry_multiplicity
  _atom_site_fract_x
  _atom_site_fract_y
  _atom_site_fract_z
  _atom_site_occupancy
  Cu  Cu1       1.0  0.12255300923185082  0.3482846342836581  0.21405391869228654  1.0000
  Cu  Cu2       1.0  0.8774311150735414  0.6517210834291945  0.7859592395368724  1.0000
  H   H1        1.0  0.8017818840445798  0.8971029322853781  0.24527722689443726  1.0000
  H   H2        1.0  0.198214128245624  0.1029024637499063  0.7547372206348018  1.0000
  H   H3        1.0  0.6597494151479281  0.9539026536978386  0.6136614819064123  1.0000
  H   H4        1.0  0.34024411719371983  0.0460852995609287  0.3863538834389503  1.0000
  H   H5        1.0  0.9544729660575371  0.2928378535431406  0.5537269387813879  1.0000
  H   H6        1.0  0.045494518939300094  0.7071720029159891  0.4462771431595912  1.0000
  H   H7        1.0  0.5046649562052394  0.752840779349519  0.5095261145703347  1.0000
  H   H8        1.0  0.49536422110701733  0.24714891069287862  0.4904791310887404  1.0000
  H   H9        1.0  0.709156259405141  0.6895708446708186  0.5148575552172547  1.0000
  H   H10       1.0  0.29086923241403884  0.3104041113741616  0.48513544023969507  1.0000
  H   H11       1.0  0.7955907825198096  0.4307060412721598  0.3537300612262086  1.0000
  H   H12       1.0  0.2044168512181841  0.5692721793032332  0.6462439947449496  1.0000
  H   H13       1.0  0.7023527951925743  0.17970359521788026  0.19855473315114844  1.0000
  H   H14       1.0  0.2976287830534048  0.8202891563452466  0.8014224094975051  1.0000
  H   H15       1.0  0.4128520102196375  0.1481111514685551  0.13633106930265632  1.0000
  H   H16       1.0  0.5871249520004865  0.8518950892072044  0.8636688986414642  1.0000
  H   H17       1.0  0.30875988696554657  0.594648815310869  0.36743118283938986  1.0000
  H   H18       1.0  0.6912575061325938  0.40535495554799184  0.6325811110165774  1.0000
  H   H19       1.0  0.7818419944476602  0.0640750464485436  0.8066383354488665  1.0000
  H   H20       1.0  0.2181564011356372  0.9359302210930379  0.19337878429969632  1.0000
  H   H21       1.0  0.607909814852313  0.17507358703065987  0.7834663663783205  1.0000
  H   H22       1.0  0.39210387987193945  0.8249180829062085  0.2165222765025305  1.0000
  H   H23       1.0  0.5971054198241247  0.46512278335531937  0.9069287532006812  1.0000
  H   H24       1.0  0.4029107239962856  0.5348879208594113  0.09304292422338994  1.0000
  H   H25       1.0  0.6892154981829819  0.6732612832747051  0.1047221400837799  1.0000
  H   H26       1.0  0.3107899513285588  0.32674592352351783  0.8952593560043385  1.0000
  H   H27       1.0  0.9222554008040192  0.6190562101996093  0.22681226488647616  1.0000
  H   H28       1.0  0.07774765761451621  0.38094996895005556  0.7731662234705611  1.0000
  H   H29       1.0  0.9648025491317327  0.16644942613195474  0.9820154567100658  1.0000
  H   H30       1.0  0.0351612262875705  0.8335372596294093  0.01798696051417894  1.0000
  C   C1        1.0  0.9750733748841542  0.15672305309077222  0.30577106998113385  1.0000
  C   C2        1.0  0.024922717102164406  0.8432951292502368  0.6942444813638888  1.0000
  C   C3        1.0  0.884112791896186  0.10161021571938993  0.3910531448698791  1.0000
  C   C4        1.0  0.11587850059747501  0.898394910289639  0.6089757904578549  1.0000
  C   C5        1.0  0.7995891511485668  0.9642736879529468  0.34359907529971434  1.0000
  C   C6        1.0  0.2004198393789736  0.035720024242181105  0.656404726403139  1.0000
  C   C7        1.0  0.7201938069248612  0.9116739900125952  0.4240998423555667  1.0000
  C   C8        1.0  0.27982229889830984  0.0883197262332658  0.5758973173951959  1.0000
  C   C9        1.0  0.7212968142426847  0.9956611613558554  0.5514562845133144  1.0000
  C   C10       1.0  0.2787157614010951  0.0043359754641372015  0.448546927291119  1.0000
  C   C11       1.0  0.8067624432819969  0.132779719976412  0.5968235396397931  1.0000
  C   C12       1.0  0.1932513307910853  0.8672185201957987  0.40318091265046263  1.0000
  C   C13       1.0  0.8872005008095415  0.18672597051855888  0.5174541385512441  1.0000
  C   C14       1.0  0.1127991101623991  0.813285185339737  0.4825595278319101  1.0000
  C   C15       1.0  0.6045556980982382  0.6925387428453433  0.4534173215454871  1.0000
  C   C16       1.0  0.39547228621290037  0.3074522706975245  0.546583043295378  1.0000
  C   C17       1.0  0.5579592016027703  0.5334376392840452  0.37062242717831856  1.0000
  C   C18       1.0  0.4420485525179815  0.46655290932434923  0.629369978032216  1.0000
  C   C19       1.0  0.6701852150765432  0.4146794284760136  0.3240568405629247  1.0000
  C   C20       1.0  0.32981412223328727  0.585301221864107  0.675921036596229  1.0000
  C   C21       1.0  0.6182885244131314  0.2741504611458012  0.23846561316356943  1.0000
  C   C22       1.0  0.38170270773525067  0.7258603205459052  0.7615258620081067  1.0000
  C   C23       1.0  0.45759148399304905  0.25590319822975977  0.20326463097001124  1.0000
  C   C24       1.0  0.5423913971277372  0.7441019202308681  0.7967283168073679  1.0000
  C   C25       1.0  0.3991098425883309  0.505068892613302  0.3319466520231344  1.0000
  C   C26       1.0  0.6008945180203185  0.4949446851602985  0.668059233483298  1.0000
  C   C27       1.0  0.7367160424903858  0.17833499487826288  0.8077143598911789  1.0000
  C   C28       1.0  0.2632750495870013  0.82164626458885  0.19229200880842978  1.0000
  C   C29       1.0  0.7754333090737404  0.300720497824507  0.9302301795557784  1.0000
  C   C30       1.0  0.22454717722278159  0.6992823910180378  0.06976114952112773  1.0000
  C   C31       1.0  0.6959597565626581  0.4443504363045109  0.9650320378772793  1.0000
  C   C32       1.0  0.3040397214831216  0.5556497767994131  0.034954992066459994  1.0000
  C   C33       1.0  0.7471741390709212  0.5596599110184428  0.07369770875350669  1.0000
  C   C34       1.0  0.2528300506241976  0.44033319989910086  0.9262892034736154  1.0000
  C   C35       1.0  0.8764774990073647  0.5297182748312038  0.14336498951841753  1.0000
  C   C36       1.0  0.12351725416097989  0.4702854574641508  0.856625462962569  1.0000
  C   C37       1.0  0.9016797163951297  0.2777487148162124  0.006156428209124023  1.0000
  C   C38       1.0  0.0983018777782334  0.7222376373674352  0.9938423182025816  1.0000
  N   N1        1.0  0.3474237402623856  0.3692033439852551  0.24945240119805595  1.0000
  N   N2        1.0  0.6525663629712781  0.6308117713609532  0.7505524451142734  1.0000
  N   N3        1.0  0.9530705163836899  0.390363563161806  0.1114096430676241  1.0000
  N   N4        1.0  0.04692194131514071  0.6096455284112494  0.8886005092611386  1.0000
  O   O1        1.0  0.9797227774039786  0.07517357526957369  0.19258997864935887  1.0000
  O   O2        1.0  0.020276907161076003  0.9248504356353563  0.8074222047360422  1.0000
  O   O3        1.0  0.0418413958369896  0.2890509911291375  0.3555297113991501  1.0000
  O   O4        1.0  0.9581536472681265  0.7109830633753021  0.6445034284752751  1.0000
  O   O5        1.0  0.6443439296719191  0.7731979865429892  0.3712143813968965  1.0000
  O   O6        1.0  0.3556733871239572  0.2267954477764746  0.6287923060397277  1.0000
  O   O7        1.0  0.8187815747243407  0.2236976660113896  0.7191899644573355  1.0000
  O   O8        1.0  0.18123805855920236  0.7762876843004066  0.2808118729892329  1.0000
