data_image0
_chemical_formula_structural       Zn4H72C92N20
_chemical_formula_sum              "Zn4 H72 C92 N20"
_cell_length_a       18.925651820535304
_cell_length_b       19.303716920897568
_cell_length_c       20.33357063665185
_cell_angle_alpha    107.74143817635729
_cell_angle_beta     105.30956012022403
_cell_angle_gamma    112.33727421235432

_space_group_name_H-M_alt    "P 1"
_space_group_IT_number       1

loop_
  _space_group_symop_operation_xyz
  'x, y, z'

loop_
  _atom_site_type_symbol
  _atom_site_label
  _atom_site_symmetry_multiplicity
  _atom_site_fract_x
  _atom_site_fract_y
  _atom_site_fract_z
  _atom_site_occupancy
  Zn  Zn1       1.0  0.11289365253910688  0.1081381534305521  0.506897074990242  1.0000
  Zn  Zn2       1.0  0.8890417475364459  0.888713001392702  0.49942703473901423  1.0000
  Zn  Zn3       1.0  0.9996162837384973  0.9037534733708554  0.4011812832980014  1.0000
  Zn  Zn4       1.0  0.9944100646376627  0.09198853074355638  0.6000376991254726  1.0000
  H   H1        1.0  0.21398453479447707  0.15600266285276376  0.3965103042667977  1.0000
  H   H2        1.0  0.712877047620893  0.8461017714888684  0.5283108937592546  1.0000
  H   H3        1.0  0.699376105509323  0.2361027088810346  0.32657698860969486  1.0000
  H   H4        1.0  0.7856936750090142  0.17470760947400524  0.3726373950025205  1.0000
  H   H5        1.0  0.05745393278362343  0.32563067167643567  0.4834804485075566  1.0000
  H   H6        1.0  0.1290453373483729  0.47236940282576967  0.5068544372772834  1.0000
  H   H7        1.0  0.12081253691670217  0.5947983242231061  0.4981301629568335  1.0000
  H   H8        1.0  0.24097478295844624  0.8423481777900932  0.5441181206132556  1.0000
  H   H9        1.0  0.38082012641440605  0.1120679076543425  0.6714003974665486  1.0000
  H   H10       1.0  0.6693778760952398  0.18931762085723136  0.7258066049811802  1.0000
  H   H11       1.0  0.7375148817507335  0.11333875411382616  0.6773692818400575  1.0000
  H   H12       1.0  0.8419868284536564  0.6970631344731827  0.4796832217807819  1.0000
  H   H13       1.0  0.87850406689914  0.9110708285127417  0.25975546401834754  1.0000
  H   H14       1.0  0.5970686975436337  0.8428919521214552  0.5486593219956646  1.0000
  H   H15       1.0  0.4466966927714396  0.7634016177760968  0.5233996511749979  1.0000
  H   H16       1.0  0.31632603600871806  0.7636227179650135  0.5237421029485674  1.0000
  H   H17       1.0  0.759723295343683  0.8562430222684299  0.15153936963420042  1.0000
  H   H18       1.0  0.629411571014927  0.7642597586470855  0.03005463712393214  1.0000
  H   H19       1.0  0.49050356193042427  0.5724842705402436  0.8427175484785892  1.0000
  H   H20       1.0  0.3810765851914227  0.432035485176641  0.734141653843615  1.0000
  H   H21       1.0  0.6078514987121296  0.8402653062173187  0.2777238068178107  1.0000
  H   H22       1.0  0.3180053647680553  0.5659841369298348  0.9450212100637286  1.0000
  H   H23       1.0  0.11693988790842276  0.8503815189363378  0.49684107069955263  1.0000
  H   H24       1.0  0.47778404226159676  0.7493121919323114  0.15483621140602818  1.0000
  H   H25       1.0  0.865698016326249  0.1390521510554947  0.5113090629893264  1.0000
  H   H26       1.0  0.20707755193706842  0.42687553362554803  0.8362597598090673  1.0000
  H   H27       1.0  0.2741867549765331  0.06766091425308927  0.9609464867163168  1.0000
  H   H28       1.0  0.2563791036997928  0.15313072467129268  0.16460936561372816  1.0000
  H   H29       1.0  0.2289621000756625  0.15833474423227759  0.2788387219564186  1.0000
  H   H30       1.0  0.00766710287626189  0.8411129092680625  0.7337287543035275  1.0000
  H   H31       1.0  0.1583395698240154  0.8870848703424059  0.07657044350848008  1.0000
  H   H32       1.0  0.04497171347284749  0.8313384880185027  0.856443811332973  1.0000
  H   H33       1.0  0.13634865466833912  0.891942495296469  0.19262130083163956  1.0000
  H   H34       1.0  0.13461780646455418  0.10984668032794788  0.7492484076529351  1.0000
  H   H35       1.0  0.7275684383193876  0.8825972874183065  0.3877381422949854  1.0000
  H   H36       1.0  0.030659983800823933  0.17025513208568552  0.39707883439564273  1.0000
  H   H37       1.0  0.8505495840920219  0.1173969531917791  0.6561126848417373  1.0000
  H   H38       1.0  0.05605562407418328  0.8863090453625091  0.2598137390692727  1.0000
  H   H39       1.0  0.2758166837630753  0.30537689096551895  0.6305075644560957  1.0000
  H   H40       1.0  0.06162505435963089  0.6428735449395546  0.23976370863081806  1.0000
  H   H41       1.0  0.09117762222990684  0.7454287432995627  0.2484306234650617  1.0000
  H   H42       1.0  0.1652385312019079  0.7281160447957191  0.3050526581524339  1.0000
  H   H43       1.0  0.10538111251979404  0.796022984241084  0.38285005935495786  1.0000
  H   H44       1.0  0.07966124781320635  0.6957001071125859  0.3773451941531789  1.0000
  H   H45       1.0  0.9971938768253992  0.839162452637815  0.6119968955236672  1.0000
  H   H46       1.0  0.9369275861057742  0.6324830953037617  0.2717298063129618  1.0000
  H   H47       1.0  0.9612916373282729  0.7313160114480368  0.2747172931756552  1.0000
  H   H48       1.0  0.5984093969317782  0.46241444282919275  0.19184541629290658  1.0000
  H   H49       1.0  0.6716433707369802  0.5708447918243208  0.22895741963023403  1.0000
  H   H50       1.0  0.6524544896398865  0.4978296073517683  0.13922218533802777  1.0000
  H   H51       1.0  0.7913080675572245  0.5416166820012052  0.24242302677980382  1.0000
  H   H52       1.0  0.7213390116842291  0.43296405987471326  0.20374981723867347  1.0000
  H   H53       1.0  0.6864178203168122  0.4550275981311741  0.31458967986755226  1.0000
  H   H54       1.0  0.7423393719250129  0.564517193991385  0.34863300432350297  1.0000
  H   H55       1.0  0.6414642006406125  0.3250253115550236  0.687762058463953  1.0000
  H   H56       1.0  0.2658187114636803  0.1213194989197177  0.632151389968854  1.0000
  H   H57       1.0  0.5834357464768162  0.22181556464133223  0.6109679825186092  1.0000
  H   H58       1.0  0.5575353021602467  0.2991503934150471  0.6033656120584681  1.0000
  H   H59       1.0  0.4522325809327228  0.20128712562658543  0.6314113459989485  1.0000
  H   H60       1.0  0.5102676221673691  0.3038462543934841  0.7079819884394639  1.0000
  H   H61       1.0  0.5021337063817626  0.2110689818427147  0.7655171771906168  1.0000
  H   H62       1.0  0.6071926186399139  0.26302994085401116  0.7776541298393056  1.0000
  H   H63       1.0  0.40373405725187433  0.15236893688182818  0.7995830607691942  1.0000
  H   H64       1.0  0.42153197973344453  0.23489895024135168  0.8826672629840076  1.0000
  H   H65       1.0  0.48449482953777334  0.18627448712080505  0.8895687131477885  1.0000
  H   H66       1.0  0.3753829710037592  0.1313178548555882  0.9359636268191593  1.0000
  H   H67       1.0  0.11627730586346265  0.28489381261762486  0.7500301640285869  1.0000
  H   H68       1.0  0.35682762571472887  0.050156367599200294  0.8525746107572233  1.0000
  H   H69       1.0  0.24995449698906216  0.0748133746325834  0.7733315793542275  1.0000
  H   H70       1.0  0.26444425371921915  0.15080030962472787  0.8580552891304974  1.0000
  H   H71       1.0  0.03518685287070879  0.6568326799981178  0.4603246819230904  1.0000
  H   H72       1.0  0.6906235635271257  0.3533721255658762  0.3116015526469553  1.0000
  C   C1        1.0  0.1699827160121288  0.0891184669131775  0.3718263062167821  1.0000
  C   C2        1.0  0.21863698718970426  0.055857522195715596  0.5933875615343993  1.0000
  C   C3        1.0  0.1456168407547551  0.2767086868595499  0.7111720645172497  1.0000
  C   C4        1.0  0.7578984156555322  0.9131444084055645  0.5576373620296806  1.0000
  C   C5        1.0  0.9374212191865254  0.7173939075548289  0.3673955663167661  1.0000
  C   C6        1.0  0.223301555877562  0.33322895143724196  0.7167509206648646  1.0000
  C   C7        1.0  0.9013195938031657  0.6674296209732943  0.40049805138247047  1.0000
  C   C8        1.0  0.22430128018453388  0.9825965972522324  0.580306965759334  1.0000
  C   C9        1.0  0.08596155846599637  0.9705940968464899  0.709302345899566  1.0000
  C   C10       1.0  0.977552782561034  0.5958458150900796  0.43323200674215906  1.0000
  C   C11       1.0  0.8997776028627984  0.589448430936244  0.39739342174186026  1.0000
  C   C12       1.0  0.7495971986635653  0.9805014797514175  0.5988041090534395  1.0000
  C   C13       1.0  0.8234254540066459  0.5120023231781375  0.36343451070460736  1.0000
  C   C14       1.0  0.8268561407493636  0.44171099315362017  0.36925607863261695  1.0000
  C   C15       1.0  0.9071214975420858  0.44923247075281847  0.40635029930218297  1.0000
  C   C16       1.0  0.8524351455153935  0.907183939146158  0.30093994029021337  1.0000
  C   C17       1.0  0.9834781896691354  0.5272532154401831  0.43762438352758454  1.0000
  C   C18       1.0  0.7527271884048616  0.3615708562533796  0.3402397184511016  1.0000
  C   C19       1.0  0.7574017825879621  0.2954484551389172  0.3484534439982739  1.0000
  C   C20       1.0  0.8369011040494314  0.3014924576038496  0.38506073539601726  1.0000
  C   C21       1.0  0.9120219013548834  0.379697393248172  0.4130346948486406  1.0000
  C   C22       1.0  0.9926875047535758  0.38792036985277173  0.4486862847992795  1.0000
  C   C23       1.0  0.7701636377814938  0.8872601871308633  0.29415076284264796  1.0000
  C   C24       1.0  0.06806426789893295  0.4670107994970181  0.4790043262374938  1.0000
  C   C25       1.0  0.06346495670234735  0.5341618730582169  0.47405182587452543  1.0000
  C   C26       1.0  0.8433295390181712  0.2341886336805388  0.39388647488189577  1.0000
  C   C27       1.0  0.9224554250165439  0.2421118882023308  0.42831208085821976  1.0000
  C   C28       1.0  0.9105694243394639  0.13840363002034203  0.48738620723528214  1.0000
  C   C29       1.0  0.9959583371689645  0.3188503910878708  0.454717392097713  1.0000
  C   C30       1.0  0.30103678313268045  0.9016600017238404  0.5768872057227769  1.0000
  C   C31       1.0  0.30171661280613193  0.9780561779922151  0.6049871359595683  1.0000
  C   C32       1.0  0.38025826585398903  0.0529651092224981  0.6485054674114252  1.0000
  C   C33       1.0  0.4571575266037086  0.0549742674197446  0.6580895696399836  1.0000
  C   C34       1.0  0.9359002686565104  0.1769414033476906  0.4428356153596695  1.0000
  C   C35       1.0  0.45503810902171443  0.9771582310828179  0.6234348888871395  1.0000
  C   C36       1.0  0.37616388212872937  0.8997822161534971  0.5850280630772245  1.0000
  C   C37       1.0  0.53747405673392  0.1330094217278059  0.697374844649147  1.0000
  C   C38       1.0  0.6088438167307543  0.13057137920319664  0.6970779218471889  1.0000
  C   C39       1.0  0.6075310881148824  0.0541381435823567  0.6584688307900564  1.0000
  C   C40       1.0  0.7754613194369641  0.8926529493449208  0.3662067227619304  1.0000
  C   C41       1.0  0.5297010638986781  0.9766388956771481  0.6231997196726626  1.0000
  C   C42       1.0  0.5271481802563615  0.8995890139984012  0.5849195159334571  1.0000
  C   C43       1.0  0.44828328397682077  0.8225464394946085  0.5509360909689748  1.0000
  C   C44       1.0  0.3762283880068937  0.8227354405048999  0.551222184488907  1.0000
  C   C45       1.0  0.22710845062465518  0.28699032711679706  0.6505241975688348  1.0000
  C   C46       1.0  0.6789812859791268  0.05335870325946959  0.651639500501517  1.0000
  C   C47       1.0  0.676112673392325  0.97836834052854  0.6107773707757502  1.0000
  C   C48       1.0  0.6003588403307419  0.902056152479055  0.5795641118896881  1.0000
  C   C49       1.0  0.2858874214183231  0.4178920793349404  0.7774144107780357  1.0000
  C   C50       1.0  0.2692829936318191  0.4582748124977342  0.83731820041519  1.0000
  C   C51       1.0  0.33051052558131744  0.5362953713172159  0.8980152536124635  1.0000
  C   C52       1.0  0.9955661068862793  0.15507365946328378  0.4299813574384429  1.0000
  C   C53       1.0  0.4114397421669196  0.5774694782548406  0.9006141021738044  1.0000
  C   C54       1.0  0.4275148692070089  0.5395950035259742  0.8396982605856633  1.0000
  C   C55       1.0  0.366025456635981  0.4611846680163224  0.7794154447101532  1.0000
  C   C56       1.0  0.8736462285612276  0.7128822577544297  0.44454837908350703  1.0000
  C   C57       1.0  0.6257981484928977  0.7822543361776793  0.08475438151091907  1.0000
  C   C58       1.0  0.6981654845903691  0.8332797246406684  0.15302906664533822  1.0000
  C   C59       1.0  0.5456002908686202  0.7481316575926015  0.08514663601623337  1.0000
  C   C60       1.0  0.694224737768856  0.8517692733333461  0.22443422205250846  1.0000
  C   C61       1.0  0.613491303813973  0.82470033410263  0.2238042070247773  1.0000
  C   C62       1.0  0.5403325742110425  0.7739081106468788  0.15533526620993154  1.0000
  C   C63       1.0  0.17730543011175828  0.024760424737458202  0.24279993327972696  1.0000
  C   C64       1.0  0.8280006121550157  0.0512380123093266  0.6226991421421388  1.0000
  C   C65       1.0  0.16107362924950058  0.9492490951506979  0.18603676646471717  1.0000
  C   C66       1.0  0.17417557961139354  0.9460419474071884  0.12163526133369372  1.0000
  C   C67       1.0  0.14275106187918868  0.9178424040016608  0.5241606358753543  1.0000
  C   C68       1.0  0.20629996366128717  0.019639731122843798  0.11264569870117211  1.0000
  C   C69       1.0  0.23018321803267836  0.09650441200884069  0.1719497060513859  1.0000
  C   C70       1.0  0.2148849146179046  0.09883388592193397  0.23563836008091948  1.0000
  C   C71       1.0  0.2164278069456742  0.0183882300961997  0.9098258724083905  1.0000
  C   C72       1.0  0.19964568014065517  0.0226910198220196  0.840620065085176  1.0000
  C   C73       1.0  0.15921293952268922  0.9519446950731237  0.916707382059279  1.0000
  C   C74       1.0  0.12008658259401284  0.9606450613263106  0.777170733723132  1.0000
  C   C75       1.0  0.0676153271350871  0.889915988241583  0.7828860273398776  1.0000
  C   C76       1.0  0.09042575051859822  0.9515844004866096  0.30276867250844225  1.0000
  C   C77       1.0  0.08731019954517208  0.8841682582304244  0.8509915276843002  1.0000
  C   C78       1.0  0.09413464644103439  0.04493709721596421  0.705719556160858  1.0000
  C   C79       1.0  0.1501926097046749  0.0230659701935423  0.303401522780419  1.0000
  C   C80       1.0  0.9731300768923746  0.7004479416271109  0.3105850753742132  1.0000
  C   C81       1.0  0.06790844171524689  0.7282804951044995  0.3433999774659214  1.0000
  C   C82       1.0  0.09810062841008013  0.7100634431808573  0.28076880603327947  1.0000
  C   C83       1.0  0.7420578062440484  0.5063334173441376  0.3187049196358558  1.0000
  C   C84       1.0  0.7313715215550546  0.4953519962870913  0.2376864840676377  1.0000
  C   C85       1.0  0.6594800785878691  0.5070098010026174  0.19713117986223963  1.0000
  C   C86       1.0  0.5418448089602279  0.21608713993845197  0.7343440962115722  1.0000
  C   C87       1.0  0.5157065189698073  0.24947890897419706  0.6775881288445831  1.0000
  C   C88       1.0  0.5778484577310364  0.27520522342565096  0.6429363197437041  1.0000
  C   C89       1.0  0.02284566208513916  0.9067020295956284  0.6360931368520542  1.0000
  C   C90       1.0  0.26584959167685435  0.09195122399818702  0.8342310362936729  1.0000
  C   C91       1.0  0.3562270705800969  0.10954744345504248  0.8741137992447392  1.0000
  C   C92       1.0  0.42015742003705714  0.1745258580380593  0.8610050658611357  1.0000
  N   N1        1.0  0.1257865297046621  0.059104484286919494  0.4085240670476793  1.0000
  N   N2        1.0  0.4702581495382107  0.6826682248743624  0.020677377158243544  1.0000
  N   N3        1.0  0.21023428485914047  0.021537194203737897  0.044901656190894784  1.0000
  N   N4        1.0  0.8346948690988185  0.941624809419352  0.5574985682642649  1.0000
  N   N5        1.0  0.16412311903754798  0.9500210694390958  0.9862695228872981  1.0000
  N   N6        1.0  0.9009334719686707  0.9211894641901351  0.3704445679124434  1.0000
  N   N7        1.0  0.9540346342723468  0.09877471856264458  0.5013718420703341  1.0000
  N   N8        1.0  0.8536332947103631  0.91216108487491  0.4104953496254211  1.0000
  N   N9        1.0  0.0055939525754454215  0.10846772968522339  0.46531897984602466  1.0000
  N   N10       1.0  0.8783697066723873  0.027718210452540904  0.5980132547932868  1.0000
  N   N11       1.0  0.07611227116094473  0.9733381468758253  0.36514563166991126  1.0000
  N   N12       1.0  0.8916847422422548  0.78470811770363  0.4389234866590571  1.0000
  N   N13       1.0  0.1578041985628857  0.21010640077659556  0.6094383286884621  1.0000
  N   N14       1.0  0.09420516908083716  0.9507470314052638  0.5042915009830296  1.0000
  N   N15       1.0  0.03905254407600008  0.0256365195663975  0.6366856388535211  1.0000
  N   N16       1.0  0.9955728093235476  0.9408274106195975  0.5938852046144233  1.0000
  N   N17       1.0  0.1408698833462623  0.0355306521259422  0.547083810731614  1.0000
  N   N18       1.0  0.10694960039534612  0.2036279986695746  0.6473154003694219  1.0000
  N   N19       1.0  0.9311793833485353  0.7876085549224713  0.3912490975858704  1.0000
  N   N20       1.0  0.4819887063340787  0.6511793570652102  0.9624841721122195  1.0000
