data_image0
_chemical_formula_structural       Al4H28C28S3O29
_chemical_formula_sum              "Al4 H28 C28 S3 O29"
_cell_length_a       6.62924086680754
_cell_length_b       13.963471635333464
_cell_length_c       16.200377783211128
_cell_angle_alpha    90.96213675145124
_cell_angle_beta     90.90337077559907
_cell_angle_gamma    89.47227976607438

_space_group_name_H-M_alt    "P 1"
_space_group_IT_number       1

loop_
  _space_group_symop_operation_xyz
  'x, y, z'

loop_
  _atom_site_type_symbol
  _atom_site_label
  _atom_site_symmetry_multiplicity
  _atom_site_fract_x
  _atom_site_fract_y
  _atom_site_fract_z
  _atom_site_occupancy
  Al  Al1       1.0  0.8723426894110206  0.49703875690165944  0.5008513928345195  1.0000
  Al  Al2       1.0  0.37677977776877475  0.49691820000008136  0.5037078709083502  1.0000
  Al  Al3       1.0  0.392957119533932  0.0056460675906393  0.005944869727493101  1.0000
  Al  Al4       1.0  0.8926436624564786  0.0013036057692445999  0.004782921932545002  1.0000
  H   H1        1.0  0.8266007980743808  0.2888364346529853  0.308183599329702  1.0000
  H   H2        1.0  0.8859418040482937  0.3914153463671041  0.25221547841250214  1.0000
  H   H3        1.0  0.9601097153269365  0.30124241869403784  0.1319434172280225  1.0000
  H   H4        1.0  0.8184222929703537  0.21152525873088726  0.17913278836388005  1.0000
  H   H5        1.0  0.06878061688764352  0.20835848370656856  0.39266140635406543  1.0000
  H   H6        1.0  0.4470557394732709  0.36751887977846553  0.2742966828584841  1.0000
  H   H7        1.0  0.24735298310621803  0.4118461710119589  0.21219293046994642  1.0000
  H   H8        1.0  0.3388600991394668  0.286444014985662  0.12112597209127783  1.0000
  H   H9        1.0  0.4661334247615514  0.2215701129722163  0.19887520062214753  1.0000
  H   H10       1.0  0.31307277200402694  0.104389809202722  0.2739615915825908  1.0000
  H   H11       1.0  0.822884048654025  0.3070297087753317  0.6961155333297953  1.0000
  H   H12       1.0  0.27600850937244564  0.2625404103716633  0.6769541070564031  1.0000
  H   H13       1.0  0.8262213568939885  0.17620316102800604  0.7986470701700129  1.0000
  H   H14       1.0  0.28093879547213163  0.2178588918105007  0.8160924961523295  1.0000
  H   H15       1.0  0.9339087692968561  0.8252174081243807  0.22213528599727544  1.0000
  H   H16       1.0  0.4929251435453494  0.7728991335794222  0.17700437179618694  1.0000
  H   H17       1.0  0.9118001531561077  0.6875766833599354  0.3136974164632705  1.0000
  H   H18       1.0  0.9306933023192414  0.796516979107203  0.8194982863873295  1.0000
  H   H19       1.0  0.4747754718421788  0.8223900153176513  0.7854725311665478  1.0000
  H   H20       1.0  0.9209804333214463  0.700548504236984  0.6872804958485903  1.0000
  H   H21       1.0  0.4787112781504916  0.6635974950390562  0.732285934052655  1.0000
  H   H22       1.0  0.34170438338355075  0.2836319925347155  0.5217513043931492  1.0000
  H   H23       1.0  0.3085101263716012  0.6968956900772553  0.4411327935524128  1.0000
  H   H24       1.0  0.6932572820041969  0.0911084862630531  0.3319569592763614  1.0000
  H   H25       1.0  0.6228419546831674  0.3821287849840829  0.454336355859816  1.0000
  H   H26       1.0  0.11850294587897277  0.6024028061134388  0.5587432084267903  1.0000
  H   H27       1.0  0.6498874782069423  0.11721953880103801  0.049801888777771815  1.0000
  H   H28       1.0  0.15183495272943756  0.8909151178047664  0.043418820288323404  1.0000
  C   C1        1.0  0.6290257299075321  0.62999134616355  0.4068907069295166  1.0000
  C   C2        1.0  0.6190801504631765  0.5950342613909002  0.6258771308114603  1.0000
  C   C3        1.0  0.11417918176942268  0.3674492552853579  0.6020048059164722  1.0000
  C   C4        1.0  0.1364737634110185  0.39830127840215107  0.3809932142518805  1.0000
  C   C5        1.0  0.936923372156336  0.31823176759575494  0.2661901904945836  1.0000
  C   C6        1.0  0.9516358889433718  0.2565210867674637  0.18701340616114956  1.0000
  C   C7        1.0  0.1835912245260047  0.22278637285367614  0.3463456646417598  1.0000
  C   C8        1.0  0.3028483292800744  0.3483671523627265  0.24513430354896576  1.0000
  C   C9        1.0  0.1452544027610685  0.3245807418238371  0.310392871332148  1.0000
  C   C10       1.0  0.14379664560746622  0.19436523963479857  0.19078793605537211  1.0000
  C   C11       1.0  0.17214021937110147  0.14655957173116715  0.2760964666846206  1.0000
  C   C12       1.0  0.3272449120526558  0.26211508476507117  0.18504059472215326  1.0000
  C   C13       1.0  0.9672171561640894  0.27352734763575626  0.7129290954912763  1.0000
  C   C14       1.0  0.12876639540776583  0.2963718557125575  0.6674465754116312  1.0000
  C   C15       1.0  0.9693050393625455  0.20790740483263898  0.7811897574326567  1.0000
  C   C16       1.0  0.13434001794837513  0.18606170079809908  0.8272028400780871  1.0000
  C   C17       1.0  0.7881499496681529  0.7909916902277985  0.22942434650490642  1.0000
  C   C18       1.0  0.6386006760662468  0.8080189814488746  0.17403439114870173  1.0000
  C   C19       1.0  0.7729804354659109  0.7266502868402327  0.2978346119378585  1.0000
  C   C20       1.0  0.6126390677545928  0.708361410238517  0.3463050598059497  1.0000
  C   C21       1.0  0.7857509748481422  0.7809114075498441  0.7892214835427043  1.0000
  C   C22       1.0  0.6221665436940214  0.829945809993376  0.8156523731531637  1.0000
  C   C23       1.0  0.7818166396683209  0.7117302852673217  0.7216297004278971  1.0000
  C   C24       1.0  0.6195719795636305  0.6593262355202681  0.6984830180915296  1.0000
  C   C25       1.0  0.6297655099921117  0.8972600434507711  0.8870576369252703  1.0000
  C   C26       1.0  0.6531793052184298  0.8794024743162294  0.10831586894929761  1.0000
  C   C27       1.0  0.14943672499146737  0.1189935036679515  0.12051731450513611  1.0000
  C   C28       1.0  0.12926315259247903  0.11903119311944718  0.8969669360348507  1.0000
  S   S1        1.0  0.4206374772819927  0.2047826669966426  0.40765447833316415  1.0000
  S   S2        1.0  0.37586769520225255  0.7720156327228976  0.33494580081345765  1.0000
  S   S3        1.0  0.0008615982151099014  0.05043186043405969  0.302149071877274  1.0000
  O   O1        1.0  0.4502124123725721  0.5552770981667193  0.6068598057220386  1.0000
  O   O2        1.0  0.7971279989458112  0.5873475125811396  0.4165628555450241  1.0000
  O   O3        1.0  0.9698016956018094  0.4091191648996713  0.4181970674052949  1.0000
  O   O4        1.0  0.7813060772742589  0.5839876455682924  0.5852300483114379  1.0000
  O   O5        1.0  0.9489598373241891  0.4105874735750135  0.5887087266596538  1.0000
  O   O6        1.0  0.46813661034977366  0.6087920821714546  0.4465462528533664  1.0000
  O   O7        1.0  0.6245935407282701  0.43697094276191717  0.49321251734879473  1.0000
  O   O8        1.0  0.27799753402675986  0.3811696748352206  0.5598053238265949  1.0000
  O   O9        1.0  0.29777561861850893  0.4422928555396552  0.4001818707625376  1.0000
  O   O10       1.0  0.12470612462985288  0.5566479228597174  0.5130031526385608  1.0000
  O   O11       1.0  0.8243284518282366  0.9129518371626874  0.08995155298929802  1.0000
  O   O12       1.0  0.46153833534233973  0.934769499581698  0.9076605143958006  1.0000
  O   O13       1.0  0.29739509894508137  0.10500223806633359  0.9344851349576688  1.0000
  O   O14       1.0  0.48372852886807033  0.902778911425038  0.07485327503404451  1.0000
  O   O15       1.0  0.3217350102651153  0.08476758265621237  0.10202225640571781  1.0000
  O   O16       1.0  0.799159311314206  0.911138930787821  0.9230927986586155  1.0000
  O   O17       1.0  0.6438123468943573  0.0634463987687184  0.011176846113301104  1.0000
  O   O18       1.0  0.9829841017627245  0.0994360596939075  0.0844561507456163  1.0000
  O   O19       1.0  0.9616400149235957  0.08163828648016389  0.9146170975954961  1.0000
  O   O20       1.0  0.14542539320888181  0.9444702889852007  0.0058884368894851  1.0000
  O   O21       1.0  0.48772653148512296  0.10662926423699298  0.39597421660436544  1.0000
  O   O22       1.0  0.5657932120489164  0.2787076418319643  0.3903020763051047  1.0000
  O   O23       1.0  0.35191952219366834  0.21394755736149307  0.49935361842777576  1.0000
  O   O24       1.0  0.41049202266945173  0.871423090985104  0.3213082695207775  1.0000
  O   O25       1.0  0.25593661985769955  0.7163957137599581  0.2762014931774956  1.0000
  O   O26       1.0  0.2808043520671148  0.7651433880977976  0.4235637954637853  1.0000
  O   O27       1.0  0.041132200716838  0.9753451079495573  0.24306295098933361  1.0000
  O   O28       1.0  0.0165182920069782  0.03487439233232689  0.3897682989786305  1.0000
  O   O29       1.0  0.7816209147699453  0.09357793201431969  0.2823653641005777  1.0000
