data_image0
_chemical_formula_structural       Zn2H12C38N2Cl4O16
_chemical_formula_sum              "Zn2 H12 C38 N2 Cl4 O16"
_cell_length_a       11.818748118764718
_cell_length_b       16.979270657214997
_cell_length_c       17.80215165040556
_cell_angle_alpha    89.99923816759636
_cell_angle_beta     91.16904870251534
_cell_angle_gamma    89.99897636664299

_space_group_name_H-M_alt    "P 1"
_space_group_IT_number       1

loop_
  _space_group_symop_operation_xyz
  'x, y, z'

loop_
  _atom_site_type_symbol
  _atom_site_label
  _atom_site_symmetry_multiplicity
  _atom_site_fract_x
  _atom_site_fract_y
  _atom_site_fract_z
  _atom_site_occupancy
  Zn  Zn1       1.0  0.49999696620304235  0.4129019055889175  0.4999992950687115  1.0000
  Zn  Zn2       1.0  0.49999363221319737  0.5870630966219111  0.49999926935240785  1.0000
  H   H1        1.0  0.6467231535689919  0.13162581685647726  0.5749149001355248  1.0000
  H   H2        1.0  0.3668073899005861  0.6945293255274978  0.9604943516832591  1.0000
  H   H3        1.0  0.6339011290465848  0.3065718195509107  0.960999627496747  1.0000
  H   H4        1.0  0.6332318195993453  0.6945324835155945  0.0395108039358263  1.0000
  H   H5        1.0  0.3834437424447473  0.8681371487043708  0.4044749558239644  1.0000
  H   H6        1.0  0.3532779712690229  0.13162791813908112  0.42508679343172423  1.0000
  H   H7        1.0  0.6165549476013653  0.8681362764961947  0.5955151080281667  1.0000
  H   H8        1.0  0.46388242832633614  0.378766832755453  0.2640784022269216  1.0000
  H   H9        1.0  0.4653404624297296  0.6267653449391022  0.7372753239418017  1.0000
  H   H10       1.0  0.5361454867467402  0.3787719729917713  0.7359227505784673  1.0000
  H   H11       1.0  0.5346735996798344  0.62676237409746  0.2627275547684391  1.0000
  H   H12       1.0  0.3661525363484516  0.3065862261936872  0.0389943524434742  1.0000
  C   C1        1.0  0.5013466887113722  0.5034601455898271  0.6436838617354894  1.0000
  C   C2        1.0  0.5005523863965351  0.5011167764954081  0.8868183245232402  1.0000
  C   C3        1.0  0.4997370561170342  0.5005850094010431  0.0341846747885555  1.0000
  C   C4        1.0  0.5003373113882503  0.5005826352499839  0.9658183471583113  1.0000
  C   C5        1.0  0.7170808890297096  0.4959967423571642  0.4966360288913663  1.0000
  C   C6        1.0  0.2829089801015101  0.4959932411964374  0.5033653852754368  1.0000
  C   C7        1.0  0.5816224618885145  0.16145808386485785  0.5416577047109072  1.0000
  C   C8        1.0  0.43503171629155446  0.8383249177291463  0.44693981437908553  1.0000
  C   C9        1.0  0.4183735794861719  0.16145781336334866  0.4583441054050681  1.0000
  C   C10       1.0  0.5649661350904084  0.8383234493241077  0.553052302212329  1.0000
  C   C11       1.0  0.5781292329623113  0.24342217885661915  0.5397965816755104  1.0000
  C   C12       1.0  0.4986556589351282  0.503462163633472  0.356315373800463  1.0000
  C   C13       1.0  0.43768346526501745  0.7563531674117743  0.4493247070962383  1.0000
  C   C14       1.0  0.42186615524794036  0.24342419906836452  0.4602013705962165  1.0000
  C   C15       1.0  0.562314193792581  0.756351173016299  0.5506718181056981  1.0000
  C   C16       1.0  0.5000015060123958  0.03575614178893011  0.49999837820385556  1.0000
  C   C17       1.0  0.5000000903838143  0.964006260416106  0.49999415220631954  1.0000
  C   C18       1.0  0.839319413896412  0.4950790527983174  0.49712415635297447  1.0000
  C   C19       1.0  0.16067048264958572  0.4950775186631093  0.5028783932709047  1.0000
  C   C20       1.0  0.9429007190176438  0.4944129412970571  0.49900589347778634  1.0000
  C   C21       1.0  0.05708834543111151  0.49441082854719554  0.5009921598922773  1.0000
  C   C22       1.0  0.4999994725675381  0.1190818645790657  0.5000011930430972  1.0000
  C   C23       1.0  0.4791731485953009  0.43276398368313823  0.23284348369124075  1.0000
  C   C24       1.0  0.4999995892510612  0.8806775928457713  0.4999952363712906  1.0000
  C   C25       1.0  0.4763610333478071  0.43147002547735985  0.1545504493995011  1.0000
  C   C26       1.0  0.4775859955171812  0.5716172725122706  0.8461237246344525  1.0000
  C   C27       1.0  0.5237000738369275  0.43147554555796586  0.845451029784698  1.0000
  C   C28       1.0  0.5224575685794478  0.5716118335460579  0.1538785546420129  1.0000
  C   C29       1.0  0.45068127343877507  0.35414142562643763  0.1179792522945888  1.0000
  C   C30       1.0  0.45319632922294073  0.6481298546639638  0.8839948269756235  1.0000
  C   C31       1.0  0.5493744212794099  0.3541455589401254  0.8820175206525036  1.0000
  C   C32       1.0  0.546847589884635  0.648126436860082  0.1160092941483626  1.0000
  C   C33       1.0  0.480451591809775  0.5720983877492928  0.7678885910603057  1.0000
  C   C34       1.0  0.5208667650246142  0.4327665041531433  0.76715826383424  1.0000
  C   C35       1.0  0.519572492634147  0.572095424176027  0.23211230405198793  1.0000
  C   C36       1.0  0.49935341241105397  0.5028054746905898  0.2720942075214765  1.0000
  C   C37       1.0  0.5006658808936778  0.5028111246336666  0.7279063812265747  1.0000
  C   C38       1.0  0.49950842163927694  0.5011145181838189  0.1131811430823717  1.0000
  N   N1        1.0  0.4999979435226295  0.2851679148933429  0.4999984335280275  1.0000
  N   N2        1.0  0.4999977330641273  0.7146392477761694  0.49999851307183707  1.0000
  Cl  Cl1       1.0  0.6786413161850292  0.29316779929931175  0.591121805826809  1.0000
  Cl  Cl2       1.0  0.35683858687310277  0.7066976411464699  0.3844250358852577  1.0000
  Cl  Cl3       1.0  0.3213560305269993  0.2931687177866352  0.4088710466206606  1.0000
  Cl  Cl4       1.0  0.6431638753693605  0.7066956019695  0.6155710590730479  1.0000
  O   O1        1.0  0.5296268316161133  0.439695987658027  0.6115942926193938  1.0000
  O   O2        1.0  0.3767397329578229  0.3600618243014751  0.05874967395435251  1.0000
  O   O3        1.0  0.4963052537678863  0.7107837812347527  0.8663982135615811  1.0000
  O   O4        1.0  0.3756039054656881  0.6417586085651482  0.9389324880285628  1.0000
  O   O5        1.0  0.5107950904943054  0.2912480566653955  0.8599539667175335  1.0000
  O   O6        1.0  0.6233048012683612  0.3600542902688489  0.941256427452629  1.0000
  O   O7        1.0  0.5037377287400773  0.7107817795993159  0.1336124023277563  1.0000
  O   O8        1.0  0.6244317285368909  0.6417597978562811  0.0610676735694256  1.0000
  O   O9        1.0  0.5257906530311588  0.5679368771406745  0.3884640719198913  1.0000
  O   O10       1.0  0.47036549174566744  0.4396937529921063  0.3884067449669431  1.0000
  O   O11       1.0  0.4742047752333249  0.5679391454071592  0.6115353780267867  1.0000
  O   O12       1.0  0.6681300373874351  0.43182772311265444  0.4781089663417646  1.0000
  O   O13       1.0  0.3290217651521702  0.5605541902025878  0.48461827315328776  1.0000
  O   O14       1.0  0.33186165972324494  0.4318251814369846  0.5218876691201828  1.0000
  O   O15       1.0  0.670965414301854  0.5605538246595644  0.5153839713892338  1.0000
  O   O16       1.0  0.4892632367550507  0.2912402382895182  0.140032966355335  1.0000
