data_image0
_chemical_formula_structural       La4Co4H72C144N24O48
_chemical_formula_sum              "La4 Co4 H72 C144 N24 O48"
_cell_length_a       18.33555826517705
_cell_length_b       18.335555283779687
_cell_length_c       21.689760664706235
_cell_angle_alpha    110.35699084716029
_cell_angle_beta     110.35731501192951
_cell_angle_gamma    100.11907138654605

_space_group_name_H-M_alt    "P 1"
_space_group_IT_number       1

loop_
  _space_group_symop_operation_xyz
  'x, y, z'

loop_
  _atom_site_type_symbol
  _atom_site_label
  _atom_site_symmetry_multiplicity
  _atom_site_fract_x
  _atom_site_fract_y
  _atom_site_fract_z
  _atom_site_occupancy
  La  La1       1.0  0.6463343910277359  0.3962992695867769  0.2500775661689901  1.0000
  La  La2       1.0  0.10370141360824185  0.8536653370807629  0.2499238873190848  1.0000
  La  La3       1.0  0.3536635706329962  0.6037009565198093  0.7499214777206051  1.0000
  La  La4       1.0  0.8963005090822165  0.1463361787148043  0.750080357567832  1.0000
  Co  Co1       1.0  0.6094929992656831  0.8905083454614913  0.25000024115940545  1.0000
  Co  Co2       1.0  0.14058866041916224  0.35941125779871197  0.24999948370901853  1.0000
  Co  Co3       1.0  0.39050738307776117  0.10949266363807922  0.7499987502597067  1.0000
  Co  Co4       1.0  0.8594099326096013  0.6405876174417243  0.749998955242184  1.0000
  H   H1        1.0  0.5400759006944822  0.945785869654749  0.13048991840132368  1.0000
  H   H2        1.0  0.5420031418640505  0.08555897612095723  0.13509966966906728  1.0000
  H   H3        1.0  0.6941176328439979  0.19557454961736914  0.3663794858146618  1.0000
  H   H4        1.0  0.7596651709095924  0.17068381828368487  0.45690997535643885  1.0000
  H   H5        1.0  0.785688011195589  0.9788810431889915  0.5228875926441461  1.0000
  H   H6        1.0  0.6968972098393492  0.8740109148512045  0.3911942029220512  1.0000
  H   H7        1.0  0.9919805212810927  0.23102819698025473  0.2270347364712325  1.0000
  H   H8        1.0  0.8533225209873193  0.2346627128324812  0.22199618295057638  1.0000
  H   H9        1.0  0.9228584768044569  0.48441366941588637  0.2524863934500844  1.0000
  H   H10       1.0  0.09062597521059962  0.18483485139747563  0.13047059074448702  1.0000
  H   H11       1.0  0.0931128190476187  0.04960754344170943  0.13502172276445631  1.0000
  H   H12       1.0  0.1719102872279663  0.1705092706837945  0.3663190630772135  1.0000
  H   H13       1.0  0.19674539962828425  0.28588139785453864  0.4568893950099096  1.0000
  H   H14       1.0  0.2367250333479022  0.5435547865739923  0.5227109153330788  1.0000
  H   H15       1.0  0.19402048944623118  0.5168736763741749  0.3910476741104105  1.0000
  H   H16       1.0  0.7352574410033483  0.9959411555437684  0.22710176877132685  1.0000
  H   H17       1.0  0.8687841716761469  0.9871830048137085  0.22194937850851923  1.0000
  H   H18       1.0  0.8296803240003354  0.7678571514626286  0.2524273535413999  1.0000
  H   H19       1.0  0.5542136238366026  0.9599250708497991  0.3695115038290169  1.0000
  H   H20       1.0  0.41444122005937334  0.9579961904954787  0.36490237380868973  1.0000
  H   H21       1.0  0.30442530360114256  0.8058843417392509  0.13362225241257863  1.0000
  H   H22       1.0  0.32931635663299363  0.7403386899844763  0.04309513430162327  1.0000
  H   H23       1.0  0.5211140559277965  0.7143128152351109  0.9771131734333665  1.0000
  H   H24       1.0  0.6259858081671155  0.8030998876065426  0.10880197017299052  1.0000
  H   H25       1.0  0.26897230299925207  0.5080224827320735  0.2729682929781063  1.0000
  H   H26       1.0  0.2653364920425147  0.6466793337667056  0.2780056125598165  1.0000
  H   H27       1.0  0.015583749211607816  0.5771396463876783  0.24751280972428452  1.0000
  H   H28       1.0  0.3151653255832941  0.40937568108300587  0.3695320776746415  1.0000
  H   H29       1.0  0.4503938028149009  0.40688964107036446  0.36498137316186796  1.0000
  H   H30       1.0  0.32949420799347  0.3280906555433064  0.13368449257771436  1.0000
  H   H31       1.0  0.21412013718414608  0.3032554793732771  0.043111764825802375  1.0000
  H   H32       1.0  0.9564453335162568  0.2632744576864995  0.9772906509665162  1.0000
  H   H33       1.0  0.9831288010095349  0.3059802841742538  0.10895285930970303  1.0000
  H   H34       1.0  0.5040592547421525  0.7647404007239731  0.272898635164772  1.0000
  H   H35       1.0  0.512816948200772  0.6312153355469902  0.2780509043200397  1.0000
  H   H36       1.0  0.7321401602556392  0.670318621424407  0.24756944415531748  1.0000
  H   H37       1.0  0.45992700812421844  0.05421533913201435  0.8695116014096416  1.0000
  H   H38       1.0  0.457997583113098  0.9144440132949897  0.8649021385691499  1.0000
  H   H39       1.0  0.3058837436352989  0.8044260105475447  0.6336235941427122  1.0000
  H   H40       1.0  0.2403357450169709  0.8293162813296678  0.5430926438761647  1.0000
  H   H41       1.0  0.21431131899375094  0.02111589787951119  0.47711282223098556  1.0000
  H   H42       1.0  0.30310146859706333  0.12598705468037974  0.608803703197566  1.0000
  H   H43       1.0  0.008018775895308573  0.7689665565683015  0.7729650275939334  1.0000
  H   H44       1.0  0.14667595337008513  0.7653334798089233  0.7780009009858803  1.0000
  H   H45       1.0  0.0771409186584152  0.515583444328641  0.747511611935913  1.0000
  H   H46       1.0  0.909373322216574  0.8151613029390319  0.8695304103570438  1.0000
  H   H47       1.0  0.9068875705511132  0.9503891213681613  0.8649803711597955  1.0000
  H   H48       1.0  0.8280922471979794  0.8294947742064026  0.6336851742864698  1.0000
  H   H49       1.0  0.8032542331773129  0.7141210810880524  0.5431113204055791  1.0000
  H   H50       1.0  0.7632735274202603  0.4564461035103592  0.4772905839172311  1.0000
  H   H51       1.0  0.8059778803725308  0.4831301035127638  0.608953014145513  1.0000
  H   H52       1.0  0.26474484882459143  0.004061868438064823  0.772896656057725  1.0000
  H   H53       1.0  0.13121975578216202  0.01281728290829428  0.7780475929637377  1.0000
  H   H54       1.0  0.17032028230544694  0.2321431553542866  0.7475730996820716  1.0000
  H   H55       1.0  0.4457837916129607  0.04007419962613315  0.6304863751310422  1.0000
  H   H56       1.0  0.5855548666282502  0.042001406672888215  0.6350954134082231  1.0000
  H   H57       1.0  0.6955716711790174  0.194111989012292  0.8663758054439087  1.0000
  H   H58       1.0  0.6706823021708673  0.25966315950788066  0.9569033692331606  1.0000
  H   H59       1.0  0.47888100411259416  0.2856858449238686  0.022882348508041207  1.0000
  H   H60       1.0  0.374011317294233  0.19689571011217324  0.8911931453627704  1.0000
  H   H61       1.0  0.7310301583963081  0.4919829321958957  0.7270327772968557  1.0000
  H   H62       1.0  0.7346597463294132  0.3533231335206254  0.7219941804818151  1.0000
  H   H63       1.0  0.9844154955700831  0.4228582003896763  0.7524881379824324  1.0000
  H   H64       1.0  0.6848349716032801  0.5906276345133677  0.6304686836124206  1.0000
  H   H65       1.0  0.5496092574373179  0.5931150370474186  0.6350209154374441  1.0000
  H   H66       1.0  0.670506141587822  0.6719095668242757  0.8663150850677894  1.0000
  H   H67       1.0  0.7858801269894896  0.696745648703164  0.9568883456512864  1.0000
  H   H68       1.0  0.043554576398733454  0.736728428108492  0.022714053720846984  1.0000
  H   H69       1.0  0.016872726652508222  0.6940223445337353  0.8910497523996668  1.0000
  H   H70       1.0  0.49593961489444655  0.23525607979296845  0.7271013189855966  1.0000
  H   H71       1.0  0.4871830990150273  0.36878074973445524  0.7219496098214793  1.0000
  H   H72       1.0  0.2678597290236909  0.32968254117956525  0.752430909801781  1.0000
  C   C1        1.0  0.5729293705585761  0.0019350089042760492  0.181908847127339  1.0000
  C   C2        1.0  0.5743158687969441  0.07887656169056362  0.1844348253856936  1.0000
  C   C3        1.0  0.6178471627325236  0.14958030359087363  0.2516821416393925  1.0000
  C   C4        1.0  0.6594066937588182  0.14028727623085763  0.314235812787537  1.0000
  C   C5        1.0  0.6552081189669607  0.061559295602748386  0.3087663547682667  1.0000
  C   C6        1.0  0.6947448359342587  0.04436335773033328  0.370626614008579  1.0000
  C   C7        1.0  0.7449226538470128  0.1048282925670847  0.442104130997386  1.0000
  C   C8        1.0  0.7783322688702868  0.0821346555557201  0.49794548116790355  1.0000
  C   C9        1.0  0.7606867273326827  0.9978962208282882  0.47980903402834235  1.0000
  C   C10       1.0  0.7112115586892429  0.9399105816473607  0.4071906217057518  1.0000
  C   C11       1.0  0.6206473160269255  0.23459193267336803  0.25660941669212906  1.0000
  C   C12       1.0  0.8315747797409543  0.14972743326471524  0.576454148671786  1.0000
  C   C13       1.0  0.9747506748904727  0.2858294949693987  0.231818907922275  1.0000
  C   C14       1.0  0.8986535200411794  0.28809201765801623  0.22948521654799964  1.0000
  C   C15       1.0  0.8799814668436952  0.36055881113865246  0.2379716850550935  1.0000
  C   C16       1.0  0.9376733481825  0.42795426873015446  0.24574323706526988  1.0000
  C   C17       1.0  0.012494787670576133  0.42187150282166647  0.24613078935472293  1.0000
  C   C18       1.0  0.8004388355025043  0.36722175927902617  0.24194585798529297  1.0000
  C   C19       1.0  0.10909981341788474  0.18000570385535045  0.18187452486770894  1.0000
  C   C20       1.0  0.11010021507452453  0.10554223665776168  0.18437313772619757  1.0000
  C   C21       1.0  0.1336718465060116  0.10199605111803588  0.25162245736888184  1.0000
  C   C22       1.0  0.15457562480444412  0.17375406709257396  0.314180014461023  1.0000
  C   C23       1.0  0.15338566925426997  0.24702098870013606  0.3087161559364092  1.0000
  C   C24       1.0  0.1755831530414512  0.32597618485897334  0.3705751220341541  1.0000
  C   C25       1.0  0.19670915778110043  0.3369253303072243  0.44205695275586987  1.0000
  C   C26       1.0  0.21918974907539726  0.4154351169483306  0.497868427605674  1.0000
  C   C27       1.0  0.21863363779350922  0.48149783723896894  0.4796585217786884  1.0000
  C   C28       1.0  0.19563219919969305  0.46694162999607164  0.4070467967650658  1.0000
  C   C29       1.0  0.1358982288197481  0.02196405053735625  0.25663412222763793  1.0000
  C   C30       1.0  0.24477291188023306  0.42646040119036877  0.5764774477381425  1.0000
  C   C31       1.0  0.7572137088294538  0.945865027548436  0.2318090447091877  1.0000
  C   C32       1.0  0.8309473138518726  0.9412168553302819  0.2294260702181745  1.0000
  C   C33       1.0  0.8580642699963403  0.8771975014940665  0.23787664231195305  1.0000
  C   C34       1.0  0.8081562612935895  0.817599418933874  0.24569596419974016  1.0000
  C   C35       1.0  0.7337365346241498  0.8241185459850657  0.24610276961968952  1.0000
  C   C36       1.0  0.9415507013522059  0.8745168399304148  0.24183948553405804  1.0000
  C   C37       1.0  0.49806488768293633  0.9270705668254282  0.3180946958268863  1.0000
  C   C38       1.0  0.42112188448756166  0.9256835554070478  0.31556748829734  1.0000
  C   C39       1.0  0.3504187920176561  0.8821501032030739  0.24831663092268022  1.0000
  C   C40       1.0  0.35971516820592336  0.8405932081306347  0.18576566200274414  1.0000
  C   C41       1.0  0.43844296435761976  0.8447918711056701  0.19123669783184744  1.0000
  C   C42       1.0  0.4556377186240894  0.8052556007922221  0.12937502282660066  1.0000
  C   C43       1.0  0.39516992825556235  0.755078228803491  0.05789805617108371  1.0000
  C   C44       1.0  0.4178614189886644  0.7216661172540172  0.0020558417294651095  1.0000
  C   C45       1.0  0.5020987718532695  0.7393142447812195  0.020190889386327647  1.0000
  C   C46       1.0  0.5600854449311399  0.7887885689313523  0.09280809104112814  1.0000
  C   C47       1.0  0.2654035266648478  0.8793438279664373  0.24338471062872463  1.0000
  C   C48       1.0  0.3502638461120144  0.6684224988910971  0.9235474278526185  1.0000
  C   C49       1.0  0.21417116399161523  0.5252520775506042  0.2681849311565401  1.0000
  C   C50       1.0  0.2119077661724234  0.6013486073299604  0.2705181667632672  1.0000
  C   C51       1.0  0.13943769471478618  0.6200178048384117  0.2620255331965353  1.0000
  C   C52       1.0  0.07204333787515084  0.5623263125401152  0.25425622368937445  1.0000
  C   C53       1.0  0.0781264648164495  0.48750367488667484  0.25386626047914973  1.0000
  C   C54       1.0  0.13277563569256048  0.699559601870085  0.2580508707837339  1.0000
  C   C55       1.0  0.3199936165700236  0.39090190506366446  0.3181265942463156  1.0000
  C   C56       1.0  0.39445684457071917  0.38990169727244267  0.31562840798687847  1.0000
  C   C57       1.0  0.3980064196708355  0.36633380250358993  0.24838085006659588  1.0000
  C   C58       1.0  0.32624857636878357  0.34542755116774526  0.1858224336453277  1.0000
  C   C59       1.0  0.2529810969811948  0.3466154172829619  0.19128667730844032  1.0000
  C   C60       1.0  0.17402645418194138  0.3244173735895047  0.12942629979683326  1.0000
  C   C61       1.0  0.16307560239042115  0.3032899212699434  0.0579434194799191  1.0000
  C   C62       1.0  0.08456717145573117  0.28081369432207753  0.002133158308339476  1.0000
  C   C63       1.0  0.01850385425467491  0.2813680282590099  0.020341055680305007  1.0000
  C   C64       1.0  0.033060344316609785  0.3043695785113201  0.09295133475710318  1.0000
  C   C65       1.0  0.47803882662421426  0.3641058782308094  0.24336930758001796  1.0000
  C   C66       1.0  0.0735438619461207  0.2552279226833322  0.9235241328702771  1.0000
  C   C67       1.0  0.5541335971692121  0.7427842696512174  0.2681895560410866  1.0000
  C   C68       1.0  0.5587809559315248  0.6690501488181014  0.27057053192675096  1.0000
  C   C69       1.0  0.6227994860052277  0.6419313545339238  0.26212010078781145  1.0000
  C   C70       1.0  0.6823982619473624  0.691842203923457  0.2543016603236268  1.0000
  C   C71       1.0  0.6758803571001903  0.7662629167548616  0.25389845056124477  1.0000
  C   C72       1.0  0.6254820397504588  0.5584473202028165  0.2581591179068567  1.0000
  C   C73       1.0  0.4270704531964355  0.9980645802357202  0.818092679282536  1.0000
  C   C74       1.0  0.42568461933903745  0.9211238641032155  0.8155667468957548  1.0000
  C   C75       1.0  0.38215298327130404  0.8504209434624316  0.7483190878956664  1.0000
  C   C76       1.0  0.34059411662598665  0.8597148074762304  0.6857654626190952  1.0000
  C   C77       1.0  0.34479349410272414  0.9384424273963744  0.691235724109518  1.0000
  C   C78       1.0  0.3052568625430823  0.9556374595599382  0.6293749320376278  1.0000
  C   C79       1.0  0.25507906476443765  0.8951714463383027  0.5578992917063702  1.0000
  C   C80       1.0  0.2216663644266959  0.9178620629149566  0.502056711098412  1.0000
  C   C81       1.0  0.23931314856626063  0.0020988742949655257  0.5201900717036239  1.0000
  C   C82       1.0  0.2887909744828079  0.0600864593030863  0.5928074304761353  1.0000
  C   C83       1.0  0.3793479682265898  0.7654074259909082  0.7433888040899888  1.0000
  C   C84       1.0  0.16842268298133692  0.8502639353638061  0.42354934907216096  1.0000
  C   C85       1.0  0.02524916874786958  0.71416761499777  0.768183258108799  1.0000
  C   C86       1.0  0.10134862661162472  0.7119087958548962  0.7705204901432767  1.0000
  C   C87       1.0  0.12002091639950427  0.6394431652084693  0.7620330205565936  1.0000
  C   C88       1.0  0.06232983699324989  0.5720431445451625  0.7542585609084966  1.0000
  C   C89       1.0  0.9875063844789336  0.578125879665123  0.7538702313831324  1.0000
  C   C90       1.0  0.19956030423898605  0.6327808731679669  0.7580562199681752  1.0000
  C   C91       1.0  0.8909015625598543  0.8199920547336675  0.8181260810169421  1.0000
  C   C92       1.0  0.8899005494185133  0.894454393624571  0.8156287127180523  1.0000
  C   C93       1.0  0.866330569248568  0.8980053111731295  0.7483804249800557  1.0000
  C   C94       1.0  0.845425120056035  0.8262464431505449  0.6858224333983927  1.0000
  C   C95       1.0  0.846614101855252  0.7529802928807073  0.6912853170786593  1.0000
  C   C96       1.0  0.824419446407255  0.6740266319192969  0.6294254688040297  1.0000
  C   C97       1.0  0.8032942443524931  0.6630771257630884  0.5579444415534667  1.0000
  C   C98       1.0  0.7808146066750509  0.584567646169134  0.5021320648904537  1.0000
  C   C99       1.0  0.7813689087589282  0.518505271192204  0.520340778628331  1.0000
  C   C100      1.0  0.8043683869719871  0.533059755205727  0.5929517798008562  1.0000
  C   C101      1.0  0.8641038649367871  0.9780370546284517  0.7433702940324737  1.0000
  C   C102      1.0  0.7552268060822414  0.5735397712554189  0.42352149780940357  1.0000
  C   C103      1.0  0.24278604189517966  0.05413593162933257  0.7681893146119664  1.0000
  C   C104      1.0  0.16905523244978585  0.05878485231293956  0.7705719931524869  1.0000
  C   C105      1.0  0.1419342373739952  0.12280087866727743  0.7621210924344766  1.0000
  C   C106      1.0  0.1918452988798337  0.18240259571815198  0.7543048242468802  1.0000
  C   C107      1.0  0.26626390086634194  0.17588357224956044  0.7538987492669521  1.0000
  C   C108      1.0  0.05845004300672233  0.12548086873680125  0.758160488252642  1.0000
  C   C109      1.0  0.5019352910830506  0.07293146695986517  0.6819059474817878  1.0000
  C   C110      1.0  0.5788756166204296  0.07431621014798424  0.6844310948674919  1.0000
  C   C111      1.0  0.6495789124170203  0.11784723687828355  0.7516790633162389  1.0000
  C   C112      1.0  0.6402849770455677  0.15940383655881643  0.8142318564232415  1.0000
  C   C113      1.0  0.5615576089352319  0.1552062481913057  0.808763104581651  1.0000
  C   C114      1.0  0.5443630584969912  0.19474289460698938  0.8706243647337008  1.0000
  C   C115      1.0  0.6048296715371039  0.2449220626191607  0.9421020084344323  1.0000
  C   C116      1.0  0.5821364043681497  0.27833530621432345  0.9979424445605575  1.0000
  C   C117      1.0  0.49789901849060664  0.26068499116718147  0.979806746093722  1.0000
  C   C118      1.0  0.4399117664394154  0.2112089246544073  0.9071889657357702  1.0000
  C   C119      1.0  0.7345923226800438  0.12064840400386614  0.7566103665587037  1.0000
  C   C120      1.0  0.6497332604691195  0.3315811811522452  0.07645199620738215  1.0000
  C   C121      1.0  0.7858291004327996  0.4747504513137814  0.7318164163569068  1.0000
  C   C122      1.0  0.7880882676189316  0.3986492814912951  0.7294783300224809  1.0000
  C   C123      1.0  0.860556595152097  0.3799806019725693  0.73796736201097  1.0000
  C   C124      1.0  0.9279551369838117  0.43767268167719214  0.7457433343197978  1.0000
  C   C125      1.0  0.9218748582650206  0.5124943753552388  0.746133054974344  1.0000
  C   C126      1.0  0.8672194042137208  0.30044013667377095  0.7419427745001175  1.0000
  C   C127      1.0  0.6800055554320681  0.6090987125394138  0.6818724234080451  1.0000
  C   C128      1.0  0.6055423604443035  0.610101107850575  0.6843712604774483  1.0000
  C   C129      1.0  0.6019952392906236  0.6336733739202887  0.7516206537735715  1.0000
  C   C130      1.0  0.6737523323024989  0.654576892735307  0.814177083082136  1.0000
  C   C131      1.0  0.7470205488506567  0.6533870924481564  0.8087148153429597  1.0000
  C   C132      1.0  0.8259744287316837  0.6755805385039085  0.8705756686258045  1.0000
  C   C133      1.0  0.8369259118912427  0.6967066399573272  0.9420579440043186  1.0000
  C   C134      1.0  0.9154338822731913  0.7191824063536317  0.9978677444511348  1.0000
  C   C135      1.0  0.9814968046966045  0.7186305861170583  0.9796594509379806  1.0000
  C   C136      1.0  0.9669401765815309  0.6956316340144469  0.9070496512979531  1.0000
  C   C137      1.0  0.5219622858752972  0.6358989417744711  0.7566297942942486  1.0000
  C   C138      1.0  0.9264575800574946  0.7447742109455575  0.07647777463432  1.0000
  C   C139      1.0  0.44586660122932653  0.25721388417329655  0.7318104898524282  1.0000
  C   C140      1.0  0.4412187819142802  0.3309475444548512  0.7294290532419867  1.0000
  C   C141      1.0  0.3772005738386213  0.35806659586438633  0.737877950469759  1.0000
  C   C142      1.0  0.31760070622648584  0.3081580375773927  0.7456977721839311  1.0000
  C   C143      1.0  0.32411806511327523  0.23373776990328576  0.7461010540531205  1.0000
  C   C144      1.0  0.3745196907367047  0.4415500814556028  0.7418381308038778  1.0000
  N   N1        1.0  0.6121064854177617  0.9931317937010036  0.2429102568456188  1.0000
  N   N2        1.0  0.6782133310057858  0.9623641330713968  0.3534760812456455  1.0000
  N   N3        1.0  0.030734349917089877  0.35135274362078667  0.24014076771522505  1.0000
  N   N4        1.0  0.13086071281264114  0.24972081990689796  0.2428809555988139  1.0000
  N   N5        1.0  0.1750520923458225  0.39083535160403227  0.35340419676336415  1.0000
  N   N6        1.0  0.7095178689491987  0.8886644920820788  0.24013309345615858  1.0000
  N   N7        1.0  0.50686969210728  0.887894733060648  0.2570930513867681  1.0000
  N   N8        1.0  0.5376361661674806  0.82178499086276  0.14652393608147218  1.0000
  N   N9        1.0  0.14864725540600426  0.46926713062966746  0.25986097111286455  1.0000
  N   N10       1.0  0.2502792787356896  0.3691401790474559  0.2571199476648474  1.0000
  N   N11       1.0  0.10916549338097073  0.3249491740139447  0.14659539844669925  1.0000
  N   N12       1.0  0.6113351714683047  0.7904826512819058  0.259868593748884  1.0000
  N   N13       1.0  0.3878944960331127  0.0068698793763248825  0.7570911899342081  1.0000
  N   N14       1.0  0.32178693291707117  0.03763559421709328  0.6465227921950856  1.0000
  N   N15       1.0  0.9692680857208202  0.6486461394975509  0.7598627542549112  1.0000
  N   N16       1.0  0.869140695927257  0.7502777254141081  0.7571190640594524  1.0000
  N   N17       1.0  0.8249502501275999  0.6091659799369609  0.6465942814605017  1.0000
  N   N18       1.0  0.2904822241583674  0.11133704662411503  0.7598668456477358  1.0000
  N   N19       1.0  0.4931304864079351  0.11210589993669373  0.7429063548855411  1.0000
  N   N20       1.0  0.46236360418970435  0.17821208835422925  0.8534738258245158  1.0000
  N   N21       1.0  0.8513541535846727  0.5307328154792829  0.7401402855817596  1.0000
  N   N22       1.0  0.7497185972666146  0.630859551980038  0.7428783920199822  1.0000
  N   N23       1.0  0.890834448794628  0.6750516969371391  0.8534062459415638  1.0000
  N   N24       1.0  0.38866459964121713  0.20951863029893772  0.7401328792661845  1.0000
  O   O1        1.0  0.573647919449158  0.23647007492167665  0.19877843983547905  1.0000
  O   O2        1.0  0.6703354724946422  0.2961575067860451  0.3171264090376128  1.0000
  O   O3        1.0  0.8461275001309829  0.2225646968913822  0.5850869125052185  1.0000
  O   O4        1.0  0.8535367967241141  0.12130112363372082  0.6233302071577996  1.0000
  O   O5        1.0  0.7435650568158181  0.3008342123777228  0.2196418092828198  1.0000
  O   O6        1.0  0.7987120571612323  0.4398272835930684  0.2696831879970248  1.0000
  O   O7        1.0  0.1252066721899538  0.9623226264019351  0.1988252132654225  1.0000
  O   O8        1.0  0.14671057967795062  0.020867736986204526  0.31716873011705365  1.0000
  O   O9        1.0  0.23901613652711987  0.36236788679080706  0.585298727911905  1.0000
  O   O10       1.0  0.26986154353053143  0.501772802488965  0.6232585587148378  1.0000
  O   O11       1.0  0.9762094152630425  0.9187854887022979  0.21967776742133793  1.0000
  O   O12       1.0  0.9709384538986187  0.8295066716685398  0.2694670914946687  1.0000
  O   O13       1.0  0.2635224769846828  0.9263342254944789  0.3012172316736397  1.0000
  O   O14       1.0  0.20384242056691443  0.8296651791225642  0.18286101767738216  1.0000
  O   O15       1.0  0.2774249967346096  0.6538669163972063  0.9149130628085873  1.0000
  O   O16       1.0  0.37869108409291397  0.6464644509767226  0.876671488096882  1.0000
  O   O17       1.0  0.19916335733485377  0.7564316360396077  0.28035385285088676  1.0000
  O   O18       1.0  0.06016998790613571  0.7012882960384417  0.230314109617332  1.0000
  O   O19       1.0  0.5376784960881835  0.3747946026902724  0.3011777231779291  1.0000
  O   O20       1.0  0.4791362869734641  0.35329065644537394  0.18283375598634422  1.0000
  O   O21       1.0  0.13763941720734613  0.2609880307756429  0.914706435503959  1.0000
  O   O22       1.0  0.9982341788815106  0.2301409976238775  0.8767396677146737  1.0000
  O   O23       1.0  0.5812173765458652  0.5237904656616692  0.28032444211019947  1.0000
  O   O24       1.0  0.6704923690152498  0.5290595008367589  0.2305329528133982  1.0000
  O   O25       1.0  0.4263427799126518  0.7635264014180195  0.8012195244292217  1.0000
  O   O26       1.0  0.3296628237921766  0.7038448415627699  0.6828686380568741  1.0000
  O   O27       1.0  0.1538697061175824  0.7774279880757575  0.4149169466971189  1.0000
  O   O28       1.0  0.146463868980895  0.8786903448767519  0.3766709278929028  1.0000
  O   O29       1.0  0.2564310750112284  0.6991646358515454  0.7803516917874022  1.0000
  O   O30       1.0  0.20128348381678063  0.5601721595205335  0.7303159083630677  1.0000
  O   O31       1.0  0.8747929681217103  0.037676909038907504  0.801179841691564  1.0000
  O   O32       1.0  0.8532945139854036  0.9791372943231806  0.6828374494120838  1.0000
  O   O33       1.0  0.7609840752518056  0.6376363345144187  0.41470256620673523  1.0000
  O   O34       1.0  0.7301396014803601  0.498231403460352  0.3767387198966788  1.0000
  O   O35       1.0  0.023794092913860383  0.0812177848501748  0.7803274447866857  1.0000
  O   O36       1.0  0.029060790381514493  0.17048837353291205  0.7305313821393328  1.0000
  O   O37       1.0  0.7364740109835283  0.07365231131996844  0.698780343080536  1.0000
  O   O38       1.0  0.7961547830468022  0.17033385717699204  0.8171304625216538  1.0000
  O   O39       1.0  0.722571050687911  0.3461384406927195  0.08508591923865078  1.0000
  O   O40       1.0  0.6213067722768386  0.3535391600115502  0.12332744900310641  1.0000
  O   O41       1.0  0.8008344332598015  0.24356900069673787  0.7196450196655207  1.0000
  O   O42       1.0  0.9398287696857537  0.2987187152257819  0.7696851093109985  1.0000
  O   O43       1.0  0.46232019547783676  0.6252080335340795  0.6988201941304625  1.0000
  O   O44       1.0  0.520862693577655  0.6467100493843959  0.8171619766009074  1.0000
  O   O45       1.0  0.8623674461381298  0.7390230143536486  0.08530089390825422  1.0000
  O   O46       1.0  0.0017697163162040297  0.7698613049420332  0.12326036405668361  1.0000
  O   O47       1.0  0.41878452475659594  0.47620512457903175  0.7196717409373719  1.0000
  O   O48       1.0  0.329512092026178  0.47093987739902593  0.7694676464723429  1.0000
