data_image0
_chemical_formula_structural       Al6H26C108Br12Cl12O28
_chemical_formula_sum              "Al6 H26 C108 Br12 Cl12 O28"
_cell_length_a       12.065647864907941
_cell_length_b       13.318058529122531
_cell_length_c       26.46692519909692
_cell_angle_alpha    90.10127806466969
_cell_angle_beta     89.74345245575353
_cell_angle_gamma    115.08048519189111

_space_group_name_H-M_alt    "P 1"
_space_group_IT_number       1

loop_
  _space_group_symop_operation_xyz
  'x, y, z'

loop_
  _atom_site_type_symbol
  _atom_site_label
  _atom_site_symmetry_multiplicity
  _atom_site_fract_x
  _atom_site_fract_y
  _atom_site_fract_z
  _atom_site_occupancy
  Al  Al1       1.0  0.4490567712785137  0.2780406564721574  0.7511967944543374  1.0000
  Al  Al2       1.0  0.7266744807238014  0.46085734683868645  0.7499919619881511  1.0000
  Al  Al3       1.0  0.6857489761325297  0.2236843364241778  0.7499555088853853  1.0000
  Al  Al4       1.0  0.31362390493463727  0.5268497089166503  0.24957531902401098  1.0000
  Al  Al5       1.0  0.4630876763280654  0.7936261137339711  0.25002464152898096  1.0000
  Al  Al6       1.0  0.1910294842220637  0.7015960559660285  0.2496187583780768  1.0000
  H   H1        1.0  0.11291760246959379  0.6796772877374622  0.10805912859483163  1.0000
  H   H2        1.0  0.6588883611170006  0.1737513131808655  0.8993840013740809  1.0000
  H   H3        1.0  0.9243559833682442  0.5697972104777661  0.6329842338176733  1.0000
  H   H4        1.0  0.43373862644210703  0.3503105725876098  0.89300927020021  1.0000
  H   H5        1.0  0.10333565610896761  0.35426070174195695  0.12132237735391273  1.0000
  H   H6        1.0  0.1566250238535574  0.8635052500164518  0.3878313890845676  1.0000
  H   H7        1.0  0.6408168066269581  0.8228235367434704  0.10612798235097642  1.0000
  H   H8        1.0  0.09863264003134026  0.35040605851904877  0.37686727215692895  1.0000
  H   H9        1.0  0.1573512663333431  0.8647391985895252  0.11356103906697262  1.0000
  H   H10       1.0  0.6387292544729775  0.8245870625721279  0.39550111465950993  1.0000
  H   H11       1.0  0.2766691316427766  0.0064309268445513  0.635948911349047  1.0000
  H   H12       1.0  0.542087054406025  0.0292858988438027  0.3560386372491423  1.0000
  H   H13       1.0  0.9561801114198261  0.2600785832765453  0.8718057206897712  1.0000
  H   H14       1.0  0.6682184300318353  0.6890006773085913  0.6428994888147628  1.0000
  H   H15       1.0  0.27539141059921957  0.0085221969970348  0.8652020284909059  1.0000
  H   H16       1.0  0.9541056688086443  0.2591766910151847  0.62694006929069  1.0000
  H   H17       1.0  0.6721009476238535  0.6888079129830372  0.8586414630366905  1.0000
  H   H18       1.0  0.456042233231905  0.47557005334092384  0.14021776970886182  1.0000
  H   H19       1.0  0.11322273838346325  0.6775971406693344  0.39031991658068693  1.0000
  H   H20       1.0  0.5432464327318414  0.028360690692927893  0.14351048673649566  1.0000
  H   H21       1.0  0.4624217072307672  0.4773600280071476  0.36102216397800657  1.0000
  H   H22       1.0  0.6595351645488917  0.17500366766957137  0.5997643033345383  1.0000
  H   H23       1.0  0.922395644614362  0.5689667888029036  0.8661230819939336  1.0000
  H   H24       1.0  0.43505461757262504  0.34987629377202006  0.6074558965993264  1.0000
  H   H25       1.0  0.2556447163052624  0.2498676808686611  0.7213496575013708  1.0000
  H   H26       1.0  0.25710009920602056  0.3393723831409403  0.2708615652600202  1.0000
  C   C1        1.0  0.5690548930844912  0.47597224757460316  0.8211055980836337  1.0000
  C   C2        1.0  0.5161313907331931  0.6687074732630407  0.18014173182874066  1.0000
  C   C3        1.0  0.060911857911470677  0.2960401875342028  0.4783497881998572  1.0000
  C   C4        1.0  0.17258631720319076  0.9297859793124275  0.0141062958874372  1.0000
  C   C5        1.0  0.6669906460862479  0.7992385480062012  0.4975112154828737  1.0000
  C   C6        1.0  0.19682220900052988  0.9485036522781698  0.5380479517570225  1.0000
  C   C7        1.0  0.042492720496667906  0.2832461974481149  0.9688150164870709  1.0000
  C   C8        1.0  0.6671384562249758  0.7725182441018604  0.5476853676587226  1.0000
  C   C9        1.0  0.19651765012349642  0.9488463420268544  0.9632405419601258  1.0000
  C   C10       1.0  0.04194965377724464  0.2818987048514785  0.5297836401021672  1.0000
  C   C11       1.0  0.6685111819912636  0.7717427583497525  0.9538217109627853  1.0000
  C   C12       1.0  0.3351773634096487  0.8755877972216195  0.3188612746242825  1.0000
  C   C13       1.0  0.13456069749206284  0.5382425340111041  0.1748792857308388  1.0000
  C   C14       1.0  0.0372896351972258  0.4655058145774333  0.9615678201145388  1.0000
  C   C15       1.0  0.41709193985951026  0.041019307959032886  0.51994435331261  1.0000
  C   C16       1.0  0.5507292008315403  0.5736464627506164  0.9732509709154868  1.0000
  C   C17       1.0  0.03811274256964485  0.4646984174657334  0.5371411053189947  1.0000
  C   C18       1.0  0.41706769387329257  0.0406502341261685  0.9803089967235508  1.0000
  C   C19       1.0  0.551582151431397  0.5745029940821879  0.5279320662672832  1.0000
  C   C20       1.0  0.39202312481709356  0.014984545935931202  0.4679269944787734  1.0000
  C   C21       1.0  0.8603449060815863  0.3822219550840558  0.6825874673935673  1.0000
  C   C22       1.0  0.06754823801150417  0.484227206932175  0.014932143192659503  1.0000
  C   C23       1.0  0.5566342102784531  0.6016150742307572  0.47597545220945403  1.0000
  C   C24       1.0  0.39246691974287273  0.014618929807774402  0.032403218044628104  1.0000
  C   C25       1.0  0.06813879229093092  0.4829000634711988  0.48364540585485843  1.0000
  C   C26       1.0  0.5544240270946545  0.6002895627514278  0.025251923261151908  1.0000
  C   C27       1.0  0.004338135614610019  0.6296095669424987  0.9661426526997658  1.0000
  C   C28       1.0  0.6311357866989482  0.1587662220748527  0.49754676705153866  1.0000
  C   C29       1.0  0.4278454359658852  0.3757242315394364  0.9944435819941264  1.0000
  C   C30       1.0  0.0060558656400146954  0.6292094116438277  0.5327043166980874  1.0000
  C   C31       1.0  0.6316315926474445  0.1572869243304567  0.0017410019691582004  1.0000
  C   C32       1.0  0.5005378891026453  0.1303986765752825  0.8234035440783601  1.0000
  C   C33       1.0  0.4304221649417742  0.3765211776870175  0.5063407025454582  1.0000
  C   C34       1.0  0.608584271059172  0.12975693680640174  0.44757331296627717  1.0000
  C   C35       1.0  0.10252211375668463  0.6691728541031099  0.9984513083873665  1.0000
  C   C36       1.0  0.44697709489769  0.4010502275202512  0.4558597821647084  1.0000
  C   C37       1.0  0.609469883628833  0.12835853035906547  0.05177414100985091  1.0000
  C   C38       1.0  0.10413696728187469  0.6682813701634984  0.5000228972726077  1.0000
  C   C39       1.0  0.4422697949869843  0.39979446640367655  0.04501588190241532  1.0000
  C   C40       1.0  0.9535818400043606  0.5139034996222093  0.8856213401277702  1.0000
  C   C41       1.0  0.5656705818150627  0.1268467065786183  0.5875547010024605  1.0000
  C   C42       1.0  0.48386108175304804  0.4350325171198364  0.9061766160370086  1.0000
  C   C43       1.0  0.5665561537781229  0.4754198322026823  0.6799279481639857  1.0000
  C   C44       1.0  0.9551471918234712  0.5142964226365263  0.6134013682524683  1.0000
  C   C45       1.0  0.5650858151915302  0.12615961924074529  0.9120755466992069  1.0000
  C   C46       1.0  0.48402593369889507  0.43507530032822933  0.5946729391010309  1.0000
  C   C47       1.0  0.46668307666261205  0.008285568842112  0.3826522582697578  1.0000
  C   C48       1.0  0.10068525037387846  0.6018746625362894  0.09041588455570354  1.0000
  C   C49       1.0  0.5048530839783325  0.5420747255941976  0.388995799896982  1.0000
  C   C50       1.0  0.4676831415785614  0.0077421298471378  0.11728515744558621  1.0000
  C   C51       1.0  0.10068702684048253  0.59984872396101  0.4080321664337277  1.0000
  C   C52       1.0  0.5000422825369526  0.5402766956703147  0.11226702871078233  1.0000
  C   C53       1.0  0.10289172044227253  0.5150329831542421  0.12021571551164813  1.0000
  C   C54       1.0  0.8604666665227967  0.38129397878903143  0.8165737266935623  1.0000
  C   C55       1.0  0.3483513210006494  0.9357879248369941  0.367798038790035  1.0000
  C   C56       1.0  0.5471779207186741  0.650984955379748  0.12753835758009305  1.0000
  C   C57       1.0  0.10046151578344363  0.5121089812118527  0.3779712875953863  1.0000
  C   C58       1.0  0.3492004497845613  0.9361278424505528  0.1326738462350221  1.0000
  C   C59       1.0  0.5480582577082203  0.652693967017427  0.3739222148092979  1.0000
  C   C60       1.0  0.4714079601500742  0.08912112983497883  0.6233072379413331  1.0000
  C   C61       1.0  0.9348009179084329  0.4112466369606125  0.8636192978549958  1.0000
  C   C62       1.0  0.5528044153060492  0.5163027015646477  0.6292686712756466  1.0000
  C   C63       1.0  0.4703080997940603  0.08934544942339069  0.8768621641372436  1.0000
  C   C64       1.0  0.9352691219897764  0.411512946423251  0.6354071242074398  1.0000
  C   C65       1.0  0.5020282496606184  0.13003288220524206  0.6767849069561864  1.0000
  C   C66       1.0  0.5546010588482699  0.5163915593897243  0.8718676266899552  1.0000
  C   C67       1.0  0.004706341974987532  0.5412066421582863  0.9327208111996229  1.0000
  C   C68       1.0  0.5393273292927816  0.107981877075531  0.5358955794700933  1.0000
  C   C69       1.0  0.485353272345634  0.4610938752242149  0.9572886631228672  1.0000
  C   C70       1.0  0.006321903521715949  0.5410505766231353  0.5661417770483582  1.0000
  C   C71       1.0  0.5392692683204103  0.1071172333227679  0.9638266393207504  1.0000
  C   C72       1.0  0.48654456018929443  0.4616725698499308  0.5436424801648841  1.0000
  C   C73       1.0  0.4894954123466703  0.050942905139883976  0.431681448734004  1.0000
  C   C74       1.0  0.08872570370751737  0.5884245145152178  0.0389587445531134  1.0000
  C   C75       1.0  0.5056813562364582  0.5147574047644667  0.4395173421982649  1.0000
  C   C76       1.0  0.5097157620273762  0.668062987951501  0.32220112874339435  1.0000
  C   C77       1.0  0.49026183799831097  0.050116866700506094  0.06818116648934591  1.0000
  C   C78       1.0  0.08979708584139706  0.5870762978819712  0.4595634168700047  1.0000
  C   C79       1.0  0.5010930060022999  0.5133145823685155  0.06157173576779231  1.0000
  C   C80       1.0  0.9722292541120083  0.3395206022348916  0.8888597913437694  1.0000
  C   C81       1.0  0.3497137448212371  0.030082328019027195  0.6079375446339982  1.0000
  C   C82       1.0  0.6179444372714115  0.6270149891112593  0.8863379442839164  1.0000
  C   C83       1.0  0.9716287144290305  0.33897364926384194  0.6099846023717249  1.0000
  C   C84       1.0  0.34869351608351445  0.0309633870683683  0.8927774750102629  1.0000
  C   C85       1.0  0.6154999576118954  0.6272182213804315  0.6150329418242181  1.0000
  C   C86       1.0  0.24940533721601105  0.9141160787381394  0.400602414939442  1.0000
  C   C87       1.0  0.3353404545667545  0.8765066178280349  0.18167675784384585  1.0000
  C   C88       1.0  0.09393818766071857  0.4172658928386638  0.09781668359670453  1.0000
  C   C89       1.0  0.6046317623703034  0.7389380376736271  0.4081817355359974  1.0000
  C   C90       1.0  0.25013162319817184  0.9147308922915798  0.10033285213742  1.0000
  C   C91       1.0  0.09149049184453156  0.41450192759351967  0.4004378895465949  1.0000
  C   C92       1.0  0.6045616777445773  0.7372424374354125  0.09321846042863773  1.0000
  C   C93       1.0  0.022557554897233063  0.3641268246102386  0.9382617229133603  1.0000
  C   C94       1.0  0.3206129691380042  0.0034877472119916  0.5567632205293975  1.0000
  C   C95       1.0  0.612150975518567  0.6583399929864058  0.9365655350615115  1.0000
  C   C96       1.0  0.02230335922061502  0.3631141459970522  0.5604497839447264  1.0000
  C   C97       1.0  0.32019134605969407  0.0037804151706169005  0.9439997605948209  1.0000
  C   C98       1.0  0.12793953441646272  0.534189070521002  0.3228114710149797  1.0000
  C   C99       1.0  0.6111226487507225  0.6589615190877041  0.5648132792467779  1.0000
  C   C100      1.0  0.26951672493299833  0.952874884644778  0.4507524771879262  1.0000
  C   C101      1.0  0.07416825264761677  0.39875169799321936  0.04513689368876331  1.0000
  C   C102      1.0  0.611630850065481  0.7148165767510263  0.4595285173370699  1.0000
  C   C103      1.0  0.270012757182826  0.9530307946962678  0.0501189345291309  1.0000
  C   C104      1.0  0.07372643964091456  0.39690644308016937  0.45330998077503193  1.0000
  C   C105      1.0  0.6108234952684056  0.7133968839581468  0.041814225975201715  1.0000
  C   C106      1.0  0.061045619149332715  0.29761453358163686  0.020204585950672503  1.0000
  C   C107      1.0  0.17238676950696435  0.9296460495739112  0.4872721381485975  1.0000
  C   C108      1.0  0.6677660519961536  0.7981696948704596  0.0040184334394198  1.0000
  Br  Br1       1.0  0.06000226698991903  0.18017833200411812  0.06072640503737151  1.0000
  Br  Br2       1.0  0.06581489366420354  0.9034429225927806  0.9164175264594975  1.0000
  Br  Br3       1.0  0.025459572441576518  0.1485765857926893  0.5611266635730205  1.0000
  Br  Br4       1.0  0.7404677075578618  0.884953485891266  0.9047207505321637  1.0000
  Br  Br5       1.0  0.010589141486058008  0.8758687805515919  0.4624359096006999  1.0000
  Br  Br6       1.0  0.7439810541634202  0.9475566390511078  0.025775255493570612  1.0000
  Br  Br7       1.0  0.06152997537004269  0.17864864298243788  0.4380488519195041  1.0000
  Br  Br8       1.0  0.01093041080765302  0.875415034733429  0.03972558066801211  1.0000
  Br  Br9       1.0  0.7422187294946809  0.9489333929873068  0.4760162290590985  1.0000
  Br  Br10      1.0  0.0662436068805973  0.902829530075088  0.5854610274787646  1.0000
  Br  Br11      1.0  0.02624216129302681  0.1498662580063908  0.9375356796383942  1.0000
  Br  Br12      1.0  0.7379291566487468  0.8854682119417774  0.5968978647077777  1.0000
  Cl  Cl1       1.0  0.2472935836379904  0.7196446844500599  0.9691886111921877  1.0000
  Cl  Cl2       1.0  0.770151339532589  0.257013866906746  0.9829811407510364  1.0000
  Cl  Cl3       1.0  0.8618685452559447  0.6001466411991957  0.5080737244549312  1.0000
  Cl  Cl4       1.0  0.3439599041529746  0.2429191571294282  0.9741443864072681  1.0000
  Cl  Cl5       1.0  0.7220537923888486  0.1881022052106758  0.4029730828798535  1.0000
  Cl  Cl6       1.0  0.3883786391575867  0.2962123021281897  0.08942822801427043  1.0000
  Cl  Cl7       1.0  0.24892223210297  0.7189483740665423  0.5286980151067483  1.0000
  Cl  Cl8       1.0  0.7234903166033534  0.18620746506304903  0.09582209698336902  1.0000
  Cl  Cl9       1.0  0.39466332280823485  0.29760692222063057  0.4113102666242838  1.0000
  Cl  Cl10      1.0  0.7694891475606909  0.25927135575377497  0.5157241602366086  1.0000
  Cl  Cl11      1.0  0.8602411627171592  0.6009502971401091  0.991305745167587  1.0000
  Cl  Cl12      1.0  0.3452119982026788  0.2436066947735824  0.5263653158600122  1.0000
  O   O1        1.0  0.4328716330638257  0.17048676752818884  0.8040309956531857  1.0000
  O   O2        1.0  0.19865623894536813  0.4940070378688261  0.19387160431737982  1.0000
  O   O3        1.0  0.5528289074151049  0.7646252550695253  0.3011620516457186  1.0000
  O   O4        1.0  0.22835692232390423  0.815442788689744  0.19917219605038386  1.0000
  O   O5        1.0  0.48281554566732143  0.3895250566829773  0.8044961306115683  1.0000
  O   O6        1.0  0.8391585165287622  0.461165704753057  0.70115562150815  1.0000
  O   O7        1.0  0.5964768146378816  0.1283504495346008  0.8022992366066362  1.0000
  O   O8        1.0  0.479977981042353  0.3888423016314915  0.6966457295724667  1.0000
  O   O9        1.0  0.8408426637030786  0.4602878515023363  0.7972703023812928  1.0000
  O   O10       1.0  0.5987140266833108  0.1287477191021082  0.6971800082205208  1.0000
  O   O11       1.0  0.42826077520793865  0.5809462105976239  0.3037736228002785  1.0000
  O   O12       1.0  0.6712966367613264  0.5282864884422055  0.7013382015108933  1.0000
  O   O13       1.0  0.4349813775414403  0.8855843063880041  0.20216123446498102  1.0000
  O   O14       1.0  0.1001858545297836  0.6083604754195092  0.3021815529637878  1.0000
  O   O15       1.0  0.44731691533110046  0.5820592601632483  0.20345484635625877  1.0000
  O   O16       1.0  0.4355640127129234  0.8834134529992497  0.2991209035165312  1.0000
  O   O17       1.0  0.10085695860778543  0.6068061293637043  0.19768041049631796  1.0000
  O   O18       1.0  0.6217448475074718  0.320158678640162  0.7499545072084434  1.0000
  O   O19       1.0  0.3216660670536556  0.6759554685504555  0.24945890177019692  1.0000
  O   O20       1.0  0.8141939372961958  0.2816292629530963  0.799840585989074  1.0000
  O   O21       1.0  0.4340406412737464  0.1694139975764556  0.6967604404183236  1.0000
  O   O22       1.0  0.6740090535410843  0.5291859513446511  0.7993716469015625  1.0000
  O   O23       1.0  0.8154710817647983  0.2832165058638907  0.6999596231542498  1.0000
  O   O24       1.0  0.18297038616691447  0.4840817297856643  0.300922644888324  1.0000
  O   O25       1.0  0.5529878170847836  0.7680871645012884  0.1978062911434009  1.0000
  O   O26       1.0  0.22894938670937381  0.8157360830582828  0.3008830745798364  1.0000
  O   O27       1.0  0.291209776179727  0.24093435210775732  0.7527061530269635  1.0000
  O   O28       1.0  0.313203152199641  0.3943891552886001  0.24816095982125574  1.0000
