data_image0
_chemical_formula_structural       MnH24C28S4N8O2
_chemical_formula_sum              "Mn1 H24 C28 S4 N8 O2"
_cell_length_a       8.158072132115022
_cell_length_b       9.36245720372671
_cell_length_c       11.46373315730579
_cell_angle_alpha    96.50211241714563
_cell_angle_beta     104.21797103991969
_cell_angle_gamma    103.39600553474921

_space_group_name_H-M_alt    "P 1"
_space_group_IT_number       1

loop_
  _space_group_symop_operation_xyz
  'x, y, z'

loop_
  _atom_site_type_symbol
  _atom_site_label
  _atom_site_symmetry_multiplicity
  _atom_site_fract_x
  _atom_site_fract_y
  _atom_site_fract_z
  _atom_site_occupancy
  Mn  Mn1       1.0  0.5000002144927365  0.4999938859548933  0.4999966929731625  1.0000
  H   H1        1.0  0.6244225310843348  0.5353596365456211  0.7805328096593056  1.0000
  H   H2        1.0  0.37557219781130874  0.4646381599415929  0.2194666178018991  1.0000
  H   H3        1.0  0.7671937139778536  0.2847377779901876  0.5202464146442409  1.0000
  H   H4        1.0  0.23280942044729613  0.7152667722231385  0.47975590977848975  1.0000
  H   H5        1.0  0.919434044062861  0.15796951006382184  0.6770618440915753  1.0000
  H   H6        1.0  0.08057390748830064  0.8420384117009901  0.32294072356052783  1.0000
  H   H7        1.0  0.9204432922354612  0.22304474782419695  0.8939167152270497  1.0000
  H   H8        1.0  0.07955593720974728  0.7769553176764887  0.10608454798121157  1.0000
  H   H9        1.0  0.8267677090782327  0.23745463947436452  0.05221581329826113  1.0000
  H   H10       1.0  0.1732251825803388  0.7625453764918004  0.9477843749695367  1.0000
  H   H11       1.0  0.7998280582181182  0.32940530926541806  0.25870568128917876  1.0000
  H   H12       1.0  0.20016355293818577  0.6705946899504978  0.741293416826899  1.0000
  H   H13       1.0  0.5796488830746255  0.7690734795323093  0.9455296799767224  1.0000
  H   H14       1.0  0.4203454160324895  0.23093542210789036  0.0544671799614349  1.0000
  H   H15       1.0  0.5844803846649711  0.935016287281513  0.04063925260031447  1.0000
  H   H16       1.0  0.41552182466917736  0.06498936924960928  0.9593630146438981  1.0000
  H   H17       1.0  0.7832387374263449  0.8100786426770268  0.8289808083628357  1.0000
  H   H18       1.0  0.21676268466720222  0.18992032641276066  0.1710207270120279  1.0000
  H   H19       1.0  0.927560136666287  0.06210795158219178  0.1944353724869217  1.0000
  H   H20       1.0  0.07243788869473612  0.9378965384734805  0.8055634664925645  1.0000
  H   H21       1.0  0.7357877853673358  0.5858648371861505  0.35585408171685623  1.0000
  H   H22       1.0  0.2642128398330357  0.41413970690004476  0.6441495630569419  1.0000
  H   H23       1.0  0.7518231125128096  0.7241014116884369  0.4576929610039641  1.0000
  H   H24       1.0  0.24818255702700043  0.2759031583386999  0.5423097933949491  1.0000
  C   C1        1.0  0.6917854143096209  0.45159322616768804  0.7609836056273309  1.0000
  C   C2        1.0  0.3082093275309674  0.54840457716287  0.23901669699750266  1.0000
  C   C3        1.0  0.7709004623157867  0.3116207161334899  0.6160219497300615  1.0000
  C   C4        1.0  0.22909910959574384  0.6883804655918977  0.38397947128776616  1.0000
  C   C5        1.0  0.854914096999188  0.2409026703696  0.7034660101984896  1.0000
  C   C6        1.0  0.1450863611685307  0.75909738450796  0.2965328425069841  1.0000
  C   C7        1.0  0.855157443575294  0.27750403486494674  0.8245611249796949  1.0000
  C   C8        1.0  0.1448383515541352  0.7224971308264186  0.17544140140110898  1.0000
  C   C9        1.0  0.7739158676250922  0.38687628393657286  0.8553310687200548  1.0000
  C   C10       1.0  0.22608044540432806  0.6131226249955685  0.14466698121157145  1.0000
  C   C11       1.0  0.7660622682236137  0.4313119669088009  0.9808442887439169  1.0000
  C   C12       1.0  0.23393277724846928  0.5686869321164348  0.019153546199618177  1.0000
  C   C13       1.0  0.7957302741105823  0.3430219442733672  0.07061822921718891  1.0000
  C   C14       1.0  0.2042618206548212  0.6569836466891983  0.9293840684495365  1.0000
  C   C15       1.0  0.7814855692812089  0.3941769986856797  0.18543220431851637  1.0000
  C   C16       1.0  0.2185054333605336  0.6058252093860614  0.8145652441013664  1.0000
  C   C17       1.0  0.7165158709944422  0.6011651357059903  0.11903008872068449  1.0000
  C   C18       1.0  0.283477311350687  0.39883596911150915  0.8809667567021789  1.0000
  C   C19       1.0  0.658297337278391  0.8531353293189524  0.02636802903893448  1.0000
  C   C20       1.0  0.34170289367590106  0.1468680711691732  0.9736319572707898  1.0000
  C   C21       1.0  0.8353773339046954  0.9277246243667959  0.013332003667216012  1.0000
  C   C22       1.0  0.16462094455962983  0.07227653376499887  0.9866674520352702  1.0000
  C   C23       1.0  0.8779720874600727  0.89310320373918  0.9042384211814464  1.0000
  C   C24       1.0  0.12202748445145771  0.10689797798621466  0.09576299983638138  1.0000
  C   C25       1.0  0.9593645953312944  0.034892627632458977  0.10884434220675838  1.0000
  C   C26       1.0  0.040632985255449235  0.9651062912065882  0.8911539227129595  1.0000
  C   C27       1.0  0.49351309285573564  0.8002520312901137  0.6611502954709889  1.0000
  C   C28       1.0  0.5065130911749378  0.19972481991809587  0.3388482074329673  1.0000
  S   S1        1.0  0.6667793420011989  0.7678674591855877  0.16155554722568868  1.0000
  S   S2        1.0  0.33321477837988317  0.23213254615745166  0.8384422305393213  1.0000
  S   S3        1.0  0.43008063135534513  0.9433019582373559  0.7045115286339224  1.0000
  S   S4        1.0  0.5699429314900257  0.05668269428954889  0.29549071963918294  1.0000
  N   N1        1.0  0.687794646977224  0.41400158527033426  0.6439220933748331  1.0000
  N   N2        1.0  0.31220100700942777  0.5859951048990766  0.35607739126489685  1.0000
  N   N3        1.0  0.7419328438169258  0.5230753351329865  0.21122039450563077  1.0000
  N   N4        1.0  0.25806137887211367  0.47692912520197667  0.7887777995095816  1.0000
  N   N5        1.0  0.7259061062945237  0.5614352818288494  0.006040197387271486  1.0000
  N   N6        1.0  0.27408871196414  0.438566962806945  0.9939587711605142  1.0000
  N   N7        1.0  0.5390555345282096  0.6939302955824329  0.62822827362438  1.0000
  N   N8        1.0  0.460961236103671  0.30606099863107517  0.3717751669167696  1.0000
  O   O1        1.0  0.7324421621172448  0.616358280053596  0.44281451572945224  1.0000
  O   O2        1.0  0.2675590327628754  0.3836440346467497  0.557188153249669  1.0000
