data_image0
_chemical_formula_structural       Hg2H28C44N12O4F4
_chemical_formula_sum              "Hg2 H28 C44 N12 O4 F4"
_cell_length_a       7.896011941006483
_cell_length_b       10.340852089306695
_cell_length_c       12.172802439277223
_cell_angle_alpha    101.46304845142805
_cell_angle_beta     89.99990010678864
_cell_angle_gamma    90.00012722420638

_space_group_name_H-M_alt    "P 1"
_space_group_IT_number       1

loop_
  _space_group_symop_operation_xyz
  'x, y, z'

loop_
  _atom_site_type_symbol
  _atom_site_label
  _atom_site_symmetry_multiplicity
  _atom_site_fract_x
  _atom_site_fract_y
  _atom_site_fract_z
  _atom_site_occupancy
  Hg  Hg1       1.0  5.923229054000002e-07  0.9999992463576178  0.5000002357356621  1.0000
  Hg  Hg2       1.0  0.4999993062309898  0.49999947070856626  0.5000002102539867  1.0000
  H   H1        1.0  0.042466767682150006  0.8636759868789741  0.18229395663582448  1.0000
  H   H2        1.0  0.5424724187063816  0.6363225018976238  0.8177060183468969  1.0000
  H   H3        1.0  0.9575280453995132  0.1363268958244532  0.8177062893624697  1.0000
  H   H4        1.0  0.45752746021290847  0.36367348493618584  0.18229473865009285  1.0000
  H   H5        1.0  0.11240569869848828  0.6401919594337785  0.06640174372839172  1.0000
  H   H6        1.0  0.6124091626855942  0.8598076131568819  0.9335975093004268  1.0000
  H   H7        1.0  0.8875891143853778  0.35981091220913447  0.9335968574213638  1.0000
  H   H8        1.0  0.3875970485419487  0.14018739250700216  0.06640390813981871  1.0000
  H   H9        1.0  0.18391334233154308  0.49510198467239525  0.3580097789761539  1.0000
  H   H10       1.0  0.6839102147646088  0.004897977943727502  0.6419890223992155  1.0000
  H   H11       1.0  0.8160903359845406  0.5048979213322796  0.6419875138107473  1.0000
  H   H12       1.0  0.3160896641560456  0.9950999878300024  0.35801288097850664  1.0000
  H   H13       1.0  0.9421984976489312  0.7087409117768146  0.7190623086709494  1.0000
  H   H14       1.0  0.44219996605063017  0.7912561902259653  0.2809369908071773  1.0000
  H   H15       1.0  0.0578039141996669  0.2912600141132772  0.28094008064034887  1.0000
  H   H16       1.0  0.5577973799515732  0.20874373236481605  0.7190627692553095  1.0000
  H   H17       1.0  0.18217433808636227  0.9358611423744206  0.012786706390777168  1.0000
  H   H18       1.0  0.6821704541363829  0.5641395082463421  0.9872110024119041  1.0000
  H   H19       1.0  0.8178331396188128  0.06414272151287292  0.987212879155905  1.0000
  H   H20       1.0  0.31782815832792716  0.4358604143453703  0.0127887576500285  1.0000
  H   H21       1.0  0.3332734722461339  0.0688454719010849  0.89087616644283  1.0000
  H   H22       1.0  0.8332679715040497  0.4311527199110472  0.10911971234733642  1.0000
  H   H23       1.0  0.6667327389977515  0.9311564019848573  0.10912062787514998  1.0000
  H   H24       1.0  0.16672937449704514  0.5688472082099878  0.8908808701394195  1.0000
  H   H25       1.0  0.2842324711557821  0.024781991637887305  0.685888909539365  1.0000
  H   H26       1.0  0.7842316133140058  0.475215147031399  0.3141076728246333  1.0000
  H   H27       1.0  0.7157699406981806  0.9752179143658567  0.31410838324809026  1.0000
  H   H28       1.0  0.2157657326883253  0.5247857677944694  0.685893071640358  1.0000
  C   C1        1.0  0.07467019159324906  0.7807119578283663  0.22130412710174605  1.0000
  C   C2        1.0  0.5746749257640856  0.7192865782087098  0.7786958195596017  1.0000
  C   C3        1.0  0.9253246214847123  0.21928796476055373  0.7786956329618563  1.0000
  C   C4        1.0  0.4253249531576769  0.28071138203477375  0.2213052613938515  1.0000
  C   C5        1.0  0.11378984285754969  0.6564633981200245  0.1575575868917127  1.0000
  C   C6        1.0  0.6137935047112392  0.8435352008577939  0.8424431477900217  1.0000
  C   C7        1.0  0.8862049702250872  0.343538486818062  0.8424408522798148  1.0000
  C   C8        1.0  0.3862101735887649  0.15645982139498227  0.1575607369241396  1.0000
  C   C9        1.0  0.1533588528934615  0.5768139253987388  0.3170409477586632  1.0000
  C   C10       1.0  0.6533568471461706  0.9231866995250825  0.6829592536582043  1.0000
  C   C11       1.0  0.8466422925008601  0.4231879540137342  0.68295666898581  1.0000
  C   C12       1.0  0.3466430317747538  0.07681325071882131  0.3170446185245126  1.0000
  C   C13       1.0  0.1159527227973669  0.7011513582953768  0.3824245714273219  1.0000
  C   C14       1.0  0.6159530599795315  0.7988472327936973  0.617574516505158  1.0000
  C   C15       1.0  0.8840484225910501  0.29884757206310303  0.617574204230998  1.0000
  C   C16       1.0  0.38404428601923246  0.20115171415275782  0.38242672642763875  1.0000
  C   C17       1.0  0.12705058799721763  0.7197051068108281  0.508261600547094  1.0000
  C   C18       1.0  0.6270486769197702  0.7802925138587895  0.49173731564796  1.0000
  C   C19       1.0  0.8729505573924283  0.2802948102524924  0.49173733708945383  1.0000
  C   C20       1.0  0.3729474026179743  0.2197064275564813  0.5082631048611219  1.0000
  C   C21       1.0  0.1128471839696417  0.8630950128554322  0.6881951518579472  1.0000
  C   C22       1.0  0.6128478685857459  0.6369035681460176  0.3118031163813272  1.0000
  C   C23       1.0  0.8871564943453406  0.13690489867948938  0.31180296335321606  1.0000
  C   C24       1.0  0.3871482109555727  0.3630973411486665  0.688196805659949  1.0000
  C   C25       1.0  0.028156128095510297  0.7879147538306628  0.7552678988472864  1.0000
  C   C26       1.0  0.5281546821366803  0.7120846951132761  0.24473142827822164  1.0000
  C   C27       1.0  0.9718475502185128  0.2120861554695992  0.2447320231906503  1.0000
  C   C28       1.0  0.47184139740353  0.28791621971166154  0.7552693161873238  1.0000
  C   C29       1.0  0.0541083602355314  0.8187738359398014  0.8702452383377733  1.0000
  C   C30       1.0  0.5541083998678642  0.6812256566225016  0.1297548883872821  1.0000
  C   C31       1.0  0.9458965845419769  0.18122905230131178  0.1297558300803345  1.0000
  C   C32       1.0  0.4458902125965806  0.3187752582042975  0.8702458560771549  1.0000
  C   C33       1.0  0.1629431238889225  0.9175602429850969  0.9224321269493461  1.0000
  C   C34       1.0  0.6629404802950845  0.5824393982386269  0.0775662592120057  1.0000
  C   C35       1.0  0.8370630873516659  0.08244164749160632  0.0775671346414342  1.0000
  C   C36       1.0  0.33705686570601046  0.41756052988240827  0.9224343232747572  1.0000
  C   C37       1.0  0.24583453632330074  0.990957137586804  0.8539830423252256  1.0000
  C   C38       1.0  0.7458314919203204  0.5090406518768662  0.14601494697976852  1.0000
  C   C39       1.0  0.7541729413803678  0.0090437551254894  0.14601441243823396  1.0000
  C   C40       1.0  0.2541658540807745  0.4909592762441692  0.8539856355069874  1.0000
  C   C41       1.0  0.22086508770208713  0.9654725633972064  0.7382646692285422  1.0000
  C   C42       1.0  0.7208630728015137  0.53452517836201  0.2617316971872087  1.0000
  C   C43       1.0  0.7791385906116587  0.034526361432888605  0.2617332840043929  1.0000
  C   C44       1.0  0.27913300673979785  0.4654757309326741  0.7382682248540676  1.0000
  N   N1        1.0  0.07753987603746282  0.8025685969541457  0.33323124907624907  1.0000
  N   N2        1.0  0.5775423147094257  0.6974289565879133  0.6667685330840956  1.0000
  N   N3        1.0  0.9224574699659698  0.19743231234147637  0.6667686729644732  1.0000
  N   N4        1.0  0.42245376482475183  0.30256801694794433  0.3332323858927993  1.0000
  N   N5        1.0  0.1545418464444239  0.554306879324095  0.20498158519581014  1.0000
  N   N6        1.0  0.6545408712931717  0.9456927495712861  0.795016808353431  1.0000
  N   N7        1.0  0.8454580324854459  0.44569401891287447  0.795016691995258  1.0000
  N   N8        1.0  0.3454602740905699  0.05430421843803401  0.20498328819696357  1.0000
  N   N9        1.0  0.08829820678265315  0.8394052051281591  0.5699790744726415  1.0000
  N   N10       1.0  0.5882986424107555  0.6605923642011508  0.4300206982270042  1.0000
  N   N11       1.0  0.91170420506554  0.16059274405667173  0.43002036163115787  1.0000
  N   N12       1.0  0.41169743712711687  0.3394075694492075  0.5699807066845822  1.0000
  O   O1        1.0  0.17719342694859816  0.6234316295780787  0.548194668241081  1.0000
  O   O2        1.0  0.6771919071823688  0.8765680325599449  0.45180370538713543  1.0000
  O   O3        1.0  0.8228077184385825  0.3765663140755749  0.45180394543900354  1.0000
  O   O4        1.0  0.32280670527974553  0.12343190109227463  0.5481976995233354  1.0000
  F   F1        1.0  0.9659292302192951  0.7481773444521026  0.9361335877234896  1.0000
  F   F2        1.0  0.46593243425183306  0.7518257181379867  0.06386748517718394  1.0000
  F   F3        1.0  0.034071915176930596  0.2518304828406386  0.0638691130117053  1.0000
  F   F4        1.0  0.5340674446770634  0.24817617786431614  0.9361325988406506  1.0000
