data_image0
_chemical_formula_structural       Cu16H40C32I8N24
_chemical_formula_sum              "Cu16 H40 C32 I8 N24"
_cell_length_a       8.511190009022378
_cell_length_b       12.708344865016375
_cell_length_c       12.70836415103848
_cell_angle_alpha    89.99985134520124
_cell_angle_beta     90.00023950765012
_cell_angle_gamma    90.00010837469807

_space_group_name_H-M_alt    "P 1"
_space_group_IT_number       1

loop_
  _space_group_symop_operation_xyz
  'x, y, z'

loop_
  _atom_site_type_symbol
  _atom_site_label
  _atom_site_symmetry_multiplicity
  _atom_site_fract_x
  _atom_site_fract_y
  _atom_site_fract_z
  _atom_site_occupancy
  Cu  Cu1       1.0  0.36217843627097324  0.667549526462345  0.8076936822642297  1.0000
  Cu  Cu2       1.0  0.3621759590529621  0.8324499855612543  0.6923048957394967  1.0000
  Cu  Cu3       1.0  0.862178703146341  0.19230389181461766  0.1675512391173442  1.0000
  Cu  Cu4       1.0  0.8621805558958827  0.3076932124998706  0.33244957482531856  1.0000
  Cu  Cu5       1.0  0.6378213975816749  0.3324486396288364  0.19230294570675005  1.0000
  Cu  Cu6       1.0  0.6378250497273256  0.16754739364409235  0.3076933060008216  1.0000
  Cu  Cu7       1.0  0.1378258304199562  0.8076950611569202  0.8324508970425555  1.0000
  Cu  Cu8       1.0  0.1378216278214026  0.6923065273557327  0.6675517744469346  1.0000
  Cu  Cu9       1.0  0.34300757799852727  0.44609365586205746  0.6513276333370328  1.0000
  Cu  Cu10      1.0  0.34300646532599194  0.05390621469481259  0.8486753355752015  1.0000
  Cu  Cu11      1.0  0.8430077727573819  0.34867413745841  0.946097318227956  1.0000
  Cu  Cu12      1.0  0.8430039196623865  0.1513263663818734  0.55390547607076  1.0000
  Cu  Cu13      1.0  0.6569899060283291  0.5539060839885296  0.348675289695322  1.0000
  Cu  Cu14      1.0  0.6569945434658779  0.9460958858156873  0.1513244399256664  1.0000
  Cu  Cu15      1.0  0.1569991106550077  0.6513271761702557  0.05390324416548961  1.0000
  Cu  Cu16      1.0  0.1569935643414837  0.8486710128232889  0.44609115189795295  1.0000
  H   H1        1.0  0.6172596326494428  0.6694899252105772  0.9772870680066106  1.0000
  H   H2        1.0  0.6172513912366996  0.8305099098854499  0.522713010669392  1.0000
  H   H3        1.0  0.11725678501751699  0.0227132763540752  0.1694924448942885  1.0000
  H   H4        1.0  0.11725675485919848  0.4772852451141246  0.33051100581809584  1.0000
  H   H5        1.0  0.3827449009018836  0.33051060153717765  0.022709559967886206  1.0000
  H   H6        1.0  0.38273904322146984  0.16948904308635085  0.477282043520745  1.0000
  H   H7        1.0  0.8827442237745871  0.9772872503863396  0.8305081174919594  1.0000
  H   H8        1.0  0.8827372043997244  0.5227152816177423  0.6694927040916383  1.0000
  H   H9        1.0  0.8078580214194419  0.6111693215530565  0.9698851987688502  1.0000
  H   H10       1.0  0.8078535157458829  0.8888315418342286  0.530116200148619  1.0000
  H   H11       1.0  0.3078586324008654  0.03011648240757841  0.1111704827495998  1.0000
  H   H12       1.0  0.30785777059644204  0.46988385424097606  0.3888319275565166  1.0000
  H   H13       1.0  0.19214533721049784  0.3888312051929289  0.030112216087339  1.0000
  H   H14       1.0  0.19214044348514395  0.11116662425425258  0.46987964093079876  1.0000
  H   H15       1.0  0.692142376391473  0.9698824705627518  0.8888308665220279  1.0000
  H   H16       1.0  0.6921373635849689  0.5301174593771875  0.6111709954705091  1.0000
  H   H17       1.0  0.6654413958706941  0.5564984675974644  0.0553338455755465  1.0000
  H   H18       1.0  0.6654337586608747  0.9435035129053942  0.4446643339115041  1.0000
  H   H19       1.0  0.16543783604387838  0.9446675021306915  0.056498803635499  1.0000
  H   H20       1.0  0.1654384944773213  0.5553330581993947  0.4435026979978005  1.0000
  H   H21       1.0  0.33456196275433575  0.4435020591505677  0.9446619955139681  1.0000
  H   H22       1.0  0.33455550087703756  0.05649622694917871  0.555331507159302  1.0000
  H   H23       1.0  0.8345619978243874  0.055333024608977176  0.9435017587491077  1.0000
  H   H24       1.0  0.834558989555326  0.4446690423037651  0.5565010119148255  1.0000
  H   H25       1.0  0.5489844642787887  0.2993571237554065  0.658120488822405  1.0000
  H   H26       1.0  0.5489801988936734  0.2006430076908927  0.8418767614064891  1.0000
  H   H27       1.0  0.048985553304603996  0.34188065084675406  0.7993574243773907  1.0000
  H   H28       1.0  0.0489814607944865  0.1581204210770366  0.7006462955296867  1.0000
  H   H29       1.0  0.4510200692716566  0.7006410423377291  0.34187692603848063  1.0000
  H   H30       1.0  0.4510219848079942  0.7993543715162235  0.15812065345213713  1.0000
  H   H31       1.0  0.9510189802708169  0.6581230234309601  0.20064549865971773  1.0000
  H   H32       1.0  0.9510195480145852  0.8418816794263151  0.2993589881545446  1.0000
  H   H33       1.0  0.7527562751992605  0.310183187189601  0.6758476677215768  1.0000
  H   H34       1.0  0.7527506936331818  0.18981484168347154  0.8241572346758659  1.0000
  H   H35       1.0  0.25275730234971405  0.32415619176684624  0.8101820996686584  1.0000
  H   H36       1.0  0.2527508424484353  0.17584435136836865  0.6898166822698785  1.0000
  H   H37       1.0  0.24724825837171235  0.6898173395499826  0.3241552553196172  1.0000
  H   H38       1.0  0.2472514900687202  0.8101809637535594  0.17584096706814026  1.0000
  H   H39       1.0  0.7472484061287759  0.6758466956352507  0.1898145283044173  1.0000
  H   H40       1.0  0.7472442917220408  0.824156175369346  0.3101830932248149  1.0000
  C   C1        1.0  0.6277488861185176  0.5258135816050923  0.8928609819639775  1.0000
  C   C2        1.0  0.6277439275923057  0.9741870536669592  0.6071359785344583  1.0000
  C   C3        1.0  0.12775322520551674  0.10713988461338181  0.025816895211299602  1.0000
  C   C4        1.0  0.1277468042104033  0.39286258456582596  0.474188158626049  1.0000
  C   C5        1.0  0.3722532975853738  0.4741853713710925  0.1071364328926023  1.0000
  C   C6        1.0  0.3722488567171069  0.0258126861898447  0.39285986254127897  1.0000
  C   C7        1.0  0.8722524832912837  0.8928637896660946  0.9741852409441236  1.0000
  C   C8        1.0  0.8722483299712495  0.6071371552822526  0.5258155512863567  1.0000
  C   C9        1.0  0.611218359060821  0.39600845329021445  0.7838691292051507  1.0000
  C   C10       1.0  0.6112153852892134  0.1039949045132502  0.7161322295880695  1.0000
  C   C11       1.0  0.11122021805530119  0.2161340560059841  0.8960097680371462  1.0000
  C   C12       1.0  0.11121470228436442  0.2838678816247082  0.6039949129023299  1.0000
  C   C13       1.0  0.3887838246482147  0.6039889259138392  0.2161306463034904  1.0000
  C   C14       1.0  0.3887832736373865  0.8960016878081235  0.2838643983833009  1.0000
  C   C15       1.0  0.8887878402976525  0.783870405156449  0.10399472877055872  1.0000
  C   C16       1.0  0.8887816068369645  0.716132645102519  0.3960135183107242  1.0000
  C   C17       1.0  0.6818074978623159  0.5949806546385048  0.9788366282511805  1.0000
  C   C18       1.0  0.6817994572453613  0.9050200490962937  0.5211636310492054  1.0000
  C   C19       1.0  0.1818056907249215  0.0211656120348636  0.0949817670844126  1.0000
  C   C20       1.0  0.18180495529446716  0.4788353518439622  0.4050202904852824  1.0000
  C   C21       1.0  0.3181982106153002  0.40501987210897267  0.0211607866082986  1.0000
  C   C22       1.0  0.3181909772152665  0.09497890387449098  0.47883221002426524  1.0000
  C   C23       1.0  0.8181953180647242  0.9788349147065746  0.9050180084184946  1.0000
  C   C24       1.0  0.81819252873818  0.5211667486591978  0.5949834194273436  1.0000
  C   C25       1.0  0.6411022102969995  0.30133297025865596  0.7189246644186013  1.0000
  C   C26       1.0  0.6411010844283921  0.1986664909711351  0.7810783517733526  1.0000
  C   C27       1.0  0.14110302697945093  0.2810773519568883  0.801333496188306  1.0000
  C   C28       1.0  0.14110144372773453  0.2189238366433628  0.6986689077291288  1.0000
  C   C29       1.0  0.35889762356769944  0.6986667695975014  0.2810751110836875  1.0000
  C   C30       1.0  0.3589010992781851  0.8013308882339416  0.2189206368519478  1.0000
  C   C31       1.0  0.8589003316638896  0.7189239616685227  0.1986678530835491  1.0000
  C   C32       1.0  0.8588995650728464  0.7810774769785168  0.3013340153061179  1.0000
  I   I1        1.0  0.41694678961835757  0.6661082875388971  0.5773612045646814  1.0000
  I   I2        1.0  0.416943404956065  0.8338873594169345  0.9226469693019226  1.0000
  I   I3        1.0  0.9169445737238177  0.42263998165666555  0.16610708606823726  1.0000
  I   I4        1.0  0.9169481346970584  0.07735876579356221  0.3338930942434786  1.0000
  I   I5        1.0  0.5830542191728725  0.33388987854690544  0.4226401447079695  1.0000
  I   I6        1.0  0.5830576038394283  0.1661068722421177  0.0773575275091787  1.0000
  I   I7        1.0  0.08305408521324859  0.5773605450853267  0.8338911156647129  1.0000
  I   I8        1.0  0.0830516991739003  0.9226401871750054  0.6661090419098485  1.0000
  N   N1        1.0  0.5118365981435743  0.5489173120969113  0.8256877068113299  1.0000
  N   N2        1.0  0.5118319938239607  0.9510816025916853  0.6743120768641404  1.0000
  N   N3        1.0  0.011835406716983202  0.17431453994697677  0.048918753809069  1.0000
  N   N4        1.0  0.011834526326183  0.3256893561893078  0.45108440189298443  1.0000
  N   N5        1.0  0.4881644106402803  0.4510808539919538  0.17431128181130623  1.0000
  N   N6        1.0  0.48816666510976586  0.04891656349670369  0.325686124871865  1.0000
  N   N7        1.0  0.9881726516299378  0.8256891343329684  0.9510841692329706  1.0000
  N   N8        1.0  0.988168832318273  0.6743127443206376  0.5489169473778546  1.0000
  N   N9        1.0  0.49996366052445046  0.4652621252063085  0.757108555170035  1.0000
  N   N10       1.0  0.4999571334526038  0.0347363703773453  0.742891705415545  1.0000
  N   N11       1.0  0.9999657582289672  0.24289489813721582  0.9652645793746187  1.0000
  N   N12       1.0  0.9999609093291254  0.257108952037143  0.5347394410195037  1.0000
  N   N13       1.0  0.5000349984128505  0.5347368277655988  0.24289043344829514  1.0000
  N   N14       1.0  0.5000403505588692  0.9652594350546695  0.257108070088556  1.0000
  N   N15       1.0  4.464997252999999e-05  0.7571119236813217  0.0347391305499656  1.0000
  N   N16       1.0  3.187499368099999e-05  0.7428915746990868  0.4652603344718997  1.0000
  N   N17       1.0  0.6921497792608662  0.4295021327144113  0.8701336455456711  1.0000
  N   N18       1.0  0.6921461721883446  0.0704973931740156  0.62986557907319  1.0000
  N   N19       1.0  0.19215365419806574  0.12986869945580537  0.9295044693166759  1.0000
  N   N20       1.0  0.19215169771809573  0.3701333406856762  0.5704996512215104  1.0000
  N   N21       1.0  0.30785005460406717  0.5704960333716614  0.1298669168419977  1.0000
  N   N22       1.0  0.307846612118837  0.9295007729137197  0.3701302620045936  1.0000
  N   N23       1.0  0.8078532292205836  0.8701318272852632  0.07049845372780081  1.0000
  N   N24       1.0  0.8078457863105227  0.6298711204741422  0.4295016980380382  1.0000
