data_image0
_chemical_formula_structural       Cd2H16C12S2O14
_chemical_formula_sum              "Cd2 H16 C12 S2 O14"
_cell_length_a       7.5307798216464885
_cell_length_b       10.507740260568823
_cell_length_c       7.591368291415507
_cell_angle_alpha    89.99915702644202
_cell_angle_beta     90.00099522532055
_cell_angle_gamma    108.28935287602326

_space_group_name_H-M_alt    "P 1"
_space_group_IT_number       1

loop_
  _space_group_symop_operation_xyz
  'x, y, z'

loop_
  _atom_site_type_symbol
  _atom_site_label
  _atom_site_symmetry_multiplicity
  _atom_site_fract_x
  _atom_site_fract_y
  _atom_site_fract_z
  _atom_site_occupancy
  Cd  Cd1       1.0  0.7498963136902005  0.5000035963964606  0.23773689463241254  1.0000
  Cd  Cd2       1.0  0.2498939485615708  0.5000047087650685  0.7622597568664915  1.0000
  H   H1        1.0  0.37930666948327024  0.117352973819159  0.8088447034238088  1.0000
  H   H2        1.0  0.12060257260228002  0.8826855576668107  0.8088398339522485  1.0000
  H   H3        1.0  0.620616632124907  0.8826707667372419  0.19116117012652722  1.0000
  H   H4        1.0  0.8793141035419723  0.1173382145588135  0.1911607703965288  1.0000
  H   H5        1.0  0.5062305555794211  0.6542367171906278  0.1451427263078813  1.0000
  H   H6        1.0  0.9937437535694469  0.34585083556054036  0.145116759154746  1.0000
  H   H7        1.0  0.4937518644291145  0.34585403754258687  0.8549013484795581  1.0000
  H   H8        1.0  0.006246683055017929  0.6542519345055382  0.8548258846118416  1.0000
  H   H9        1.0  0.6295291397727992  0.7029282561497254  0.3255180062067211  1.0000
  H   H10       1.0  0.8706310715086757  0.29728929129321807  0.3256606046525832  1.0000
  H   H11       1.0  0.37064663145845594  0.29730119150072193  0.6743521874229472  1.0000
  H   H12       1.0  0.12955841616050637  0.7029441073544406  0.6744651424684633  1.0000
  H   H13       1.0  0.6442012536548418  0.4477560937703302  0.6065315745186339  1.0000
  H   H14       1.0  0.855825339140459  0.5521691627393823  0.6064416755140911  1.0000
  H   H15       1.0  0.35582389317158203  0.5521536595994265  0.39354279975921014  1.0000
  H   H16       1.0  0.14419626200538727  0.44773859944095323  0.3934772590504494  1.0000
  C   C1        1.0  0.3168330214076959  0.0643467766353822  0.9276901042664891  1.0000
  C   C2        1.0  0.18312527552637178  0.9356602668698172  0.9276749060078444  1.0000
  C   C3        1.0  0.683137435986495  0.9356576545033873  0.0723263081525971  1.0000
  C   C4        1.0  0.816836783967595  0.06434320004337479  0.07232174706099671  1.0000
  C   C5        1.0  0.3662452931390661  0.11321518291809703  0.0964578967989382  1.0000
  C   C6        1.0  0.13371896043145884  0.8867625079052743  0.09645187300687041  1.0000
  C   C7        1.0  0.633718421974315  0.8867681874532495  0.9035519293116465  1.0000
  C   C8        1.0  0.8662407960686093  0.1132238946899946  0.9035513666147423  1.0000
  C   C9        1.0  0.49967075437110237  0.2416226103709674  0.1556462660537576  1.0000
  C   C10       1.0  0.00026723947524937523  0.7583415903288894  0.1555860464962038  1.0000
  C   C11       1.0  0.5002757347666814  0.7583608421690684  0.8443859537577367  1.0000
  C   C12       1.0  0.9996725903786866  0.24163586779948076  0.8443710880289004  1.0000
  S   S1        1.0  0.25000170468675253  0.9999689659580752  0.2541916227618302  1.0000
  S   S2        1.0  0.74999214459487  0.9999872250069116  0.7458136374779444  1.0000
  O   O1        1.0  0.5682515867957179  0.3359660083265937  0.040640454908079  1.0000
  O   O2        1.0  0.9316815640237903  0.6640303194024781  0.0405658090473366  1.0000
  O   O3        1.0  0.4316932302461467  0.6640345273928575  0.9594115240267557  1.0000
  O   O4        1.0  0.06825579917211402  0.33598029668226564  0.9593847387454632  1.0000
  O   O5        1.0  0.5438667549792483  0.2570115506070039  0.3161841221610757  1.0000
  O   O6        1.0  0.9560784785302161  0.7429329034647979  0.3161494015705274  1.0000
  O   O7        1.0  0.4560748142822106  0.7429608767475814  0.6838415112726468  1.0000
  O   O8        1.0  0.04386342091952138  0.25701943393312376  0.6838353961842145  1.0000
  O   O9        1.0  0.54238330084209  0.6260841116000221  0.2660911808481359  1.0000
  O   O10       1.0  0.9576402933008765  0.3740884461478373  0.2660140335338781  1.0000
  O   O11       1.0  0.457656168215081  0.3740987778591531  0.7340016332286723  1.0000
  O   O12       1.0  0.042396110446304605  0.6260994810204181  0.7338825049209703  1.0000
  O   O13       1.0  0.7501983441545689  0.49964519864362694  0.5319618561885946  1.0000
  O   O14       1.0  0.2502141149057521  0.49961484874295786  0.4680400763630246  1.0000
