data_image0
_chemical_formula_structural       H96Pb8C132O26
_chemical_formula_sum              "H96 Pb8 C132 O26"
_cell_length_a       6.970294181735384
_cell_length_b       20.566730850700083
_cell_length_c       23.856232587705907
_cell_angle_alpha    68.87676922122205
_cell_angle_beta     81.62781711202975
_cell_angle_gamma    80.22582855356399

_space_group_name_H-M_alt    "P 1"
_space_group_IT_number       1

loop_
  _space_group_symop_operation_xyz
  'x, y, z'

loop_
  _atom_site_type_symbol
  _atom_site_label
  _atom_site_symmetry_multiplicity
  _atom_site_fract_x
  _atom_site_fract_y
  _atom_site_fract_z
  _atom_site_occupancy
  H   H1        1.0  0.46976663968456467  0.6239684741759817  0.18918904340107895  1.0000
  H   H2        1.0  0.282237741074681  0.8761975499125041  0.3107197751932986  1.0000
  H   H3        1.0  0.5302661094436446  0.37603160454717965  0.810812824060136  1.0000
  H   H4        1.0  0.7177685242196289  0.12381565389174647  0.6892789090472675  1.0000
  H   H5        1.0  0.442222063544598  0.5362802613099048  0.1420548041115453  1.0000
  H   H6        1.0  0.11996338937336044  0.9638425305143413  0.3579247133392015  1.0000
  H   H7        1.0  0.5577980790660318  0.46371446685573386  0.8579525189420921  1.0000
  H   H8        1.0  0.8800450144630503  0.03616050265603119  0.6420844250980124  1.0000
  H   H9        1.0  0.7442216295364974  0.6606025147933676  0.9778461819693334  1.0000
  H   H10       1.0  0.3824607231089629  0.8392643222845917  0.5221304839300842  1.0000
  H   H11       1.0  0.2557171598057621  0.3394051035372883  0.02214647681199717  1.0000
  H   H12       1.0  0.6175652973369169  0.16072636223204032  0.47787149676533147  1.0000
  H   H13       1.0  0.785630812531785  0.7450303291226774  0.02730375708290464  1.0000
  H   H14       1.0  0.5579796985735327  0.7549641889004872  0.4725918102632819  1.0000
  H   H15       1.0  0.21433155238637613  0.2549762912376039  0.9726869560039973  1.0000
  H   H16       1.0  0.44204966504335624  0.24503345570161625  0.5274029494066285  1.0000
  H   H17       1.0  0.7469391114747734  0.46014735913788474  0.07378003212102865  1.0000
  H   H18       1.0  0.2803940920569445  0.039797235091022294  0.42613119974016206  1.0000
  H   H19       1.0  0.25300981894346813  0.5398479419018116  0.9262254763191181  1.0000
  H   H20       1.0  0.7196065799843864  0.9601911471191967  0.573879642505041  1.0000
  H   H21       1.0  0.8523587063803574  0.011669044488897398  0.1078329890072922  1.0000
  H   H22       1.0  0.9721562123017549  0.4884685197528499  0.391942275858014  1.0000
  H   H23       1.0  0.1476236369346181  0.9883588770040816  0.892140134495314  1.0000
  H   H24       1.0  0.02785921428873184  0.5115274106494212  0.6080586004888177  1.0000
  H   H25       1.0  0.83648784746984  0.13739704708333986  0.0981431455184634  1.0000
  H   H26       1.0  0.07329940031649328  0.36275628936272136  0.4016547674161687  1.0000
  H   H27       1.0  0.16350777841044817  0.862625887102993  0.901841794953441  1.0000
  H   H28       1.0  0.9267221983518252  0.6372385230973165  0.5983491160658545  1.0000
  H   H29       1.0  0.26473266878966223  0.07770777769837879  0.22681684043549674  1.0000
  H   H30       1.0  0.570756481750955  0.4226227120198301  0.2733548562833548  1.0000
  H   H31       1.0  0.735237764335622  0.9222924706830324  0.7731783488040663  1.0000
  H   H32       1.0  0.4292522687915649  0.5773716768469085  0.7266450752627308  1.0000
  H   H33       1.0  0.2821110017545721  0.9538801004190058  0.23494308435167002  1.0000
  H   H34       1.0  0.4714873023582767  0.5464351464169042  0.2652151068101034  1.0000
  H   H35       1.0  0.7178421775590422  0.046124059652243005  0.7650416087548991  1.0000
  H   H36       1.0  0.5285228953915037  0.4535592127073683  0.7347860310053846  1.0000
  H   H37       1.0  0.7399468343637706  0.19490572447690366  0.19190312271013002  1.0000
  H   H38       1.0  0.12785798535935555  0.3054505658390525  0.30820171127338375  1.0000
  H   H39       1.0  0.2600481629676493  0.80509859608199  0.808096132546531  1.0000
  H   H40       1.0  0.8721460153704752  0.6945445898508638  0.6918095122316075  1.0000
  H   H41       1.0  0.3131241240680324  0.3240179135939982  0.1266603857588535  1.0000
  H   H42       1.0  0.7648317901705965  0.17590752426163186  0.37358643649585593  1.0000
  H   H43       1.0  0.6868817758438864  0.6759842733917906  0.8733407210544897  1.0000
  H   H44       1.0  0.23519522373302226  0.8240882926047846  0.6264190218159981  1.0000
  H   H45       1.0  0.6183125982293162  0.37990466259846295  0.17101069049711984  1.0000
  H   H46       1.0  0.16941365941794115  0.12044437044666978  0.32924355637744185  1.0000
  H   H47       1.0  0.38167589577078315  0.6200973733145074  0.8289966361933807  1.0000
  H   H48       1.0  0.8305966542256868  0.8795535849258515  0.6707598711411364  1.0000
  H   H49       1.0  0.6346124600182323  0.32018928765731386  0.24569862636229806  1.0000
  H   H50       1.0  0.20039580703897283  0.18016137145316688  0.2545672359517823  1.0000
  H   H51       1.0  0.36539185828713966  0.679809094381987  0.7543086985097673  1.0000
  H   H52       1.0  0.799630254777085  0.8198370205966369  0.7454395995972406  1.0000
  H   H53       1.0  0.5323047833970448  0.2966502109332295  0.1938747076411218  1.0000
  H   H54       1.0  0.023175077740980016  0.20377701480306595  0.3064240581600828  1.0000
  H   H55       1.0  0.4676958804329132  0.7033503114716736  0.8061304617835248  1.0000
  H   H56       1.0  0.9768441216325173  0.7962204025828112  0.6935799962897137  1.0000
  H   H57       1.0  0.41009245492445967  0.14028450757826497  0.12476389794942831  1.0000
  H   H58       1.0  0.6764103918339969  0.35976417205301203  0.3754042343997597  1.0000
  H   H59       1.0  0.5899013424400152  0.8597149883277806  0.8752406021218989  1.0000
  H   H60       1.0  0.3236040842780951  0.6402343542666173  0.624597174485892  1.0000
  H   H61       1.0  0.5221505356855118  0.2082625913860667  0.1314642165336153  1.0000
  H   H62       1.0  0.8633787560612659  0.2918544969625003  0.36862242855442423  1.0000
  H   H63       1.0  0.47784957539735007  0.791739714569566  0.8685320652021176  1.0000
  H   H64       1.0  0.13664056001065455  0.7081465270386075  0.6313834932492739  1.0000
  H   H65       1.0  0.41976461450123276  0.22113275319834003  0.0643384169735128  1.0000
  H   H66       1.0  0.7069869471666691  0.2788692473307677  0.43577368580694303  1.0000
  H   H67       1.0  0.5802242221820535  0.7788605865760515  0.9356618145717802  1.0000
  H   H68       1.0  0.29303142566812557  0.7211344658905786  0.5642289673929215  1.0000
  H   H69       1.0  0.8886695701228009  0.4941954891271009  0.25882821311014237  1.0000
  H   H70       1.0  0.640545298689929  0.006005622536918096  0.24129312530314456  1.0000
  H   H71       1.0  0.11133455937422805  0.5058034286828531  0.7411785425110012  1.0000
  H   H72       1.0  0.3594779285872177  0.994000774971681  0.7587064385294654  1.0000
  H   H73       1.0  0.8851142531734268  0.3745521470058435  0.2565732875301308  1.0000
  H   H74       1.0  0.5156250634526031  0.12560030199751537  0.2437163370972755  1.0000
  H   H75       1.0  0.11490853419766012  0.6254473449692239  0.7434312640257803  1.0000
  H   H76       1.0  0.48437861390406317  0.874403798638667  0.7562918451725198  1.0000
  H   H77       1.0  0.13507008975008714  0.44104749478063343  0.07167711881733402  1.0000
  H   H78       1.0  0.6492979674347692  0.05879315278914988  0.42851167078098484  1.0000
  H   H79       1.0  0.8649087032456252  0.5589615200922678  0.9283222668034484  1.0000
  H   H80       1.0  0.3507190863209003  0.941202098063158  0.5714956269272022  1.0000
  H   H81       1.0  0.12687142098164375  0.5611143985198479  0.07391738239454776  1.0000
  H   H82       1.0  0.7626065630020803  0.9387369370167344  0.42613736235018973  1.0000
  H   H83       1.0  0.8730901677839497  0.4388940953813716  0.926082034767397  1.0000
  H   H84       1.0  0.23741812693495487  0.06125738385759398  0.5738652794297395  1.0000
  H   H85       1.0  0.8370921322220325  0.35326157027002136  0.05497499126963848  1.0000
  H   H86       1.0  0.24556435814694297  0.1464966118121325  0.4451383237045193  1.0000
  H   H87       1.0  0.1628484837188822  0.6467327236462878  0.9450290638969748  1.0000
  H   H88       1.0  0.7544408093910279  0.8534835208027759  0.5548684729527407  1.0000
  H   H89       1.0  0.758326502335038  0.3430487700752635  0.9911131436316084  1.0000
  H   H90       1.0  0.09234517671850986  0.15695112993014956  0.5088197300981748  1.0000
  H   H91       1.0  0.24161069655024645  0.6569549292720537  0.00889037904946116  1.0000
  H   H92       1.0  0.9076717643616445  0.8430405661418591  0.4911835885101895  1.0000
  H   H93       1.0  0.6192653663009509  0.3168236809561192  0.061696080759808994  1.0000
  H   H94       1.0  0.998194290116018  0.18316240792370309  0.43811775965658484  1.0000
  H   H95       1.0  0.3806934748492238  0.6831643748946589  0.9383069569222259  1.0000
  H   H96       1.0  0.001818627083416312  0.8168203598605145  0.5618879378230517  1.0000
  Pb  Pb1       1.0  0.6294009980962084  0.8438096515294262  0.20627707056029007  1.0000
  Pb  Pb2       1.0  0.6790854478867773  0.6565805904413364  0.2933800432903837  1.0000
  Pb  Pb3       1.0  0.37057934415183524  0.15618333092908898  0.7937164926195309  1.0000
  Pb  Pb4       1.0  0.3209475645734372  0.3434148412262488  0.7066198282712365  1.0000
  Pb  Pb5       1.0  0.01915999475676944  0.7569546789813586  0.32685758940428405  1.0000
  Pb  Pb6       1.0  0.10328804924738927  0.7431990714703999  0.17299876063848518  1.0000
  Pb  Pb7       1.0  0.9809066363047947  0.243073055075584  0.6731015971378796  1.0000
  Pb  Pb8       1.0  0.8967289117818495  0.2568051276408383  0.8269841029279164  1.0000
  C   C1        1.0  0.6391275350334948  0.741606871477849  0.1406027826474839  1.0000
  C   C2        1.0  0.5211608899310816  0.7586245577384858  0.359149960356973  1.0000
  C   C3        1.0  0.36086110623924833  0.25839916499585763  0.8593903621279538  1.0000
  C   C4        1.0  0.4788415547733678  0.24137936861308157  0.6408440697204938  1.0000
  C   C5        1.0  0.624848867228522  0.6906776341082191  0.11078291365789997  1.0000
  C   C6        1.0  0.42600818074889457  0.8094313816204985  0.38909531537857583  1.0000
  C   C7        1.0  0.37514986392947947  0.30932049700206926  0.8892133978005604  1.0000
  C   C8        1.0  0.5739958999711662  0.19057197921796387  0.6109004902192225  1.0000
  C   C9        1.0  0.5321175104636494  0.6309740524578655  0.1430974721090337  1.0000
  C   C10       1.0  0.30565322812628165  0.8691581900733283  0.3568245209108696  1.0000
  C   C11       1.0  0.46789337684627014  0.36902238890559147  0.8569038620196849  1.0000
  C   C12       1.0  0.6943544301317672  0.13084711058348827  0.643177272332423  1.0000
  C   C13       1.0  0.5164438838770594  0.5821796274043007  0.11667545319660627  1.0000
  C   C14       1.0  0.21481663214775892  0.9179148894761223  0.38329081063987064  1.0000
  C   C15       1.0  0.4835566648636346  0.4178173091193426  0.8833270041757687  1.0000
  C   C16       1.0  0.7851902061737873  0.08208454608750769  0.6167160988724093  1.0000
  C   C17       1.0  0.5857655744070697  0.5937155054560604  0.05617969980091426  1.0000
  C   C18       1.0  0.23538088907542212  0.9062848546057437  0.4437993921375424  1.0000
  C   C19       1.0  0.4142070563313496  0.4062825078983606  0.9438215068068702  1.0000
  C   C20       1.0  0.7646260894430341  0.09370624435118197  0.5562070329147063  1.0000
  C   C21       1.0  0.6840551670511344  0.6525294115710378  0.02435610958401919  1.0000
  C   C22       1.0  0.36067557395517014  0.8474044317522238  0.4756029142183565  1.0000
  C   C23       1.0  0.3158960393612985  0.3474718388562438  0.9756408430155262  1.0000
  C   C24       1.0  0.6393402983389932  0.15258623288792708  0.5243999142732889  1.0000
  C   C25       1.0  0.7062217763480662  0.7001264193128945  0.051452481523064385  1.0000
  C   C26       1.0  0.45771504789128414  0.7998892482123593  0.44844623942661604  1.0000
  C   C27       1.0  0.2937502968157446  0.29987331539033585  0.9485423714909161  1.0000
  C   C28       1.0  0.5423043555776558  0.20010783037562158  0.5515503596396343  1.0000
  C   C29       1.0  0.5440184712069963  0.5463763309586726  0.02615646648429494  1.0000
  C   C30       1.0  0.11636230109012045  0.9536133373778807  0.4738404500418555  1.0000
  C   C31       1.0  0.4559284383376934  0.45362051383255403  0.9738499290763017  1.0000
  C   C32       1.0  0.8836396966325423  0.046371346272721284  0.526172265213937  1.0000
  C   C33       1.0  0.6367322500234136  0.47714267164774077  0.04156824440692466  1.0000
  C   C34       1.0  0.15511911354396798  0.0228375649814438  0.45836877433627893  1.0000
  C   C35       1.0  0.36320602666382473  0.5228499293037244  0.9584410188622385  1.0000
  C   C36       1.0  0.8448881770834686  0.9771444438913973  0.5416466048397268  1.0000
  C   C37       1.0  0.5968181992760647  0.4298072269440141  0.016147777438177958  1.0000
  C   C38       1.0  0.04268331958524391  0.07018121009414807  0.48381363384937265  1.0000
  C   C39       1.0  0.4031167981386901  0.5701864117307948  0.9838617359329762  1.0000
  C   C40       1.0  0.9573223358311652  0.929801374658794  0.5161995474571199  1.0000
  C   C41       1.0  0.07257371756513452  0.8986710534373897  0.1798644907208455  1.0000
  C   C42       1.0  0.15106913564915905  0.601568895045247  0.31994842187887684  1.0000
  C   C43       1.0  0.9273778783672242  0.1013415248179541  0.8201173688304239  1.0000
  C   C44       1.0  0.848959145503805  0.3984275418862211  0.6800530276104269  1.0000
  C   C45       1.0  0.06792458682284767  0.974451901781471  0.17209854122256718  1.0000
  C   C46       1.0  0.2148852855564343  0.5257711121143841  0.32786364983756044  1.0000
  C   C47       1.0  0.9320380324113628  0.02556220135094379  0.8278849254933718  1.0000
  C   C48       1.0  0.7851419316380441  0.47422435558714676  0.6721347754399218  1.0000
  C   C49       1.0  0.9422295298646972  0.026801371152608094  0.1337202450283073  1.0000
  C   C50       1.0  0.10333636467711224  0.4733791448410114  0.36616202144143983  1.0000
  C   C51       1.0  0.057741273304955425  0.9732222001137388  0.8662600912309912  1.0000
  C   C52       1.0  0.8966815835387223  0.5266178598195593  0.6338375948472362  1.0000
  C   C53       1.0  0.9335533548051203  0.09697179083736529  0.12848776564715791  1.0000
  C   C54       1.0  0.16011572212561734  0.4032203500871887  0.371399573852834  1.0000
  C   C55       1.0  0.06642494129619059  0.9030469017251975  0.8714999848530238  1.0000
  C   C56       1.0  0.8399015333117459  0.5967745308662555  0.6286015355193513  1.0000
  C   C57       1.0  0.05092875176278969  0.11658858656952023  0.16132450945627136  1.0000
  C   C58       1.0  0.3302444207009713  0.38363860157114965  0.3386790050339243  1.0000
  C   C59       1.0  0.9490516292761483  0.8834243161857671  0.8386652793123163  1.0000
  C   C60       1.0  0.6697742827482427  0.6163562600068246  0.6613228882584751  1.0000
  C   C61       1.0  0.17619172880726808  0.06387125038732219  0.19974654753942644  1.0000
  C   C62       1.0  0.4411011440000152  0.4363837100517002  0.3003662111800196  1.0000
  C   C63       1.0  0.8237710129229965  0.9361342880646716  0.8002457263985222  1.0000
  C   C64       1.0  0.5589085538025598  0.5636080414297312  0.6996348772239854  1.0000
  C   C65       1.0  0.1850546553111626  0.994079896097517  0.2047705830365417  1.0000
  C   C66       1.0  0.3847011748127899  0.5061668261354484  0.2953396782260356  1.0000
  C   C67       1.0  0.8149120657113115  0.005926821641139692  0.7952161465732674  1.0000
  C   C68       1.0  0.6153250432918612  0.4938234366473894  0.7046582258792996  1.0000
  C   C69       1.0  0.04189035037143899  0.19059039087800037  0.1576896417004647  1.0000
  C   C70       1.0  0.39160359098994485  0.30962844684714236  0.3423516684172371  1.0000
  C   C71       1.0  0.9581042685387047  0.8094149908552096  0.8423088974035127  1.0000
  C   C72       1.0  0.6084241076463002  0.6903693900565386  0.6576565203029362  1.0000
  C   C73       1.0  0.8658729049052312  0.22399381074913546  0.17687507595655216  1.0000
  C   C74       1.0  0.267800392732333  0.27625226329150365  0.32327972976202096  1.0000
  C   C75       1.0  0.13411584180175845  0.7760156872019903  0.8231258490613628  1.0000
  C   C76       1.0  0.7322138258453633  0.7237387387880431  0.6767306148913194  1.0000
  C   C77       1.0  0.8453990327103824  0.29162234873628273  0.17947871097434392  1.0000
  C   C78       1.0  0.31713139591271755  0.20856091252736764  0.3207886147772427  1.0000
  C   C79       1.0  0.1546073663441589  0.7083824355253581  0.8205228675996568  1.0000
  C   C80       1.0  0.6828835795075322  0.7914279672035531  0.6792231621814581  1.0000
  C   C81       1.0  0.012145075273153274  0.327525768609803  0.1620792303589482  1.0000
  C   C82       1.0  0.5024310945566696  0.17253614031092468  0.3381844139162383  1.0000
  C   C83       1.0  0.9878557141056628  0.6724784744471961  0.8379231605785835  1.0000
  C   C84       1.0  0.49758419441619145  0.8274559139344575  0.6618255761554651  1.0000
  C   C85       1.0  0.18654726785939607  0.2951154800352923  0.14080219249918713  1.0000
  C   C86       1.0  0.6235383686267751  0.20491275717539276  0.3593854668105224  1.0000
  C   C87       1.0  0.8134495542959712  0.7048877392398437  0.8591994075287347  1.0000
  C   C88       1.0  0.37648485801131665  0.7950813861016568  0.6406244156836678  1.0000
  C   C89       1.0  0.20678616782804213  0.22732456491952746  0.1381823953344963  1.0000
  C   C90       1.0  0.573719500703781  0.272780969694054  0.36190055486184763  1.0000
  C   C91       1.0  0.7932156959688541  0.7726807821382308  0.8618175292754772  1.0000
  C   C92       1.0  0.4263120484574827  0.7272142843762522  0.6381065574140338  1.0000
  C   C93       1.0  0.6482189258365735  0.3240271176213625  0.19823880318660508  1.0000
  C   C94       1.0  0.1707011731705491  0.1763092624079832  0.30203137196696167  1.0000
  C   C95       1.0  0.3517831876144015  0.6759734061420487  0.8017663054598928  1.0000
  C   C96       1.0  0.8293088277250503  0.8236855288170727  0.6979734200894329  1.0000
  C   C97       1.0  0.3991284208932199  0.1971849950975013  0.11380117341771982  1.0000
  C   C98       1.0  0.7116425799669627  0.30286961439441734  0.3863107583786417  1.0000
  C   C99       1.0  0.6008742726607252  0.8028140975927301  0.8861984630454529  1.0000
  C   C100      1.0  0.2883827266157153  0.6971309207379832  0.6136938001666649  1.0000
  C   C101      1.0  0.01242577395999683  0.6079436001289905  0.1656693243239218  1.0000
  C   C102      1.0  0.7854832088942131  0.8920711253435909  0.334343054396058  1.0000
  C   C103      1.0  0.9875763419047345  0.3920569547353735  0.8343345172750247  1.0000
  C   C104      1.0  0.21453101917296638  0.10793224500436341  0.6656523257546995  1.0000
  C   C105      1.0  0.006331729121832605  0.5354833923695849  0.16609809082547858  1.0000
  C   C106      1.0  0.7077745624972208  0.9645359861142568  0.33397506797908955  1.0000
  C   C107      1.0  0.9936626953478723  0.46452245256536867  0.8339028354718536  1.0000
  C   C108      1.0  0.29225024735658417  0.035461982843251895  0.6660277517580013  1.0000
  C   C109      1.0  0.9383703985312691  0.4825337585339822  0.21759204539383606  1.0000
  C   C110      1.0  0.6378593883850314  0.017569943426984497  0.28255899101556287  1.0000
  C   C111      1.0  0.06163442937631908  0.5174673555520072  0.7824102606995214  1.0000
  C   C112      1.0  0.36216553897179443  0.9824316425127505  0.7174452737262415  1.0000
  C   C113      1.0  0.9375899880705558  0.41548181047074445  0.21617252237447104  1.0000
  C   C114      1.0  0.5689572787642944  0.08461106020617849  0.2840645069697346  1.0000
  C   C115      1.0  0.062422088746707426  0.5845193207747245  0.7838290574789538  1.0000
  C   C116      1.0  0.4310538403333126  0.9153925736537685  0.7159414065651505  1.0000
  C   C117      1.0  0.008299145386487777  0.3989724887466082  0.16394872103974484  1.0000
  C   C118      1.0  0.5716620206276558  0.10104189008106346  0.3363056311780142  1.0000
  C   C119      1.0  0.9917063744949882  0.6010307386795191  0.8360525143192846  1.0000
  C   C120      1.0  0.4283498520941648  0.898959579962309  0.6637034040589641  1.0000
  C   C121      1.0  0.07944117411270914  0.45223595407671985  0.11287240853285137  1.0000
  C   C122      1.0  0.6455167211969979  0.04770031941112759  0.38729952858509625  1.0000
  C   C123      1.0  0.920539637342806  0.5477714859436914  0.8871273570150181  1.0000
  C   C124      1.0  0.35449793648217554  0.9522975778349687  0.6127062506941315  1.0000
  C   C125      1.0  0.07582839892825183  0.5196008357355452  0.11380371213033415  1.0000
  C   C126      1.0  0.7097610255036454  0.9803295196526992  0.38629090713157405  1.0000
  C   C127      1.0  0.9241508429894763  0.4804029548431856  0.8861959362385221  1.0000
  C   C128      1.0  0.2902563490458975  0.019668999016943193  0.6137108025469618  1.0000
  C   C129      1.0  0.7089143702510867  0.357136119190521  0.03167657164340908  1.0000
  C   C130      1.0  0.09780089829087049  0.14278852864279656  0.4682799151497862  1.0000
  C   C131      1.0  0.2910229623944359  0.6428591606142006  0.9683298453711089  1.0000
  C   C132      1.0  0.9022088555299348  0.8571988731130136  0.531728322134917  1.0000
  O   O1        1.0  0.7567611387821883  0.787548563752125  0.118565608186472  1.0000
  O   O2        1.0  0.6628749930319414  0.712642841710142  0.3811228446519763  1.0000
  O   O3        1.0  0.24324427646962474  0.21245121256357172  0.881427424580906  1.0000
  O   O4        1.0  0.33711883007922694  0.28735698593948905  0.6188681402454961  1.0000
  O   O5        1.0  0.5269775212334978  0.7378992087264961  0.18978248772828013  1.0000
  O   O6        1.0  0.45437071962125203  0.7624663037407585  0.30991880805648003  1.0000
  O   O7        1.0  0.4729931678170089  0.26210854316101967  0.8102046104419572  1.0000
  O   O8        1.0  0.5456385290937716  0.23754291589940374  0.6900721212870734  1.0000
  O   O9        1.0  0.9570349145221827  0.8831987374994622  0.15055041300218627  1.0000
  O   O10       1.0  0.9906932202527444  0.6170832467406056  0.3491866420350647  1.0000
  O   O11       1.0  0.0429183117936915  0.11681320267386744  0.8494361785136988  1.0000
  O   O12       1.0  0.009318678215770091  0.382918555046352  0.6508088780280517  1.0000
  O   O13       1.0  0.1898249574526645  0.8524413092242327  0.21488206862159837  1.0000
  O   O14       1.0  0.25696562375100734  0.6477809138308925  0.28490158603973736  1.0000
  O   O15       1.0  0.810153998102784  0.14757190318216118  0.7850951104496461  1.0000
  O   O16       1.0  0.7430780904126023  0.3522127645294261  0.7151059030653855  1.0000
  O   O17       1.0  0.0867030490292961  0.6519124932333115  0.11881545406496484  1.0000
  O   O18       1.0  0.8563921426265965  0.8479217798886649  0.38124452214358945  1.0000
  O   O19       1.0  0.9132872842772813  0.3480886280016619  0.8811866151115028  1.0000
  O   O20       1.0  0.1436281512795929  0.15207700067264796  0.6187465072490639  1.0000
  O   O21       1.0  0.9471153239649794  0.6230113598705032  0.21378675907122607  1.0000
  O   O22       1.0  0.7835688924357739  0.877152348742797  0.2861192516531048  1.0000
  O   O23       1.0  0.05291943396801455  0.37698701959632064  0.7862205565072813  1.0000
  O   O24       1.0  0.21643600258869367  0.12285680461994984  0.7138743941199907  1.0000
  O   O25       1.0  0.8542645536512906  0.7501387383390606  0.2498559492825763  1.0000
  O   O26       1.0  0.14574919619246168  0.24986230427469988  0.7501279780287576  1.0000
