data_image0
_chemical_formula_structural       Zr4Cd4H24C24O60
_chemical_formula_sum              "Zr4 Cd4 H24 C24 O60"
_cell_length_a       8.865310599
_cell_length_b       10.083426042681578
_cell_length_c       16.6297
_cell_angle_alpha    90.0
_cell_angle_beta     90.0
_cell_angle_gamma    105.61663191078169

_space_group_name_H-M_alt    "P 1"
_space_group_IT_number       1

loop_
  _space_group_symop_operation_xyz
  'x, y, z'

loop_
  _atom_site_type_symbol
  _atom_site_label
  _atom_site_symmetry_multiplicity
  _atom_site_fract_x
  _atom_site_fract_y
  _atom_site_fract_z
  _atom_site_occupancy
  Zr  Zr1       1.0  0.18973252807438706  0.885021212408013  0.4076537760753354  1.0000
  Zr  Zr2       1.0  0.8102692682695007  0.6149781239761651  0.907654377409095  1.0000
  Zr  Zr3       1.0  0.8102674419619403  0.11498177764749329  0.592345622590905  1.0000
  Zr  Zr4       1.0  0.189732193978827  0.3850186876404464  0.0923462239246646  1.0000
  Cd  Cd1       1.0  0.44608195092467884  0.5299761913455399  0.6280071197916968  1.0000
  Cd  Cd2       1.0  0.5539190327211826  0.9700241747784516  0.1280059171241845  1.0000
  Cd  Cd3       1.0  0.5539199598017531  0.47002576897014586  0.3719934815420629  1.0000
  Cd  Cd4       1.0  0.4460790455509525  0.0299726368381599  0.8719934815420629  1.0000
  H   H1        1.0  0.42952206265860576  0.5081343800982765  0.8022351575795099  1.0000
  H   H2        1.0  0.5704766650031274  0.991865986025715  0.3022345562457502  1.0000
  H   H3        1.0  0.5704772767896601  0.4918665504775959  0.1977648424204901  1.0000
  H   H4        1.0  0.4295234871431717  0.0081339148103439  0.6977648424204901  1.0000
  H   H5        1.0  0.3356983514616019  0.6153580979684391  0.7847531825589158  1.0000
  H   H6        1.0  0.6643018194862336  0.8846432978953657  0.2847531825589158  1.0000
  H   H7        1.0  0.6643024312727661  0.3846438623472466  0.2152468174410842  1.0000
  H   H8        1.0  0.33569801736603466  0.1153555732008726  0.7152468174410842  1.0000
  H   H9        1.0  0.22964134931103072  0.9892463279325979  0.2467687330499047  1.0000
  H   H10       1.0  0.7703585063427668  0.5107540381913935  0.7467687330499047  1.0000
  H   H11       1.0  0.7703562315571092  0.010752543163640398  0.7532312669500953  1.0000
  H   H12       1.0  0.2296437196776964  0.48924895186411277  0.253231868283855  1.0000
  H   H13       1.0  0.06325969454105969  0.9990401833271035  0.2792882613637033  1.0000
  H   H14       1.0  0.9367403432227094  0.5009570935774406  0.7792882613637033  1.0000
  H   H15       1.0  0.9367382016211182  0.0009597175089552999  0.720711137302537  1.0000
  H   H16       1.0  0.0632617496136874  0.4990417775187979  0.2207117386362967  1.0000
  H   H17       1.0  0.1313843589417729  0.9816283127703116  0.5685057457440621  1.0000
  H   H18       1.0  0.8686151814179865  0.5183710236138594  0.0685063470778218  1.0000
  H   H19       1.0  0.8686115965303003  0.0183726178055608  0.4314936529221782  1.0000
  H   H20       1.0  0.1313883547045052  0.4816288772221924  0.9314948555896976  1.0000
  H   H21       1.0  0.22080702487697573  0.8594157021315282  0.5762833965736007  1.0000
  H   H22       1.0  0.779195086760943  0.6405846639924633  0.0762827952398411  1.0000
  H   H23       1.0  0.7791940731514159  0.14058728792397798  0.4237154007588799  1.0000
  H   H24       1.0  0.22080587808338237  0.3594142071037751  0.9237160020926396  1.0000
  C   C1        1.0  0.391550319746564  0.6895590896640442  0.4345093417199379  1.0000
  C   C2        1.0  0.6084511613032929  0.8104392169803134  0.9345093417199379  1.0000
  C   C3        1.0  0.60845222156793  0.3104449301312755  0.5654918609475814  1.0000
  C   C4        1.0  0.3915474143728446  0.1895555351566642  0.0654912596138217  1.0000
  C   C5        1.0  0.34630138780404  0.6727763901351266  0.3447266036068015  1.0000
  C   C6        1.0  0.6537018518259501  0.8272239759888649  0.8447266036068015  1.0000
  C   C7        1.0  0.6537022815025182  0.327227629660193  0.6552745990607178  1.0000
  C   C8        1.0  0.3462981671362826  0.1727718058879262  0.1552745990607178  1.0000
  C   C9        1.0  0.6979563378875397  0.8018964954628274  0.598861675195586  1.0000
  C   C10       1.0  0.3020435177662577  0.6981038706611642  0.0988610738618263  1.0000
  C   C11       1.0  0.302043316854764  0.1981054648528584  0.4011377234706544  1.0000
  C   C12       1.0  0.6979579444820702  0.3018929409554474  0.901138324804414  1.0000
  C   C13       1.0  0.5516804681732523  0.8486827240243997  0.6231597683662358  1.0000
  C   C14       1.0  0.4483174467904476  0.6513186718394053  0.12316036969999539  1.0000
  C   C15       1.0  0.4483199992670777  0.1513182065514727  0.3768396303000046  1.0000
  C   C16       1.0  0.5516804493717231  0.3486812289966466  0.8768390289662449  1.0000
  C   C17       1.0  0.165586619511636  0.233780800794662  0.6153231868283839  1.0000
  C   C18       1.0  0.8344138291271648  0.2662186347534572  0.1153231868283839  1.0000
  C   C19       1.0  0.8344132173406322  0.7662180703015764  0.3846768131716161  1.0000
  C   C20       1.0  0.16558582561513188  0.7337833255622286  0.8846768131716161  1.0000
  C   C21       1.0  0.10473824011533849  0.3580600992451082  0.5903534038497398  1.0000
  C   C22       1.0  0.8952625238174932  0.1419403660428245  0.0903528025159801  1.0000
  C   C23       1.0  0.8952633553170557  0.6419408313307642  0.4096459948165005  1.0000
  C   C24       1.0  0.10473568763870841  0.8580605645330479  0.9096496028190515  1.0000
  O   O1        1.0  0.46346295773484053  0.6131966740936576  0.46664221242716053  1.0000
  O   O2        1.0  0.5365385233150235  0.8868016325506999  0.9666422124271605  1.0000
  O   O3        1.0  0.5365392682856225  0.3868063159618487  0.5333577875728395  1.0000
  O   O4        1.0  0.46346149564721634  0.1131941493260911  0.0333577875728395  1.0000
  O   O5        1.0  0.345595326171427  0.7851086472348284  0.4696194158643863  1.0000
  O   O6        1.0  0.6544035836002706  0.7148886296697157  0.969618213196874  1.0000
  O   O7        1.0  0.6544046438649005  0.2148943428206778  0.5303823881368857  1.0000
  O   O8        1.0  0.3455953073698979  0.2851071522070754  0.0303823881368857  1.0000
  O   O9        1.0  0.27380347309795644  0.7571409138193488  0.318141036819668  1.0000
  O   O10       1.0  0.7262015251121596  0.7428615117842767  0.818141036819668  1.0000
  O   O11       1.0  0.7262001962086017  0.24286310597597796  0.6818595645140917  1.0000
  O   O12       1.0  0.27379943973217286  0.2571373593119617  0.1818595645140917  1.0000
  O   O13       1.0  0.377075190005506  0.5779908995081726  0.3041702496136409  1.0000
  O   O14       1.0  0.6229269216324127  0.922009466615819  0.8041708509474006  1.0000
  O   O15       1.0  0.6229273513089879  0.4220131202871471  0.6958291490525994  1.0000
  O   O16       1.0  0.37707309732982003  0.0779863152609721  0.1958291490525994  1.0000
  O   O17       1.0  0.8163188886532424  0.9016185587699681  0.5779436790801995  1.0000
  O   O18       1.0  0.1836798390084908  0.5983818073540235  0.0779448817477189  1.0000
  O   O19       1.0  0.1836790075089283  0.0983813420660908  0.4220551182522811  1.0000
  O   O20       1.0  0.8163211258358416  0.401617063742215  0.9220557195860408  1.0000
  O   O21       1.0  0.6956496728046702  0.6783616988996926  0.6012724222325119  1.0000
  O   O22       1.0  0.3043490548570631  0.821638667224299  0.1012694155637206  1.0000
  O   O23       1.0  0.3043522379217549  0.3216402614160003  0.3987281791012478  1.0000
  O   O24       1.0  0.6956475801289841  0.1783571146524849  0.8987269764337285  1.0000
  O   O25       1.0  0.5750485595659639  0.9812565766965661  0.6236294100314481  1.0000
  O   O26       1.0  0.4249504833898001  0.5187448191672459  0.1236294100314481  1.0000
  O   O27       1.0  0.4249496518902447  0.0187443538793062  0.3763705899685519  1.0000
  O   O28       1.0  0.5750511120425941  0.4812561114086265  0.8763705899685519  1.0000
  O   O29       1.0  0.4262554810239719  0.7639763267211137  0.6409141475793305  1.0000
  O   O30       1.0  0.573742118645697  0.7360240394028779  0.1409141475793305  1.0000
  O   O31       1.0  0.57374354313027  0.2360235741149452  0.3590852510869098  1.0000
  O   O32       1.0  0.42625659021450707  0.2639748316933606  0.8590852510869098  1.0000
  O   O33       1.0  0.3569084511878629  0.5310811021686206  0.7629398004774615  1.0000
  O   O34       1.0  0.6430902764738704  0.968919263955371  0.2629391991437018  1.0000
  O   O35       1.0  0.6430912035544409  0.4689208581470652  0.2370601995225385  1.0000
  O   O36       1.0  0.3569092450843598  0.031078577401054  0.7370608008562982  1.0000
  O   O37       1.0  0.0643951763505228  0.11551621261224199  0.6015983451294957  1.0000
  O   O38       1.0  0.935605272288285  0.3844832229358772  0.1015989464632554  1.0000
  O   O39       1.0  0.9356035325096812  0.8844826584839964  0.3984016548705043  1.0000
  O   O40       1.0  0.06439745113618052  0.6155177076399951  0.8984010535367446  1.0000
  O   O41       1.0  0.2956797005876766  0.2508765412277896  0.6471421613137949  1.0000
  O   O42       1.0  0.7043204327570931  0.2491218645805162  0.1471421613137949  1.0000
  O   O43       1.0  0.7043217616606583  0.7491202703888149  0.3528554333511735  1.0000
  O   O44       1.0  0.2956767838911105  0.750883184954624  0.8528548320174139  1.0000
  O   O45       1.0  0.1929024267049968  0.4772380666447376  0.587677468625408  1.0000
  O   O46       1.0  0.8070994652199062  0.0227623986431951  0.0876768672916555  1.0000
  O   O47       1.0  0.8071002967194687  0.5227628639311277  0.4123243353758639  1.0000
  O   O48       1.0  0.1928995589343288  0.9772375021928639  0.9123255380433832  1.0000
  O   O49       1.0  0.9572672396605809  0.3250826816224759  0.575525114704412  1.0000
  O   O50       1.0  0.0427335242722506  0.1749177836654567  0.0755239120368998  1.0000
  O   O51       1.0  0.042735168469846485  0.674917219213576  0.4244730812943089  1.0000
  O   O52       1.0  0.9572648692939154  0.8250800576909612  0.9244790946318915  1.0000
  O   O53       1.0  0.1361695048799092  0.9420224599490226  0.2808601478078359  1.0000
  O   O54       1.0  0.8638311634719215  0.5579768764351485  0.7808595464740762  1.0000
  O   O55       1.0  0.8638283912822686  0.0579774408870293  0.7191392508584046  1.0000
  O   O56       1.0  0.1361715599525368  0.4420240541407239  0.2191404535259238  1.0000
  O   O57       1.0  0.1742804628544476  0.9128252171926761  0.5393633078167355  1.0000
  O   O58       1.0  0.8257158756390907  0.5871710299720547  0.0393627064829758  1.0000
  O   O59       1.0  0.8257137340374996  0.0871736539035695  0.4606366921832645  1.0000
  O   O60       1.0  0.1742850892052417  0.4128278411241837  0.9606372935170242  1.0000
