data_image0
_chemical_formula_structural       Cu2H32C20N4O12
_chemical_formula_sum              "Cu2 H32 C20 N4 O12"
_cell_length_a       5.415165691787165
_cell_length_b       8.574307839036848
_cell_length_c       13.271436543940103
_cell_angle_alpha    90.00028380765251
_cell_angle_beta     98.4084303170398
_cell_angle_gamma    89.99980661632299

_space_group_name_H-M_alt    "P 1"
_space_group_IT_number       1

loop_
  _space_group_symop_operation_xyz
  'x, y, z'

loop_
  _atom_site_type_symbol
  _atom_site_label
  _atom_site_symmetry_multiplicity
  _atom_site_fract_x
  _atom_site_fract_y
  _atom_site_fract_z
  _atom_site_occupancy
  Cu  Cu1       1.0  0.4999935280168159  0.46700726304769097  0.2500036033439699  1.0000
  Cu  Cu2       1.0  0.5000039776453917  0.532994656886231  0.7499989889256041  1.0000
  H   H1        1.0  0.024774767080039294  0.4034763976061838  0.3401703532356706  1.0000
  H   H2        1.0  0.975231953264199  0.4034794759605091  0.1598297936937669  1.0000
  H   H3        1.0  0.9752249219548188  0.5965208572124112  0.6598286296414173  1.0000
  H   H4        1.0  0.02477892966540199  0.5965189451254459  0.8401700109703825  1.0000
  H   H5        1.0  0.2829689760593936  0.42758564616801914  0.4087154474476548  1.0000
  H   H6        1.0  0.7170314582418554  0.42759102935990967  0.0912911031519243  1.0000
  H   H7        1.0  0.7170267275097401  0.5724104423897741  0.5912862585791245  1.0000
  H   H8        1.0  0.28297929759455087  0.5724108905565259  0.9087102000573211  1.0000
  H   H9        1.0  0.5839583783560868  0.6502680396334026  0.40399434252595506  1.0000
  H   H10       1.0  0.4160510006059823  0.6502647009443691  0.09600530789407459  1.0000
  H   H11       1.0  0.4160431127860205  0.3497292151868264  0.5960055265853299  1.0000
  H   H12       1.0  0.5839599458716335  0.34973138758888916  0.9039937474966775  1.0000
  H   H13       1.0  0.8532909530645225  0.6138798437559955  0.3609687321035011  1.0000
  H   H14       1.0  0.1467074724392603  0.6138785094680939  0.1390292399077566  1.0000
  H   H15       1.0  0.14670680677839704  0.3861174110667491  0.6390308630793271  1.0000
  H   H16       1.0  0.8532998062786703  0.38611874533967944  0.8609687922863001  1.0000
  H   H17       1.0  0.6686818781899786  0.8894951385538549  0.3263710169583618  1.0000
  H   H18       1.0  0.3313227335322678  0.8894995463623588  0.1736275667985083  1.0000
  H   H19       1.0  0.33131762021785255  0.11050211627343028  0.6736302137286215  1.0000
  H   H20       1.0  0.6686865379199459  0.11049770843836629  0.8263691038198432  1.0000
  H   H21       1.0  0.7671777586836155  0.7836038956890476  0.22437623157626518  1.0000
  H   H22       1.0  0.23282717721830434  0.7836022654141883  0.2756242875697339  1.0000
  H   H23       1.0  0.23282913877741862  0.21639452541100468  0.7756262962393023  1.0000
  H   H24       1.0  0.7671727659802625  0.21639732194260827  0.7243716982309323  1.0000
  H   H25       1.0  0.3619244321466581  0.08426299750762914  0.9191213896602476  1.0000
  H   H26       1.0  0.6380827587948161  0.0842614544801208  0.5808878649169458  1.0000
  H   H27       1.0  0.6380657379848457  0.9157459200749186  0.08087915622282081  1.0000
  H   H28       1.0  0.3619057363282963  0.9157416317204933  0.4191102961834047  1.0000
  H   H29       1.0  0.9065654032693615  0.1348829195682342  0.15616195390035162  1.0000
  H   H30       1.0  0.09340164212429868  0.13487507326999545  0.343833638096406  1.0000
  H   H31       1.0  0.09342644187903913  0.8651283305715366  0.8438409767602761  1.0000
  H   H32       1.0  0.9065905207584918  0.8651268466561105  0.6561655462006398  1.0000
  C   C1        1.0  0.6323329368146132  0.7846993616689986  0.2786863920768639  1.0000
  C   C2        1.0  0.3676775907035861  0.7847005625135495  0.2213145411979482  1.0000
  C   C3        1.0  0.3676704199742602  0.21529905942487199  0.7213136140003655  1.0000
  C   C4        1.0  0.6323278223647504  0.21529669229548176  0.7786833540318837  1.0000
  C   C5        1.0  0.31965881365225357  0.25460016028261384  0.0849511410368038  1.0000
  C   C6        1.0  0.6803306958615137  0.25459756797191346  0.41506082083477475  1.0000
  C   C7        1.0  0.6803443524954174  0.7454040921944339  0.9150511128589186  1.0000
  C   C8        1.0  0.3196537502676974  0.7453985205963105  0.5849408126766278  1.0000
  C   C9        1.0  0.1510445283578719  0.1245220168406291  0.041194314558239895  1.0000
  C   C10       1.0  0.8489577605684673  0.12451826869780547  0.458806846276822  1.0000
  C   C11       1.0  0.8489645524502974  0.8754822356181717  0.9588046038803313  1.0000
  C   C12       1.0  0.1510325366675644  0.8754824849546522  0.5411922010542796  1.0000
  C   C13       1.0  0.20113365892650137  0.04730402853765978  0.9533583773112538  1.0000
  C   C14       1.0  0.7988736481421269  0.04730541924444509  0.5466515174998676  1.0000
  C   C15       1.0  0.7988621081622894  0.9527013902164185  0.04664257945933061  1.0000
  C   C16       1.0  0.20111845119549088  0.9526976669594519  0.45334841606886295  1.0000
  C   C17       1.0  0.9476501428819684  0.07588077478410327  0.08784223174311727  1.0000
  C   C18       1.0  0.05232806551616419  0.07588168780891638  0.4121577543271897  1.0000
  C   C19       1.0  0.052358937920537585  0.9241258102244886  0.9121566866988928  1.0000
  C   C20       1.0  0.9476586910420436  0.9241213983871644  0.5878387712690056  1.0000
  N   N1        1.0  0.6673727593907514  0.6401432828049778  0.3392467002972452  1.0000
  N   N2        1.0  0.332631135393477  0.6401370941704484  0.16075176008477854  1.0000
  N   N3        1.0  0.3326249369069955  0.35985513829555765  0.6607536441572676  1.0000
  N   N4        1.0  0.6673779454317027  0.3598601606389664  0.8392471583434684  1.0000
  O   O1        1.0  0.28744286427284743  0.3011337332862709  0.17482477673499366  1.0000
  O   O2        1.0  0.7125504680072153  0.3011397294585265  0.3251838500162805  1.0000
  O   O3        1.0  0.7125619769002183  0.6988693529233245  0.8251798619331295  1.0000
  O   O4        1.0  0.2874415677852226  0.6988645230231685  0.6748168328241348  1.0000
  O   O5        1.0  0.4798343094684938  0.3087954454468189  0.0345709953300997  1.0000
  O   O6        1.0  0.5201591127047819  0.3087783776786281  0.46543615545163414  1.0000
  O   O7        1.0  0.5201686660464802  0.6912111395887165  0.9654335063789574  1.0000
  O   O8        1.0  0.4798165135293786  0.691211879498212  0.5345587990703251  1.0000
  O   O9        1.0  0.15032026615811836  0.48383387007125134  0.3626625293864194  1.0000
  O   O10       1.0  0.8496861270662777  0.4838381832572764  0.1373371053542272  1.0000
  O   O11       1.0  0.8496757551227244  0.5161622184720611  0.6373354302905341  1.0000
  O   O12       1.0  0.15033221846169914  0.5161602378236549  0.8626632471668216  1.0000
