data_image0
_chemical_formula_structural       Zn2H72C62N2O8F6
_chemical_formula_sum              "Zn2 H72 C62 N2 O8 F6"
_cell_length_a       8.783035570704834
_cell_length_b       16.90022301567204
_cell_length_c       17.622146786234
_cell_angle_alpha    94.50581592590903
_cell_angle_beta     98.43769025568531
_cell_angle_gamma    98.34733174650943

_space_group_name_H-M_alt    "P 1"
_space_group_IT_number       1

loop_
  _space_group_symop_operation_xyz
  'x, y, z'

loop_
  _atom_site_type_symbol
  _atom_site_label
  _atom_site_symmetry_multiplicity
  _atom_site_fract_x
  _atom_site_fract_y
  _atom_site_fract_z
  _atom_site_occupancy
  Zn  Zn1       1.0  0.4840337639662238  0.4087785018674238  0.4973930006544335  1.0000
  Zn  Zn2       1.0  0.4862035077331868  0.5899791089533083  0.4881429656241209  1.0000
  H   H1        1.0  0.0023386579218182798  0.5882994720076908  0.4864106310123474  1.0000
  H   H2        1.0  0.5866247148959758  0.8388723850672192  0.778993646603787  1.0000
  H   H3        1.0  0.5445204479856541  0.8082646688064513  0.6784020299600184  1.0000
  H   H4        1.0  0.40166927392562  0.8459563679905742  0.7259332371405093  1.0000
  H   H5        1.0  0.34396486071891985  0.6945695294293869  0.699067842386867  1.0000
  H   H6        1.0  0.371707489681576  0.7263980967621463  0.7986457858436322  1.0000
  H   H7        1.0  0.6447293813593831  0.6962993506060259  0.8126574715738781  1.0000
  H   H8        1.0  0.6172796508638996  0.6656363518560227  0.7118221459461436  1.0000
  H   H9        1.0  0.7360215197447033  0.752448172675173  0.05701782338455528  1.0000
  H   H10       1.0  0.5716755114415975  0.7882541901205896  0.08628726965341829  1.0000
  H   H11       1.0  0.7606047081112165  0.8240501327153139  0.13913867047451586  1.0000
  H   H12       1.0  0.9661637866517693  0.4045776363530891  0.49031967401501925  1.0000
  H   H13       1.0  0.6156844163881914  0.7225806794286311  0.20992773464732284  1.0000
  H   H14       1.0  0.7789660792853823  0.6864808557302595  0.18135326885784758  1.0000
  H   H15       1.0  0.6052100410225594  0.6136870414737532  0.06076495546070499  1.0000
  H   H16       1.0  0.44440217838570106  0.6458535242347238  0.09284604795062984  1.0000
  H   H17       1.0  0.13671416545925297  0.23654821802166023  0.9094338276111384  1.0000
  H   H18       1.0  0.010961501863171472  0.22365815137708003  0.8193413246327024  1.0000
  H   H19       1.0  0.16654933919137696  0.16725855317062607  0.8339590050226631  1.0000
  H   H20       1.0  0.2430800965127843  0.28003149525634535  0.7563192271120511  1.0000
  H   H21       1.0  0.3605248982854619  0.29638506806912795  0.848144181369477  1.0000
  H   H22       1.0  0.17373957098052983  0.38524406329568006  0.8930712805488807  1.0000
  H   H23       1.0  0.5365313034170499  0.19630222937644956  0.3256327819722172  1.0000
  H   H24       1.0  0.07133253958060946  0.37329375027317707  0.7976172033250462  1.0000
  H   H25       1.0  0.052002876269945375  0.14546840477162695  0.6894006834108024  1.0000
  H   H26       1.0  0.9704759228155383  0.049937216123303985  0.6389544278225754  1.0000
  H   H27       1.0  0.119849729162091  0.1127069525947135  0.6040294515580982  1.0000
  H   H28       1.0  0.8592545075848647  0.1168278831023457  0.5257261383140984  1.0000
  H   H29       1.0  0.9406955031369364  0.2123197662811975  0.5736541987762322  1.0000
  H   H30       1.0  0.7723471651776421  0.19190596936224577  0.674721864490813  1.0000
  H   H31       1.0  0.7014531144604489  0.09224082710338169  0.6337708256979865  1.0000
  H   H32       1.0  0.06507376977092605  0.9829819081096718  0.38708594773193267  1.0000
  H   H33       1.0  0.9612675655158397  0.8861050502760508  0.35007935918644506  1.0000
  H   H34       1.0  0.4606502972936255  0.15348613489368998  0.22976835148939753  1.0000
  H   H35       1.0  0.9285260809732349  0.9323165837842567  0.4390441279486125  1.0000
  H   H36       1.0  0.09782906512597106  0.8272594530257107  0.464255067512674  1.0000
  H   H37       1.0  0.20143569569892614  0.923334340336254  0.49999922687373294  1.0000
  H   H38       1.0  0.32772943112549763  0.9287438976329128  0.38149012902157853  1.0000
  H   H39       1.0  0.223253777133955  0.8327761689937103  0.3449278233205603  1.0000
  H   H40       1.0  0.8050660384749265  0.3703997996852663  0.7868132816423806  1.0000
  H   H41       1.0  0.6946978971983099  0.44271184755685766  0.7491034825760605  1.0000
  H   H42       1.0  0.6252517496514399  0.3815811647661532  0.818033340602092  1.0000
  H   H43       1.0  0.47991188483987907  0.33166137923985417  0.6859215662670619  1.0000
  H   H44       1.0  0.589680516580735  0.25899942071438187  0.7219772109947369  1.0000
  H   H45       1.0  0.6644956484046672  0.16770165932701525  0.263285983297571  1.0000
  H   H46       1.0  0.8003552219246187  0.31059776173090364  0.6451201037613286  1.0000
  H   H47       1.0  0.6884853662978186  0.3825269114321372  0.6120830857890524  1.0000
  H   H48       1.0  0.17703552082736704  0.5688892847304671  0.26860215137783416  1.0000
  H   H49       1.0  0.06990986387926765  0.6480747121005236  0.24655844202435864  1.0000
  H   H50       1.0  0.21213201460967201  0.6245577513305064  0.18983909006421126  1.0000
  H   H51       1.0  0.32378341791316967  0.7475595839924409  0.2812466847466411  1.0000
  H   H52       1.0  0.4236262019600119  0.6670283346604859  0.3045214073668773  1.0000
  H   H53       1.0  0.2578892683017955  0.6345907835227179  0.4052575758450771  1.0000
  H   H54       1.0  0.1619730144904067  0.7166311683024842  0.3859037489756999  1.0000
  H   H55       1.0  0.990783905796839  0.3200233314015363  0.3677058851066305  1.0000
  H   H56       1.0  0.609526246328272  0.2760858595515713  0.18078328470885904  1.0000
  H   H57       1.0  0.949044729766875  0.2182552283250345  0.3267596375055958  1.0000
  H   H58       1.0  0.8589910457942549  0.24943873175012496  0.40545610039477237  1.0000
  H   H59       1.0  0.0791721187141405  0.17529235733294973  0.45091671329130617  1.0000
  H   H60       1.0  0.1187552722630301  0.27671830437279965  0.49207396631939543  1.0000
  H   H61       1.0  0.2833197166904995  0.31392353007756674  0.39338363483682304  1.0000
  H   H62       1.0  0.244695742887437  0.2133339674529751  0.3500059052301196  1.0000
  H   H63       1.0  0.05460847234774487  0.7480554703404891  0.6693545152285905  1.0000
  H   H64       1.0  0.00011531548955184828  0.6497229961896236  0.6207143629401128  1.0000
  H   H65       1.0  0.14564708006564325  0.718466087352425  0.5903615093687831  1.0000
  H   H66       1.0  0.8946183643221913  0.710006602534932  0.4994516190244551  1.0000
  H   H67       1.0  0.6691914578215616  0.3186395490262298  0.2773698658597964  1.0000
  H   H68       1.0  0.9457720683438922  0.8069963072916548  0.5508051151933983  1.0000
  H   H69       1.0  0.7653879452006364  0.7650462594690522  0.6431416805753825  1.0000
  H   H70       1.0  0.7125138043939643  0.6689245159765914  0.5911025231045952  1.0000
  H   H71       1.0  0.3909939345236636  0.31774472621467703  0.293092649225052  1.0000
  H   H72       1.0  0.3304014785301845  0.2768822669632271  0.19530395114944804  1.0000
  C   C1        1.0  0.45463204285704956  0.5231346008651767  0.637831531688313  1.0000
  C   C2        1.0  0.6268697766799677  0.7645961406272547  0.5342298408661461  1.0000
  C   C3        1.0  0.4080673822593183  0.14938441179043588  0.45872101076083266  1.0000
  C   C4        1.0  0.6340962399732104  0.847555293273572  0.5369977366682617  1.0000
  C   C5        1.0  0.5223317630897171  0.12291746172436291  0.5098944560862932  1.0000
  C   C6        1.0  0.5235368244827187  0.8839737732962475  0.493185921099922  1.0000
  C   C7        1.0  0.5338568221459213  0.04051314017903711  0.5055857106802006  1.0000
  C   C8        1.0  0.5326643377756284  0.9681480618193844  0.5002443786007473  1.0000
  C   C9        1.0  0.7781344070615503  0.5178997072159318  0.500065104400143  1.0000
  C   C10       1.0  0.19017437899103123  0.4792924750394504  0.4803282404443862  1.0000
  C   C11       1.0  0.9441890018152533  0.527829568376134  0.4911757628142367  1.0000
  C   C12       1.0  0.49270433441407846  0.4733605054011604  0.3457693764186373  1.0000
  C   C13       1.0  0.022540569939984264  0.46581537060587397  0.4871642394320046  1.0000
  C   C14       1.0  0.42537911861531097  0.4074159193474002  0.13183018003051214  1.0000
  C   C15       1.0  0.4661811771888083  0.5736537508521381  0.8518949339873243  1.0000
  C   C16       1.0  0.44854991669982525  0.39857250866196386  0.21035790516595645  1.0000
  C   C17       1.0  0.4819745303628907  0.5878422485254547  0.7765731906471058  1.0000
  C   C18       1.0  0.5028195198327978  0.4697136698523821  0.26068164029431523  1.0000
  C   C19       1.0  0.4122076533546348  0.5254071102134715  0.71787630649046  1.0000
  C   C20       1.0  0.549186114095221  0.5415474091315033  0.22877328757602555  1.0000
  C   C21       1.0  0.3139203087393483  0.4598176035605447  0.7385218544885672  1.0000
  C   C22       1.0  0.5253930205248736  0.5511333500217289  0.15052778873276645  1.0000
  C   C23       1.0  0.41903673319630735  0.4847422382106144  0.020593242378481588  1.0000
  C   C24       1.0  0.29508830977245276  0.4464123478470085  0.8137136877245934  1.0000
  C   C25       1.0  0.4548618959214537  0.4807760788038208  0.10061695509390486  1.0000
  C   C26       1.0  0.3828024883965853  0.5035627966641414  0.8730033703765157  1.0000
  C   C27       1.0  0.42427954807846646  0.3153161931828733  0.23574239819069476  1.0000
  C   C28       1.0  0.5752882512981258  0.2783135062999377  0.23850062928971733  1.0000
  C   C29       1.0  0.5581524503350508  0.19435705649896556  0.26565881636729927  1.0000
  C   C30       1.0  0.5583942770449893  0.6698224160200182  0.7621849990535664  1.0000
  C   C31       1.0  0.4317027315978237  0.7238280939531235  0.7480192929891414  1.0000
  C   C32       1.0  0.4948584677970019  0.8088252595217399  0.7320930277955211  1.0000
  C   C33       1.0  0.5586321595101537  0.6285173536797969  0.11396246382828677  1.0000
  C   C34       1.0  0.39237175158294946  0.49209615169843346  0.9517852729785401  1.0000
  C   C35       1.0  0.6644888033874069  0.7022087203759637  0.15926016779310703  1.0000
  C   C36       1.0  0.6846641281260446  0.7705093024212742  0.10773253996849518  1.0000
  C   C37       1.0  0.18740461701732164  0.37528901827839434  0.8321448943360821  1.0000
  C   C38       1.0  0.24032500902671217  0.2933227933861531  0.8181977729598413  1.0000
  C   C39       1.0  0.1329871050503186  0.22647099857165637  0.8466949355579982  1.0000
  C   C40       1.0  0.7441026772744194  0.15313618072006108  0.6199972165974754  1.0000
  C   C41       1.0  0.8922227688376694  0.1507632096493765  0.5832128030178934  1.0000
  C   C42       1.0  0.015372641009527382  0.11268588042762669  0.6316595502166036  1.0000
  C   C43       1.0  0.27573887636251726  0.8708281400072548  0.3983339642081701  1.0000
  C   C44       1.0  0.1476219366063418  0.8851480931307306  0.4465149145001987  1.0000
  C   C45       1.0  0.6175239230266313  0.18063091249341306  0.565929339767919  1.0000
  C   C46       1.0  0.01857522451977184  0.9237816190278989  0.4032369782966113  1.0000
  C   C47       1.0  0.6799350776447426  0.3220038634839  0.6304292628042274  1.0000
  C   C48       1.0  0.5993643919425439  0.31970254960507544  0.7024591000880702  1.0000
  C   C49       1.0  0.6859713593185929  0.38191278718289806  0.7677779476815018  1.0000
  C   C50       1.0  0.27398538113183685  0.6947001984863731  0.385673020739972  1.0000
  C   C51       1.0  0.3107962124900325  0.6878682532477781  0.30286696717130457  1.0000
  C   C52       1.0  0.18524339359267822  0.6292386085783546  0.24885807838181503  1.0000
  C   C53       1.0  0.2577828871831471  0.2511582168841501  0.40496144536259476  1.0000
  C   C54       1.0  0.1036735223233762  0.23799399390367168  0.4374960536063596  1.0000
  C   C55       1.0  0.9680522297602749  0.2574506510498153  0.38127064966989366  1.0000
  C   C56       1.0  0.4015591658204371  0.833386160582826  0.4430437723673321  1.0000
  C   C57       1.0  0.7507352572966468  0.7323144133811965  0.5853011701432462  1.0000
  C   C58       1.0  0.9092665974139892  0.7431100633048117  0.5569746640341506  1.0000
  C   C59       1.0  0.03409607246997837  0.713278951054903  0.6123211588668197  1.0000
  C   C60       1.0  0.5930210786978732  0.26118611296604394  0.5661853373278162  1.0000
  C   C61       1.0  0.3986503757196758  0.7497262613537217  0.44078761231912  1.0000
  C   C62       1.0  0.38917173545969763  0.22958926549099348  0.4594844676163915  1.0000
  N   N1        1.0  0.4843686847778486  0.2846889470239518  0.5125344560176613  1.0000
  N   N2        1.0  0.5081748875555546  0.7168438815230259  0.4857806991571038  1.0000
  O   O1        1.0  0.4562430379803287  0.4529761351163443  0.6065222190203838  1.0000
  O   O2        1.0  0.44754005077160747  0.5360331881756437  0.3732661727931656  1.0000
  O   O3        1.0  0.49124895341169855  0.588657265251662  0.6091216092442835  1.0000
  O   O4        1.0  0.5218481273534225  0.41362147717416053  0.38221759066848887  1.0000
  O   O5        1.0  0.7170126724880461  0.45171275789152077  0.5203941846007963  1.0000
  O   O6        1.0  0.2577778093827234  0.5520372423207361  0.48871826362746856  1.0000
  O   O7        1.0  0.7104148541717875  0.5783164412618973  0.486100257282139  1.0000
  O   O8        1.0  0.2528556944624114  0.41702992803548267  0.4684775731511194  1.0000
  F   F1        1.0  0.36893256579338635  0.34050468082762825  0.08107229072810179  1.0000
  F   F2        1.0  0.5373583308195649  0.6312067500668801  0.9102837453548884  1.0000
  F   F3        1.0  0.6244948098021156  0.6059592001351958  0.2787889344944289  1.0000
  F   F4        1.0  0.22649737133809106  0.40500040080629424  0.681731039140544  1.0000
  F   F5        1.0  0.31155773389776437  0.0941876989161443  0.40610541392705085  1.0000
  F   F6        1.0  0.7517033657942703  0.8956250780697131  0.5858525370256087  1.0000
