data_image0
_chemical_formula_structural       Cd3H22C24N4O18
_chemical_formula_sum              "Cd3 H22 C24 N4 O18"
_cell_length_a       6.329134536214308
_cell_length_b       9.671734707864243
_cell_length_c       12.567592503141707
_cell_angle_alpha    104.10887503599778
_cell_angle_beta     98.11314431282825
_cell_angle_gamma    97.76179842082676

_space_group_name_H-M_alt    "P 1"
_space_group_IT_number       1

loop_
  _space_group_symop_operation_xyz
  'x, y, z'

loop_
  _atom_site_type_symbol
  _atom_site_label
  _atom_site_symmetry_multiplicity
  _atom_site_fract_x
  _atom_site_fract_y
  _atom_site_fract_z
  _atom_site_occupancy
  Cd  Cd1       1.0  0.49171040729082444  0.9475999254505677  0.17276660097788718  1.0000
  Cd  Cd2       1.0  0.5082898688861235  0.05239952209139888  0.8272329597094197  1.0000
  Cd  Cd3       1.0  0.5000025235122366  0.4999997161796087  0.49999954102213445  1.0000
  H   H1        1.0  0.051944227068098356  0.6038314214508347  0.33327106172362153  1.0000
  H   H2        1.0  0.9480588289087282  0.39617237752632667  0.6667279584882307  1.0000
  H   H3        1.0  0.2212430712041353  0.3411358725378904  0.9730130953985706  1.0000
  H   H4        1.0  0.7787527263858962  0.6588646879460287  0.02698638585719246  1.0000
  H   H5        1.0  0.5003195612541022  0.536072323217695  0.10554926182061308  1.0000
  H   H6        1.0  0.4996835915272939  0.4639260361807869  0.8944494799198779  1.0000
  H   H7        1.0  0.777589663689959  0.40534088009142977  0.20276518506720004  1.0000
  H   H8        1.0  0.22241082549299312  0.5946650751820712  0.7972356829059422  1.0000
  H   H9        1.0  0.35098085432939297  0.21665509686722115  0.22105425211346838  1.0000
  H   H10       1.0  0.64901625298252  0.7833443410590134  0.7789466855952368  1.0000
  H   H11       1.0  0.47607514834884074  0.20654118848820957  0.11413983227529909  1.0000
  H   H12       1.0  0.5239216579274883  0.7934571664819857  0.8858608700634606  1.0000
  H   H13       1.0  0.9197688463780338  0.9230978223786223  0.10971711014762062  1.0000
  H   H14       1.0  0.08023073092319072  0.07690489882993749  0.8902822582711565  1.0000
  H   H15       1.0  0.9420720085799772  0.03492990442912711  0.22328949913760704  1.0000
  H   H16       1.0  0.057928887218103985  0.9650716794185784  0.7767121191786542  1.0000
  H   H17       1.0  0.774078298779706  0.3024398496196028  0.40578786953332  1.0000
  H   H18       1.0  0.22592137532608098  0.6975574320102853  0.5942112204140955  1.0000
  H   H19       1.0  0.9106125778777426  0.4199588179796762  0.5100370546788398  1.0000
  H   H20       1.0  0.08939055735368835  0.5800395710251534  0.48996010017258834  1.0000
  H   H21       1.0  0.8477314496726935  0.050732388986780605  0.5893509581227007  1.0000
  H   H22       1.0  0.15226945490037028  0.9492691800577547  0.4106514536380956  1.0000
  C   C1        1.0  0.8151809238241585  0.24737601646578614  0.996422294185237  1.0000
  C   C2        1.0  0.1848167680089574  0.7526256169788751  0.0035775273742970977  1.0000
  C   C3        1.0  0.45527471498288463  0.6939936621069122  0.31320475075461457  1.0000
  C   C4        1.0  0.5447277564727386  0.30600794135182946  0.686795385606409  1.0000
  C   C5        1.0  0.7357808863125967  0.056229390664448396  0.4353766948646082  1.0000
  C   C6        1.0  0.264216805520519  0.9437722427802058  0.5646231266949258  1.0000
  C   C7        1.0  0.29522110863199913  0.5813215207443606  0.22896007452762748  1.0000
  C   C8        1.0  0.7047807519774807  0.4186779316054725  0.7710387976489769  1.0000
  C   C9        1.0  0.09056369684001453  0.5435532623060553  0.2553699015253201  1.0000
  C   C10       1.0  0.9094317909394505  0.45644623002500145  0.7446285509159621  1.0000
  C   C11       1.0  0.9823418549786282  0.36033913303147364  0.07937472905999242  1.0000
  C   C12       1.0  0.01765902326948788  0.6396624804225725  0.9206253023671991  1.0000
  C   C13       1.0  0.18620792164705344  0.3983987166378569  0.0527140252637395  1.0000
  C   C14       1.0  0.8137907788723665  0.6016007112930738  0.9472870173787981  1.0000
  C   C15       1.0  0.34178391256791935  0.5081440851163989  0.1266385526129667  1.0000
  C   C16       1.0  0.6582176557809518  0.49185426947422417  0.8733608776382268  1.0000
  C   C17       1.0  0.6499861475899992  0.9013877640333091  0.40979843484163325  1.0000
  C   C18       1.0  0.35001443839751545  0.09861275166152685  0.5902021546601475  1.0000
  C   C19       1.0  0.6508549503841721  0.8050503926283454  0.4769938173111824  1.0000
  C   C20       1.0  0.3491405637202334  0.19494905529319342  0.5230070154636904  1.0000
  C   C21       1.0  0.7409008388319335  0.8244266627796718  0.5959059450422188  1.0000
  C   C22       1.0  0.2590975518769127  0.1755716969983894  0.4040940687858452  1.0000
  C   C23       1.0  0.9355777879237055  0.4339948923550736  0.18144115812430778  1.0000
  C   C24       1.0  0.06442210796306118  0.5660088822031855  0.8185600325534849  1.0000
  N   N1        1.0  0.5284676653046817  0.8288531676818638  0.3067711679624736  1.0000
  N   N2        1.0  0.471533505204043  0.1711495435313921  0.6932283053901358  1.0000
  N   N3        1.0  0.5286349634762928  0.6760183069956652  0.41449584614536394  1.0000
  N   N4        1.0  0.47136404685368655  0.3239821890881275  0.5855062253116543  1.0000
  O   O1        1.0  0.3812450629413462  0.1525724635554724  0.15262191338537429  1.0000
  O   O2        1.0  0.61875173456  0.847425906217893  0.8473779955088573  1.0000
  O   O3        1.0  0.8130785321228587  0.41016456848089416  0.4400400508553161  1.0000
  O   O4        1.0  0.1869243196229533  0.5898327079615555  0.559958455515229  1.0000
  O   O5        1.0  0.8440310476436466  0.9975266239937712  0.15010740933667685  1.0000
  O   O6        1.0  0.15597014041503604  0.0024760576131442015  0.8498936509049955  1.0000
  O   O7        1.0  0.87065288905238  0.17369604089790866  0.909157919310253  1.0000
  O   O8        1.0  0.12934638721326053  0.8263055973546187  0.0908412137385781  1.0000
  O   O9        1.0  0.617081507270413  0.2301812226132327  0.009784029346995697  1.0000
  O   O10       1.0  0.38291588352711875  0.7698193278753821  0.9902155568425924  1.0000
  O   O11       1.0  0.8434366051286518  0.12355623720675615  0.5359487206478804  1.0000
  O   O12       1.0  0.15656529935572644  0.876443141127211  0.4640541187513917  1.0000
  O   O13       1.0  0.7026305041596076  0.12341712047608405  0.3624220830084752  1.0000
  O   O14       1.0  0.2973681963598054  0.8765823074548463  0.6375789596340623  1.0000
  O   O15       1.0  0.8435973099333511  0.950787839399496  0.6530464013074138  1.0000
  O   O16       1.0  0.1564007972898764  0.0492094078161784  0.3469549640397744  1.0000
  O   O17       1.0  0.7087871734613104  0.7178879459557237  0.6375678888105226  1.0000
  O   O18       1.0  0.2912125006444839  0.2821093356741642  0.3624312011369001  1.0000
