data_image0
_chemical_formula_structural       Zn2H48C68N2O8
_chemical_formula_sum              "Zn2 H48 C68 N2 O8"
_cell_length_a       10.826201695420437
_cell_length_b       14.586079994305226
_cell_length_c       16.023764198356204
_cell_angle_alpha    86.17656342914067
_cell_angle_beta     90.66668843088527
_cell_angle_gamma    85.99124154917291

_space_group_name_H-M_alt    "P 1"
_space_group_IT_number       1

loop_
  _space_group_symop_operation_xyz
  'x, y, z'

loop_
  _atom_site_type_symbol
  _atom_site_label
  _atom_site_symmetry_multiplicity
  _atom_site_fract_x
  _atom_site_fract_y
  _atom_site_fract_z
  _atom_site_occupancy
  Zn  Zn1       1.0  0.4933836380542118  0.5964172105466331  0.4856796218855095  1.0000
  Zn  Zn2       1.0  0.5065223063542419  0.40355543531677546  0.5143519825743182  1.0000
  H   H1        1.0  0.20341100229052958  0.6724746273085102  0.4498137312278345  1.0000
  H   H2        1.0  0.7965531117458157  0.32758033604508086  0.5502292472308739  1.0000
  H   H3        1.0  0.7968288354120715  0.6658442086902454  0.5853430085906551  1.0000
  H   H4        1.0  0.20312903500224172  0.3342985306760937  0.4146847518278918  1.0000
  H   H5        1.0  0.6297654407002325  0.62346586157863  0.8345648994283436  1.0000
  H   H6        1.0  0.5927194276193646  0.7069331641632812  0.9080244622739002  1.0000
  H   H7        1.0  0.7300988064066445  0.6343803818623428  0.9213829462525354  1.0000
  H   H8        1.0  0.37007582448809007  0.37653647784354394  0.16545791887490682  1.0000
  H   H9        1.0  0.26977476784136206  0.36562023180675846  0.0786294068884885  1.0000
  H   H10       1.0  0.4071346616896462  0.2930454802310507  0.0920261351576954  1.0000
  H   H11       1.0  0.6417967072744587  0.6199610108332934  0.1502013409247951  1.0000
  H   H12       1.0  0.7540307180765068  0.6083321906189381  0.0709208867795326  1.0000
  H   H13       1.0  0.6334037676827436  0.696441018976813  0.058524418062333404  1.0000
  H   H14       1.0  0.358130488515414  0.3799529321488109  0.8498512805624684  1.0000
  H   H15       1.0  0.36647473980035966  0.3035218445572951  0.941557432576147  1.0000
  H   H16       1.0  0.24586440170132565  0.3916504544885698  0.9291046909321778  1.0000
  H   H17       1.0  0.2005221451560502  0.18024427681687877  0.3835246433477977  1.0000
  H   H18       1.0  0.1320383693821938  0.1083219520495291  0.4617991103056838  1.0000
  H   H19       1.0  0.04967720172897569  0.1426215236740092  0.3681206481933472  1.0000
  H   H20       1.0  0.7995046455299359  0.8198888845784466  0.6165017840272426  1.0000
  H   H21       1.0  0.9503917154148736  0.8574648415297829  0.6318789496738901  1.0000
  H   H22       1.0  0.8680005871728511  0.8917906350874033  0.5382175179892598  1.0000
  H   H23       1.0  0.8030214514151127  0.16895129548295526  0.5541045495850908  1.0000
  H   H24       1.0  0.8669838869975592  0.1223926766408781  0.4630359094390926  1.0000
  H   H25       1.0  0.9532521759263374  0.11083396898148123  0.55801641927021  1.0000
  H   H26       1.0  0.19703685633346169  0.8310942277130025  0.4459633753161043  1.0000
  H   H27       1.0  0.0468326290639283  0.8892529831240735  0.4420000526737766  1.0000
  H   H28       1.0  0.1330326573891938  0.877668521797176  0.5370169538473134  1.0000
  H   H29       1.0  0.5081135937058506  0.025865798030480395  0.7350360678182639  1.0000
  H   H30       1.0  0.4133809432421529  0.11317796424278727  0.8487056331107111  1.0000
  H   H31       1.0  0.24023708069497465  0.2322425783975177  0.8165164272677856  1.0000
  H   H32       1.0  0.1665110781438273  0.2671936609001051  0.6686612205597413  1.0000
  H   H33       1.0  0.2627283089702601  0.1824266742042084  0.5556140122938088  1.0000
  H   H34       1.0  0.4918979275800339  0.9741464410395576  0.2649780667121746  1.0000
  H   H35       1.0  0.5865986208877416  0.8868681005680299  0.1512759179956902  1.0000
  H   H36       1.0  0.7597289866801019  0.767773826432787  0.1834300091130956  1.0000
  H   H37       1.0  0.8334857625357373  0.7327687769217873  0.3312773592168128  1.0000
  H   H38       1.0  0.7372940425346927  0.8175153743632675  0.4443478830038785  1.0000
  H   H39       1.0  0.7837214384824378  0.026671858513253714  0.36183745410295387  1.0000
  H   H40       1.0  0.8722314982353582  0.12720458789918612  0.250545527486608  1.0000
  H   H41       1.0  0.7471788681373539  0.2653057557272476  0.1873366037213486  1.0000
  H   H42       1.0  0.5344351754020735  0.30220101737970134  0.237227801918138  1.0000
  H   H43       1.0  0.4449623546272434  0.20168599699935896  0.3475127372209741  1.0000
  H   H44       1.0  0.5550709032599671  0.7982525863524756  0.6524917698336169  1.0000
  H   H45       1.0  0.4655640560395966  0.6977323724699572  0.7627655788957455  1.0000
  H   H46       1.0  0.2528369602248191  0.7346608356375198  0.8126611744146857  1.0000
  H   H47       1.0  0.12781247295377088  0.8727910658680075  0.7494736908625581  1.0000
  H   H48       1.0  0.2163510799214805  0.973309507484238  0.6381811320335373  1.0000
  C   C1        1.0  0.4613287287187546  0.5142296799173066  0.7489831002948648  1.0000
  C   C2        1.0  0.5384798636317072  0.48571981405069653  0.2510616235272636  1.0000
  C   C3        1.0  0.8731799055854451  0.5019247399261317  0.5248267120104089  1.0000
  C   C4        1.0  0.1267336451961327  0.49818468267201876  0.4751959606501686  1.0000
  C   C5        1.0  0.4975229978673354  0.9066503673455628  0.49872358789787086  1.0000
  C   C6        1.0  0.5025135241059003  0.0933139296583292  0.5012924347863502  1.0000
  C   C7        1.0  0.4450726706290311  0.9492227527372988  0.568468717372113  1.0000
  C   C8        1.0  0.5549553092296405  0.05074456997610349  0.4315434226538386  1.0000
  C   C9        1.0  0.55389996016563  0.9543704127582371  0.43101786067487774  1.0000
  C   C10       1.0  0.4461431600165753  0.0455904711130088  0.5689926900253467  1.0000
  C   C11       1.0  0.5758928281262001  0.5604998551670236  0.039581836621302095  1.0000
  C   C12       1.0  0.42401440937374696  0.43945016240179763  0.9604475108227675  1.0000
  C   C13       1.0  0.5638965709255003  0.5667472490786877  0.9523028880913884  1.0000
  C   C14       1.0  0.4359728206984457  0.43323252544249874  0.047720860527391606  1.0000
  C   C15       1.0  0.4578638145739475  0.5062755061168785  0.6595001020785958  1.0000
  C   C16       1.0  0.5420026513947748  0.4935545342705083  0.3405505636630721  1.0000
  C   C17       1.0  0.2657340180553546  0.4909641886553686  0.4691481457102711  1.0000
  C   C18       1.0  0.7341857043923383  0.5091754766031968  0.5308446740723909  1.0000
  C   C19       1.0  0.5124237881580453  0.4933243245588557  0.0869330875634731  1.0000
  C   C20       1.0  0.48743336855164177  0.5066609689379646  0.9130985357409928  1.0000
  C   C21       1.0  0.4825758913486737  0.8116182202753989  0.49090509416279815  1.0000
  C   C22       1.0  0.5174202896682372  0.18835892937997298  0.5091221983815258  1.0000
  C   C23       1.0  0.5258522464834883  0.4873345736257093  0.1752034721539104  1.0000
  C   C24       1.0  0.4739883004394941  0.5126649428559844  0.8248225732364388  1.0000
  C   C25       1.0  0.1147055530828851  0.6707496659348564  0.4802941662000748  1.0000
  C   C26       1.0  0.8852487828382393  0.32934298710889465  0.5197342427921186  1.0000
  C   C27       1.0  0.8853377303911287  0.6673057225202896  0.5541791310705122  1.0000
  C   C28       1.0  0.11461720802966367  0.3328082154166694  0.4458490937018452  1.0000
  C   C29       1.0  0.056002070014763185  0.7518808913265005  0.5026221034794814  1.0000
  C   C30       1.0  0.9439806174451987  0.24821487585320767  0.49739751897709533  1.0000
  C   C31       1.0  0.9421030853446554  0.7488804984893418  0.5471192608565546  1.0000
  C   C32       1.0  0.05787900889671249  0.25122252188630506  0.4528869738349001  1.0000
  C   C33       1.0  0.9377714423560235  0.5835960777634168  0.5231495257136842  1.0000
  C   C34       1.0  0.0621503757059259  0.4165151201328214  0.4768774704879916  1.0000
  C   C35       1.0  0.0630713683190933  0.5833187094372009  0.49310998728959277  1.0000
  C   C36       1.0  0.9368429907511454  0.41679214176380697  0.5069101358739232  1.0000
  C   C37       1.0  0.6325429498628735  0.6362590756967278  0.9011376097453194  1.0000
  C   C38       1.0  0.3673212258349566  0.3637310817987327  0.0988869790469522  1.0000
  C   C39       1.0  0.6549719313198639  0.6245683709416879  0.0824126627232999  1.0000
  C   C40       1.0  0.3449246665278096  0.3753779167454709  0.9176349041900733  1.0000
  C   C41       1.0  0.11339361380088057  0.16650844568463444  0.41483390338417786  1.0000
  C   C42       1.0  0.8866326792860092  0.8335989641004391  0.5851803925476133  1.0000
  C   C43       1.0  0.888762089399158  0.15807309724704055  0.5191561613081319  1.0000
  C   C44       1.0  0.11126849296388033  0.8419978291882868  0.480882632953886  1.0000
  C   C45       1.0  0.391433378426612  0.0976127482971592  0.6377237891174515  1.0000
  C   C46       1.0  0.4332660247988755  0.07875293485091112  0.7207534028919653  1.0000
  C   C47       1.0  0.37948866023912586  0.12760246752607426  0.7844896412460329  1.0000
  C   C48       1.0  0.2826318813846385  0.19474402381973732  0.7663509215881774  1.0000
  C   C49       1.0  0.2410080150957867  0.2143102134031594  0.683875551436941  1.0000
  C   C50       1.0  0.2956851452729765  0.16639133430234657  0.6198165103835366  1.0000
  C   C51       1.0  0.6085717088901887  0.9023472695316387  0.3622710903851427  1.0000
  C   C52       1.0  0.5667332896534063  0.9212428819987648  0.2792425966896488  1.0000
  C   C53       1.0  0.6204948038161006  0.8724084884820369  0.2154920073408633  1.0000
  C   C54       1.0  0.7173385091208573  0.8052498049253103  0.233613865269291  1.0000
  C   C55       1.0  0.7589815347719407  0.7856551986186346  0.31608474696462  1.0000
  C   C56       1.0  0.704318911327455  0.8335652579891359  0.3801541493166667  1.0000
  C   C57       1.0  0.6085452510093461  0.10765459101547491  0.3630881760739086  1.0000
  C   C58       1.0  0.7288362402391967  0.08689945979592299  0.3344051575235412  1.0000
  C   C59       1.0  0.7782772208619094  0.14332501904516448  0.271587071291485  1.0000
  C   C60       1.0  0.7083288096780365  0.22065087801858846  0.2360590894169832  1.0000
  C   C61       1.0  0.5884390733746443  0.24119632238858194  0.2635012681215088  1.0000
  C   C62       1.0  0.5388981236402941  0.1851205359066554  0.3265324080565861  1.0000
  C   C63       1.0  0.3915081662025059  0.8923064608388742  0.6369336317583247  1.0000
  C   C64       1.0  0.46113686291495537  0.81482007552529  0.6734720262121527  1.0000
  C   C65       1.0  0.411579952029463  0.7587474980811919  0.7364980090459168  1.0000
  C   C66       1.0  0.2916982050818858  0.7793159331887621  0.7639474489555981  1.0000
  C   C67       1.0  0.22175676699762906  0.8566491809224674  0.7284204522153388  1.0000
  C   C68       1.0  0.2712203058112905  0.9130705547916875  0.6656131956892111  1.0000
  N   N1        1.0  0.5335688342704685  0.26466769611424457  0.519545432544291  1.0000
  N   N2        1.0  0.46636868780880997  0.7352998182493662  0.4804752102106065  1.0000
  O   O1        1.0  0.45777298928349797  0.5807141350075041  0.6128132481682727  1.0000
  O   O2        1.0  0.5418827663560322  0.4190649627197445  0.3871458001612211  1.0000
  O   O3        1.0  0.5427021058638033  0.5751970153584053  0.3634321877735402  1.0000
  O   O4        1.0  0.4574972665269286  0.4245719907745594  0.636722159352871  1.0000
  O   O5        1.0  0.32241442335787707  0.5626993337003156  0.4488179152830583  1.0000
  O   O6        1.0  0.6774759587776558  0.4373929316593531  0.550974361844716  1.0000
  O   O7        1.0  0.6787378006231107  0.5874327238493748  0.5092992458245078  1.0000
  O   O8        1.0  0.3211691126819787  0.4127446542095328  0.4908775220575805  1.0000
