data_image0
_chemical_formula_structural       Zn8H48C48N32
_chemical_formula_sum              "Zn8 H48 C48 N32"
_cell_length_a       16.23427775312292
_cell_length_b       16.234317068137035
_cell_length_c       16.23426503807919
_cell_angle_alpha    69.2630390716076
_cell_angle_beta     69.26304203907034
_cell_angle_gamma    106.96897463305602

_space_group_name_H-M_alt    "P 1"
_space_group_IT_number       1

loop_
  _space_group_symop_operation_xyz
  'x, y, z'

loop_
  _atom_site_type_symbol
  _atom_site_label
  _atom_site_symmetry_multiplicity
  _atom_site_fract_x
  _atom_site_fract_y
  _atom_site_fract_z
  _atom_site_occupancy
  Zn  Zn1       1.0  0.27717706669945835  0.4741962257912107  0.4330335632402297  1.0000
  Zn  Zn2       1.0  0.9741968261718055  0.40722728383858714  0.3029833913244033  1.0000
  Zn  Zn3       1.0  0.7102125372492836  0.7771803287900384  0.1970178949096563  1.0000
  Zn  Zn4       1.0  0.9072294797452969  0.21021245621488305  0.06696746539734029  1.0000
  Zn  Zn5       1.0  0.722823278617419  0.5258045649008455  0.5669660638997698  1.0000
  Zn  Zn6       1.0  0.025803480311246678  0.5927719351496779  0.6970163990840561  1.0000
  Zn  Zn7       1.0  0.2897875758892355  0.22281946328998734  0.8029823496372828  1.0000
  Zn  Zn8       1.0  0.09277044351873819  0.7897871459884487  0.9330323250103728  1.0000
  H   H1        1.0  0.0887570413088241  0.47405268592727623  0.41412357557642565  1.0000
  H   H2        1.0  0.974056049948487  0.3881771023969025  0.11470290333759443  1.0000
  H   H3        1.0  0.5028790438840074  0.5887571599309211  0.3852969739964889  1.0000
  H   H4        1.0  0.8881777635697645  0.002882108068092704  0.08587633503638158  1.0000
  H   H5        1.0  0.9112430718296947  0.5259471061527493  0.5858766689705134  1.0000
  H   H6        1.0  0.02594387331554054  0.6118224998064292  0.885296887070126  1.0000
  H   H7        1.0  0.49712087938002025  0.4112424422724107  0.6147028164112314  1.0000
  H   H8        1.0  0.1118229649661301  0.9971182994088892  0.9141232921043636  1.0000
  H   H9        1.0  0.26472715182378437  0.343473411884439  0.31943326299457914  1.0000
  H   H10       1.0  0.8434707982045851  0.162905634034317  0.42125689621644113  1.0000
  H   H11       1.0  0.584163464372871  0.7647299505428009  0.07874279457762154  1.0000
  H   H12       1.0  0.6629044724170967  0.08415728924149617  0.18056971137912103  1.0000
  H   H13       1.0  0.7352723882212331  0.6565265735339596  0.680566527412395  1.0000
  H   H14       1.0  0.15652850966207404  0.8370933527720511  0.578743511597466  1.0000
  H   H15       1.0  0.4158358823276132  0.23527060796736546  0.9212574499678323  1.0000
  H   H16       1.0  0.3370948354495623  0.9158416975648792  0.8194306964347859  1.0000
  H   H17       1.0  0.11605167149264871  0.3046328458498523  0.2702146730353831  1.0000
  H   H18       1.0  0.8046301088417422  0.07484626171167748  0.3114224200956314  1.0000
  H   H19       1.0  0.3862675252842818  0.6160527607400468  0.18857944905771265  1.0000
  H   H20       1.0  0.5748462029687431  0.8862636277205597  0.22978544802700895  1.0000
  H   H21       1.0  0.8839480584268526  0.6953673294452402  0.72978557151081  1.0000
  H   H22       1.0  0.1953690056803838  0.9251532981864589  0.6885784418567552  1.0000
  H   H23       1.0  0.6137318214162023  0.3839477977701195  0.8114207954877415  1.0000
  H   H24       1.0  0.42515410351430216  0.11373559126770541  0.7702143423814433  1.0000
  H   H25       1.0  0.0959105681854381  0.44226217386630406  0.6386748853411531  1.0000
  H   H26       1.0  0.9422622686178315  0.5809343253241012  0.15365147796944734  1.0000
  H   H27       1.0  0.7345858532721721  0.5959143227130995  0.3463485311280436  1.0000
  H   H28       1.0  0.08093528144962664  0.23458514057077934  0.8613274221019508  1.0000
  H   H29       1.0  0.9040891617340706  0.5577380014287956  0.3613253592050396  1.0000
  H   H30       1.0  0.05773746477171233  0.4190650870025296  0.8463478582990546  1.0000
  H   H31       1.0  0.26541383434346955  0.40408504384666355  0.6536527849643077  1.0000
  H   H32       1.0  0.9190648316888924  0.7654146515092464  0.13867282244498827  1.0000
  H   H33       1.0  0.3307715954790922  0.7000599821269234  0.35674448305684336  1.0000
  H   H34       1.0  0.20006181282801086  0.5568078152671703  0.13070702955196367  1.0000
  H   H35       1.0  0.6875164810984344  0.8307704258555334  0.3692919434989788  1.0000
  H   H36       1.0  0.05680656400414109  0.18751664586776687  0.14325423240280338  1.0000
  H   H37       1.0  0.6692285176594269  0.2999398099531095  0.6432557614900957  1.0000
  H   H38       1.0  0.7999379170914906  0.44319236002792944  0.8692932149942291  1.0000
  H   H39       1.0  0.31248409639680114  0.16923136344855294  0.6307070662340876  1.0000
  H   H40       1.0  0.9431935491343851  0.8124831462122591  0.8567460121441284  1.0000
  H   H41       1.0  0.21741316575375425  0.7561459161865544  0.47666879419268304  1.0000
  H   H42       1.0  0.25614572387058143  0.7328190173003296  0.9612640150658506  1.0000
  H   H43       1.0  0.694083692286533  0.7174095522133614  0.5387346699277414  1.0000
  H   H44       1.0  0.2328158142914134  0.194080951214147  0.02332932210374851  1.0000
  H   H45       1.0  0.7825863742912561  0.24385406923184424  0.5233309962142983  1.0000
  H   H46       1.0  0.7438543892679448  0.2671807747796964  0.038736229481088603  1.0000
  H   H47       1.0  0.30591665303034427  0.2825912384786947  0.4612649572122578  1.0000
  H   H48       1.0  0.7671842988471055  0.8059188408658786  0.9766709224431906  1.0000
  C   C1        1.0  0.11631949090737956  0.43295553321549834  0.381667904286047  1.0000
  C   C2        1.0  0.9329568969456474  0.31462337695752757  0.1833636287329056  1.0000
  C   C3        1.0  0.4979869210720551  0.6163202399756217  0.3166356902419167  1.0000
  C   C4        1.0  0.8146235584191855  0.9979875915598415  0.11833300883637328  1.0000
  C   C5        1.0  0.8836806222311396  0.5670442588645276  0.6183323402608918  1.0000
  C   C6        1.0  0.06704264309937012  0.6853766084608711  0.8166361616740687  1.0000
  C   C7        1.0  0.5020128088474466  0.3836799353194779  0.6833645543042765  1.0000
  C   C8        1.0  0.18537698024221783  0.0020126260404539314  0.8816661641651533  1.0000
  C   C9        1.0  0.2059550971413984  0.36477761573100054  0.3324037885606117  1.0000
  C   C10       1.0  0.8647756527712501  0.1971806450004224  0.3411788349536948  1.0000
  C   C11       1.0  0.5383600237156543  0.7059555146009018  0.15882120978999134  1.0000
  C   C12       1.0  0.6971792529413818  0.03835727165218848  0.16759707013570588  1.0000
  C   C13       1.0  0.7940446327781102  0.6352225595640919  0.6675964559855814  1.0000
  C   C14       1.0  0.13522427049277752  0.8028189572029091  0.6588209554540255  1.0000
  C   C15       1.0  0.4616393229848299  0.2940450439092645  0.8411790347554629  1.0000
  C   C16       1.0  0.3028196717062599  0.9616420983692536  0.8324033376774622  1.0000
  C   C17       1.0  0.1325918879174353  0.34586242315685933  0.30729497432490394  1.0000
  C   C18       1.0  0.8458610007257477  0.15315732212663158  0.2867318827947544  1.0000
  C   C19       1.0  0.43988959592199706  0.6325934104876865  0.2132689663940893  1.0000
  C   C20       1.0  0.6531557633420061  0.9398848741537833  0.1927055248501333  1.0000
  C   C21       1.0  0.8674078420020663  0.6541377521382332  0.6927052702212888  1.0000
  C   C22       1.0  0.15413892253828723  0.8468422800767003  0.713267907612959  1.0000
  C   C23       1.0  0.560109518600136  0.36740614941044936  0.7867318955582973  1.0000
  C   C24       1.0  0.34684415992202844  0.0601147280495483  0.8072942655575801  1.0000
  C   C25       1.0  0.14469946764635472  0.5202759396414225  0.5780691771437246  1.0000
  C   C26       1.0  0.020276274059703794  0.5983436877954064  0.12442497801260538  1.0000
  C   C27       1.0  0.7227666207272209  0.6447002596233135  0.375576565226936  1.0000
  C   C28       1.0  0.09834401641894192  0.2227676721229844  0.9219322563426856  1.0000
  C   C29       1.0  0.8553006454921643  0.47972385243860344  0.4219310674032145  1.0000
  C   C30       1.0  0.9797236492043238  0.40165591440792553  0.8755748123951151  1.0000
  C   C31       1.0  0.2772332990667721  0.35530010554848007  0.6244241334584758  1.0000
  C   C32       1.0  0.9016559068450929  0.7772319300803476  0.07806753406503478  1.0000
  C   C33       1.0  0.26517258841794694  0.654736335331144  0.4332594235031875  1.0000
  C   C34       1.0  0.15473728309373763  0.5879970726066546  0.1104353034362404  1.0000
  C   C35       1.0  0.6984347230889794  0.765174012585618  0.38956381784916516  1.0000
  C   C36       1.0  0.08799690633979655  0.19843229261594794  0.06673976672338706  1.0000
  C   C37       1.0  0.7348275247205719  0.34526345674888165  0.5667408210437443  1.0000
  C   C38       1.0  0.8452616415539039  0.4120022974147876  0.8895651043769275  1.0000
  C   C39       1.0  0.30156804151352645  0.2348284309589418  0.6104344112122178  1.0000
  C   C40       1.0  0.9120036323216069  0.8015679249843476  0.9332594062781394  1.0000
  C   C41       1.0  0.2087264150869288  0.6823888478768866  0.49276485328699937  1.0000
  C   C42       1.0  0.18238956042553392  0.6751559242674218  0.026336032497596407  1.0000
  C   C43       1.0  0.7014948263772637  0.7087268659326186  0.47366174255764537  1.0000
  C   C44       1.0  0.17515323087976503  0.20149002210217057  0.007234842927253689  1.0000
  C   C45       1.0  0.7912735081771061  0.31761075432644514  0.5072349371207139  1.0000
  C   C46       1.0  0.8176103628384934  0.32484367793590974  0.9736637579101167  1.0000
  C   C47       1.0  0.29850755500622483  0.29127596082700813  0.5263364865029984  1.0000
  C   C48       1.0  0.8248464990397438  0.7985101531929291  0.9927654016189462  1.0000
  N   N1        1.0  0.1950649905407077  0.41995896288543133  0.37974494224093996  1.0000
  N   N2        1.0  0.9199597791206031  0.2997035667882246  0.2751060984315074  1.0000
  N   N3        1.0  0.5748110343902937  0.6950664679640327  0.22489357569342855  1.0000
  N   N4        1.0  0.7997032623012714  0.07480933182323236  0.12025768892671342  1.0000
  N   N5        1.0  0.8049351225978116  0.5800408291945945  0.6202553023059991  1.0000
  N   N6        1.0  0.08004014414342459  0.7002960354151073  0.7248936919762129  1.0000
  N   N7        1.0  0.4251886955292079  0.30493370733105984  0.7751066688527715  1.0000
  N   N8        1.0  0.20029669979658854  0.9251918420838977  0.8797419382125465  1.0000
  N   N9        1.0  0.07607632339617962  0.3894478439491068  0.33880615957865956  1.0000
  N   N10       1.0  0.8894486230161505  0.22825439578094378  0.1866288333101026  1.0000
  N   N11       1.0  0.41488250192954007  0.5760769200773056  0.31337105840250956  1.0000
  N   N12       1.0  0.7282542296729418  0.9148816436910965  0.16119396386537221  1.0000
  N   N13       1.0  0.9239231743449707  0.6105513327339624  0.661194702374473  1.0000
  N   N14       1.0  0.11055091702885986  0.7717455896374549  0.8133709570968717  1.0000
  N   N15       1.0  0.5851176112089786  0.42392287200272705  0.6866291861444296  1.0000
  N   N16       1.0  0.2717468820819706  0.08511838057081923  0.838805663276112  1.0000
  N   N17       1.0  0.22413648798348623  0.5517003007345027  0.4879400891304966  1.0000
  N   N18       1.0  0.05170165781424895  0.5396396220851188  0.17243660742365557  1.0000
  N   N19       1.0  0.7120773661956081  0.7241389830054817  0.3275635660641285  1.0000
  N   N20       1.0  0.03964082640322886  0.21207741535302918  0.01206089830917991  1.0000
  N   N21       1.0  0.7758636251550326  0.4482994913455229  0.5120601554164423  1.0000
  N   N22       1.0  0.9482982654497789  0.46035998011821305  0.8275631829840646  1.0000
  N   N23       1.0  0.28792478300952246  0.2758628451421219  0.672435280403441  1.0000
  N   N24       1.0  0.9603592867352901  0.7879223767269965  0.9879393462377523  1.0000
  N   N25       1.0  0.1324991274160111  0.5968149894459032  0.5845415438527651  1.0000
  N   N26       1.0  0.09681470767633032  0.6813568713122252  0.03568485269180844  1.0000
  N   N27       1.0  0.7170404511110107  0.6324987830875416  0.46431614168237456  1.0000
  N   N28       1.0  0.1813556255033363  0.217039334149206  0.9154590498960358  1.0000
  N   N29       1.0  0.8674997972316233  0.4031843805755389  0.4154588639604028  1.0000
  N   N30       1.0  0.9031852155877048  0.3186427308911067  0.9643149377159049  1.0000
  N   N31       1.0  0.28295908546396475  0.36750196529931867  0.5356845570022982  1.0000
  N   N32       1.0  0.818643872237807  0.7829598425338634  0.08454181205709682  1.0000
