data_image0
_chemical_formula_structural       Ag4H40C44N12O8
_chemical_formula_sum              "Ag4 H40 C44 N12 O8"
_cell_length_a       6.4480323605761445
_cell_length_b       6.874457847387487
_cell_length_c       25.55837021639957
_cell_angle_alpha    90.00038593881646
_cell_angle_beta     89.99940511893925
_cell_angle_gamma    106.7960654334114

_space_group_name_H-M_alt    "P 1"
_space_group_IT_number       1

loop_
  _space_group_symop_operation_xyz
  'x, y, z'

loop_
  _atom_site_type_symbol
  _atom_site_label
  _atom_site_symmetry_multiplicity
  _atom_site_fract_x
  _atom_site_fract_y
  _atom_site_fract_z
  _atom_site_occupancy
  Ag  Ag1       1.0  0.4783818904682206  0.7828981164996521  0.9815794793830999  1.0000
  Ag  Ag2       1.0  0.9783904732967271  0.28290232789218095  0.5184217008295702  1.0000
  Ag  Ag3       1.0  0.5216147292923593  0.21710675029128623  0.018420482321140193  1.0000
  Ag  Ag4       1.0  0.021615445870026027  0.7171025202975445  0.4815786521237652  1.0000
  H   H1        1.0  0.8146957152603349  0.677114112322237  0.032555601796673286  1.0000
  H   H2        1.0  0.31469381710274996  0.17710990282466818  0.46744504457146946  1.0000
  H   H3        1.0  0.1853038682140067  0.32289530981766756  0.9674459249527414  1.0000
  H   H4        1.0  0.6853054311394684  0.8228934383042346  0.5325572646955192  1.0000
  H   H5        1.0  0.0960112772396045  0.7076953922957687  0.03775368996659978  1.0000
  H   H6        1.0  0.5960107653181408  0.20769442691117498  0.46224601619103806  1.0000
  H   H7        1.0  0.9039946419556699  0.2923094558816217  0.9622450979417176  1.0000
  H   H8        1.0  0.40399421126718926  0.7923073823295823  0.5377555105446061  1.0000
  H   H9        1.0  0.15871347275386677  0.5373795771264444  0.17763131247589564  1.0000
  H   H10       1.0  0.658697637314738  0.0373855687706595  0.3223722328436408  1.0000
  H   H11       1.0  0.8413044374085101  0.4626389308871738  0.8223709967801436  1.0000
  H   H12       1.0  0.34129749553736116  0.9626345052574836  0.6776332065335421  1.0000
  H   H13       1.0  0.1948904932696678  0.3475166137563904  0.2595811585128799  1.0000
  H   H14       1.0  0.6948577247275337  0.847531758346321  0.2404197105830618  1.0000
  H   H15       1.0  0.8051366532409858  0.652486671547294  0.7404195856726329  1.0000
  H   H16       1.0  0.3051115311310468  0.15248988784532005  0.75958220747799  1.0000
  H   H17       1.0  0.5208822138212241  0.22661740096122432  0.2714960964789696  1.0000
  H   H18       1.0  0.020842284036298505  0.7266184012952623  0.22849875287457871  1.0000
  H   H19       1.0  0.4791366488974588  0.7733691762335156  0.7284995613062717  1.0000
  H   H20       1.0  0.9791096607270616  0.27337743232178013  0.7714988613124444  1.0000
  H   H21       1.0  0.8064770726306136  0.29475641526781976  0.20309157883457363  1.0000
  H   H22       1.0  0.30644098575221074  0.7947539206418031  0.29690186303439237  1.0000
  H   H23       1.0  0.19354024020723412  0.7052301650183782  0.7969029051689344  1.0000
  H   H24       1.0  0.6935234943409513  0.20523732660985425  0.7030930123034335  1.0000
  H   H25       1.0  0.7650129628290259  0.4811436325158099  0.12166759175148195  1.0000
  H   H26       1.0  0.26499277963504386  0.9811332619718203  0.37832707032935514  1.0000
  H   H27       1.0  0.23499572103123967  0.5188551284090225  0.8783268922740529  1.0000
  H   H28       1.0  0.7349964988508262  0.018857935686909907  0.6216701525435935  1.0000
  H   H29       1.0  0.70577777157078  0.9345043224291846  0.8759340827162913  1.0000
  H   H30       1.0  0.20578022907864826  0.4345083967016947  0.6240665119718896  1.0000
  H   H31       1.0  0.29421554922966203  0.06548990800794743  0.12406587898284725  1.0000
  H   H32       1.0  0.7942320257092277  0.565491877568718  0.37593657979791556  1.0000
  H   H33       1.0  0.0728714789713365  0.0503661351532472  0.8336567835584243  1.0000
  H   H34       1.0  0.5728678311883542  0.5503602929547711  0.6663442614621145  1.0000
  H   H35       1.0  0.9271143644922403  0.9496189876897392  0.16634043931363604  1.0000
  H   H36       1.0  0.4271349250305149  0.4496293573646924  0.3336588303107033  1.0000
  H   H37       1.0  0.38601925471510157  0.9923879795104258  0.8842981517499805  1.0000
  H   H38       1.0  0.8860238211865621  0.49239220589301175  0.6157009010434675  1.0000
  H   H39       1.0  0.6139670600284929  0.007598662811673804  0.11569907112281184  1.0000
  H   H40       1.0  0.11398688372048575  0.5076080714688587  0.3843010169446045  1.0000
  C   C1        1.0  0.4184630511458351  0.6190928179743125  0.09495402124623806  1.0000
  C   C2        1.0  0.9184624664437705  0.11909399549946903  0.40504703424221566  1.0000
  C   C3        1.0  0.5815490676654349  0.3809120177971295  0.9050443753927265  1.0000
  C   C4        1.0  0.08154655248464583  0.880910846507341  0.5949556662746003  1.0000
  C   C5        1.0  0.45826337602585454  0.5203883771317309  0.14513587681170034  1.0000
  C   C6        1.0  0.9582501996649881  0.020387271522587003  0.35486411779941546  1.0000
  C   C7        1.0  0.5417426792173144  0.4796119095137642  0.854863693614916  1.0000
  C   C8        1.0  0.04174116306814572  0.979620646620177  0.6451346701306161  1.0000
  C   C9        1.0  0.3003271338463733  0.48473146816765933  0.18451297534242164  1.0000
  C   C10       1.0  0.8003090867604425  0.9847340781502256  0.3154894261438626  1.0000
  C   C11       1.0  0.699686398769316  0.5152779260565482  0.815487377604995  1.0000
  C   C12       1.0  0.19967425424461277  0.015282978612354704  0.6845144482010209  1.0000
  C   C13       1.0  0.3217761721210053  0.37936168236986123  0.2298099521995453  1.0000
  C   C14       1.0  0.8217400983481935  0.8793651376166451  0.2701894682273433  1.0000
  C   C15       1.0  0.6782480106830204  0.6206370475817665  0.7701888356795261  1.0000
  C   C16       1.0  0.17823360808272778  0.12064585670836443  0.7298112760347234  1.0000
  C   C17       1.0  0.5042118766014596  0.31074349346599206  0.23637658236679462  1.0000
  C   C18       1.0  0.004181244161252097  0.810754149146405  0.2636196329947466  1.0000
  C   C19       1.0  0.4958100859002669  0.6892430775365739  0.7636202491981617  1.0000
  C   C20       1.0  0.995784105473433  0.18925990271643667  0.7363779811908909  1.0000
  C   C21       1.0  0.6648229060662558  0.3492291244119983  0.19784147706595684  1.0000
  C   C22       1.0  0.1647928274360594  0.849226700212647  0.30215399585792097  1.0000
  C   C23       1.0  0.3351941346544082  0.6507665789472274  0.8021526156847113  1.0000
  C   C24       1.0  0.8351853295743225  0.1507736422426404  0.6978451833439007  1.0000
  C   C25       1.0  0.6421678504136424  0.4533956261185282  0.15226083630942355  1.0000
  C   C26       1.0  0.14215302358213214  0.9533984483325642  0.34773566239714865  1.0000
  C   C27       1.0  0.3578364558215128  0.5465940210508436  0.8477359952812901  1.0000
  C   C28       1.0  0.8578404964239184  0.046606424638199015  0.6522615604823512  1.0000
  C   C29       1.0  0.9926510168282405  0.7999865187915706  0.9681742127720905  1.0000
  C   C30       1.0  0.4926507721838647  0.2999845889658134  0.5318269604127079  1.0000
  C   C31       1.0  0.0073488387917989995  0.20001378026295677  0.031826140185138685  1.0000
  C   C32       1.0  0.5073538691693428  0.7000111392639425  0.4681753488405106  1.0000
  C   C33       1.0  0.8480791844355693  0.9146808476244177  0.8955693255586678  1.0000
  C   C34       1.0  0.3480828287834185  0.4146861316494253  0.6044304714135789  1.0000
  C   C35       1.0  0.1519065229230705  0.0853088367751411  0.10443024488512975  1.0000
  C   C36       1.0  0.6519258549200018  0.5853126293432923  0.3955726203595517  1.0000
  C   C37       1.0  0.050647321408383975  0.978759254409454  0.8718678160436747  1.0000
  C   C38       1.0  0.5506442927033249  0.47876065031879034  0.628132479254958  1.0000
  C   C39       1.0  0.9493445855805118  0.021230417577989207  0.12813058060826416  1.0000
  C   C40       1.0  0.4493507139830726  0.5212290155135123  0.3718717863117503  1.0000
  C   C41       1.0  0.22150200762216335  0.9455917531691045  0.899697194287064  1.0000
  C   C42       1.0  0.7214965580307222  0.44558663529895176  0.600304161485482  1.0000
  C   C43       1.0  0.7784947482077058  0.054408552080680316  0.10030237615170277  1.0000
  C   C44       1.0  0.2785040409294979  0.5544060601863451  0.39969971281534794  1.0000
  N   N1        1.0  0.9651685355193678  0.716015503092429  0.015387678476805892  1.0000
  N   N2        1.0  0.4651666190568448  0.21600852234418977  0.4846138177045132  1.0000
  N   N3        1.0  0.03483616895589849  0.2839954292182797  0.9846130657447528  1.0000
  N   N4        1.0  0.5348386927178266  0.7839993679260858  0.5153892740810873  1.0000
  N   N5        1.0  0.8168286984066808  0.8293933322067913  0.9429475075540307  1.0000
  N   N6        1.0  0.31682504200321654  0.3293887644366294  0.5570530027351379  1.0000
  N   N7        1.0  0.1831642142286753  0.17061458283526323  0.057051280373975985  1.0000
  N   N8        1.0  0.683175284818425  0.6706130541309607  0.4429516540966245  1.0000
  N   N9        1.0  0.19626840179060412  0.8545024305019312  0.9466727554709773  1.0000
  N   N10       1.0  0.6962691777451866  0.35450112387952265  0.5533273313460112  1.0000
  N   N11       1.0  0.8037305112765267  0.14549482959128573  0.05332720622354257  1.0000
  N   N12       1.0  0.30374260580545337  0.645497630893253  0.4466734128555385  1.0000
  O   O1        1.0  0.5477594023266832  0.6196229472980621  0.05661338010625627  1.0000
  O   O2        1.0  0.047751982126072796  0.11960772816350843  0.44338668755351296  1.0000
  O   O3        1.0  0.4522533238481543  0.3803788464051722  0.9433838427454614  1.0000
  O   O4        1.0  0.9522478103505206  0.8803773668193317  0.5566164042191486  1.0000
  O   O5        1.0  0.2607365442922855  0.6926592391074424  0.09325191438717437  1.0000
  O   O6        1.0  0.7607377826510485  0.19266652141110546  0.40675085660874527  1.0000
  O   O7        1.0  0.7392798890006488  0.30733950634775914  0.9067468735020293  1.0000
  O   O8        1.0  0.23927015760526874  0.8073398431971416  0.593254582739611  1.0000
