data_image0
_chemical_formula_structural       Al2H10C18Cl2O12
_chemical_formula_sum              "Al2 H10 C18 Cl2 O12"
_cell_length_a       6.6866468219727295
_cell_length_b       8.91753175077804
_cell_length_c       15.349035895185562
_cell_angle_alpha    78.32082209094375
_cell_angle_beta     77.1127685067971
_cell_angle_gamma    74.15312691368692

_space_group_name_H-M_alt    "P 1"
_space_group_IT_number       1

loop_
  _space_group_symop_operation_xyz
  'x, y, z'

loop_
  _atom_site_type_symbol
  _atom_site_label
  _atom_site_symmetry_multiplicity
  _atom_site_fract_x
  _atom_site_fract_y
  _atom_site_fract_z
  _atom_site_occupancy
  Al  Al1       1.0  0.5000294896154075  0.4999661890068981  0.500005079481255  1.0000
  Al  Al2       1.0  1.2339763493690408e-05  0.5000096965257799  0.49999547444801334  1.0000
  H   H1        1.0  0.27605525536076675  0.3213886891653602  0.5745494342316063  1.0000
  H   H2        1.0  0.7239692865002214  0.678625849311466  0.4254588326158879  1.0000
  H   H3        1.0  0.16483469458631111  0.4495695613139433  0.06760334584666339  1.0000
  H   H4        1.0  0.8350090868237104  0.5506278237529189  0.9323909472370744  1.0000
  H   H5        1.0  0.3082318645308675  0.47543531902613284  0.7737896963953117  1.0000
  H   H6        1.0  0.22366656905276022  0.4651446556567365  0.9376374684374367  1.0000
  H   H7        1.0  0.6918213665726044  0.5244676574424717  0.22618483455795504  1.0000
  H   H8        1.0  0.7763557026862458  0.5347403398176597  0.06233366862160486  1.0000
  H   H9        1.0  0.03596605825808297  0.4410569261002452  0.30132188876104476  1.0000
  H   H10       1.0  0.9639909615510336  0.559033031360592  0.6986751788415472  1.0000
  C   C1        1.0  0.6679717847499519  0.5109406605533239  0.6615966736252684  1.0000
  C   C2        1.0  0.8396333351414924  0.21758850315281114  0.5124237355454966  1.0000
  C   C3        1.0  0.33204557798680434  0.48904412141345677  0.3384074786345365  1.0000
  C   C4        1.0  0.16042562026473922  0.7823910297698476  0.48759181116984246  1.0000
  C   C5        1.0  0.09599501817098842  0.9589727936505104  0.48125513123589747  1.0000
  C   C6        1.0  0.9039998005644847  0.0410152454545241  0.518762054999506  1.0000
  C   C7        1.0  0.38158166122908466  0.48543569367377876  0.24076171919825373  1.0000
  C   C8        1.0  0.6184295568089482  0.5145444274194519  0.759223810567981  1.0000
  C   C9        1.0  0.23440929835083327  0.46249910617849826  0.19373937302675864  1.0000
  C   C10       1.0  0.2839261864271164  0.4678824538587423  0.09979230173460249  1.0000
  C   C11       1.0  0.765504562465651  0.5375726302260164  0.806266607598715  1.0000
  C   C12       1.0  0.7159477500352907  0.5322129410811202  0.90021371626824  1.0000
  C   C13       1.0  0.423536033733221  0.49006980288608315  0.8094545592330389  1.0000
  C   C14       1.0  0.376426469428047  0.4851061344860811  0.9021813579681389  1.0000
  C   C15       1.0  0.5764942296300931  0.5098706741683259  0.19054860366030366  1.0000
  C   C16       1.0  0.6235572767290025  0.5148735315377239  0.09781928673432105  1.0000
  C   C17       1.0  0.47635644394750193  0.4956088120505555  0.049929203744525814  1.0000
  C   C18       1.0  0.5235893113094788  0.504398007342374  0.9500618693158243  1.0000
  Cl  Cl1       1.0  0.2907116320883318  0.04982691183018063  0.42043081475022587  1.0000
  Cl  Cl2       1.0  0.7093129619053047  0.9501874650275115  0.5795787659900283  1.0000
  O   O1        1.0  0.53313353615102  0.48663880802594406  0.6225507905729016  1.0000
  O   O2        1.0  0.9746709801148583  0.28549635164455384  0.5227599384742732  1.0000
  O   O3        1.0  0.14675145092851946  0.4703939522880989  0.3801769228636117  1.0000
  O   O4        1.0  0.3466487233693273  0.716668777491883  0.5012217866243771  1.0000
  O   O5        1.0  0.4669313909203013  0.5132894460269172  0.3774545474168035  1.0000
  O   O6        1.0  0.025437903504631338  0.7144712090163097  0.47724517759505136  1.0000
  O   O7        1.0  0.853224272000773  0.5296197595253601  0.6198224422591281  1.0000
  O   O8        1.0  0.6534473550007576  0.28328630450987197  0.4987718547792637  1.0000
  O   O9        1.0  0.2518169204234866  0.430295206605422  0.5452030154114879  1.0000
  O   O10       1.0  0.7482125620907213  0.5697041908017012  0.45478573318485604  1.0000
  O   O11       1.0  0.04452280108885994  0.43602924256508413  0.23602652577615393  1.0000
  O   O12       1.0  0.9553831002735579  0.5641092834272785  0.7639964574920481  1.0000
