data_image0
_chemical_formula_structural       Rb4H24C24S8N4O20
_chemical_formula_sum              "Rb4 H24 C24 S8 N4 O20"
_cell_length_a       7.027186014300381
_cell_length_b       11.685365939488308
_cell_length_c       13.255514668012411
_cell_angle_alpha    90.0001331379987
_cell_angle_beta     89.99988104339565
_cell_angle_gamma    107.36235036015877

_space_group_name_H-M_alt    "P 1"
_space_group_IT_number       1

loop_
  _space_group_symop_operation_xyz
  'x, y, z'

loop_
  _atom_site_type_symbol
  _atom_site_label
  _atom_site_symmetry_multiplicity
  _atom_site_fract_x
  _atom_site_fract_y
  _atom_site_fract_z
  _atom_site_occupancy
  Rb  Rb1       1.0  0.17688280357577216  0.4896129910891674  0.638948056969966  1.0000
  Rb  Rb2       1.0  0.6768824405721716  0.48961281843482135  0.8610523217411912  1.0000
  Rb  Rb3       1.0  0.8231180960625437  0.5103869740178552  0.3610520610935737  1.0000
  Rb  Rb4       1.0  0.323115611621148  0.5103871439338192  0.1389477963239187  1.0000
  H   H1        1.0  0.20639196691188738  0.27110196651806723  0.8078375251148346  1.0000
  H   H2        1.0  0.7063911035178804  0.2711023294383779  0.69216312854158  1.0000
  H   H3        1.0  0.7936089327264283  0.7288979985889553  0.19216259294870508  1.0000
  H   H4        1.0  0.29360694867544607  0.7288976329302627  0.3078369895235227  1.0000
  H   H5        1.0  0.3561175931389116  0.27136057604919733  0.7191083341257072  1.0000
  H   H6        1.0  0.856116920019744  0.2713620245571987  0.7808921546741205  1.0000
  H   H7        1.0  0.643881440022021  0.7286384910652117  0.2808917839379462  1.0000
  H   H8        1.0  0.14388299865096602  0.7286388358040555  0.21910796339087577  1.0000
  H   H9        1.0  0.30947105256540647  0.9531811610210069  0.48870306555643606  1.0000
  H   H10       1.0  0.8094715893388268  0.953182932001674  0.0112962036594055  1.0000
  H   H11       1.0  0.6905298470729093  0.0468188040860156  0.5112970525071036  1.0000
  H   H12       1.0  0.1905277911191519  0.046819720237237995  0.9887039144077152  1.0000
  H   H13       1.0  0.038994228639438626  0.8443205888888983  0.37337902619448476  1.0000
  H   H14       1.0  0.5389963991937846  0.8443208149624297  0.1266188103569803  1.0000
  H   H15       1.0  0.9610062282439884  0.1556784795946982  0.6266210918683799  1.0000
  H   H16       1.0  0.46100832885820614  0.15567825762794033  0.8733805533005284  1.0000
  H   H17       1.0  0.855547998922738  0.9542061671436104  0.26991608847001913  1.0000
  H   H18       1.0  0.3555505072885339  0.9542056400023425  0.23008313194210933  1.0000
  H   H19       1.0  0.1444524579606892  0.04579290133998629  0.7300840295928455  1.0000
  H   H20       1.0  0.6444546635172728  0.04579432921225649  0.7699169861190711  1.0000
  H   H21       1.0  0.941593294969728  0.17738058265043577  0.2801298632165583  1.0000
  H   H22       1.0  0.44159013750709164  0.17738002828179586  0.21987069112928034  1.0000
  H   H23       1.0  0.05840671915774459  0.8226175892105446  0.7198710092486351  1.0000
  H   H24       1.0  0.5584103193763355  0.8226190402018075  0.7801294269335844  1.0000
  C   C1        1.0  0.17510958981351615  0.18847965537513994  0.38943197619763487  1.0000
  C   C2        1.0  0.6751056684029634  0.18847894516011365  0.11056512318855033  1.0000
  C   C3        1.0  0.8248908670709836  0.8115194131076535  0.6105673874622328  1.0000
  C   C4        1.0  0.32489478848368947  0.8115201233210738  0.8894327316653234  1.0000
  C   C5        1.0  0.2785876956834911  0.12695578655662126  0.4470825788096208  1.0000
  C   C6        1.0  0.7785843810716956  0.1269558501892547  0.05291578926291152  1.0000
  C   C7        1.0  0.7214132039558973  0.8730441785495983  0.5529167848509147  1.0000
  C   C8        1.0  0.2214132283678224  0.8730432155551567  0.9470835743985265  1.0000
  C   C9        1.0  0.23297953216548709  0.0027419468227094994  0.44244289855296165  1.0000
  C   C10       1.0  0.7329794945483528  0.0027429197003599  0.05755752908459042  1.0000
  C   C11       1.0  0.7670227911963962  0.9972580196526976  0.5575564651067921  1.0000
  C   C12       1.0  0.2670242525317335  0.9972570481474534  0.9424448521863698  1.0000
  C   C13       1.0  0.07907188251358123  0.9418044963502227  0.377663358361943  1.0000
  C   C14       1.0  0.5790692558775561  0.9418065010705591  0.12233538768540345  1.0000
  C   C15       1.0  0.9209304408472291  0.05819547012599458  0.622336759700808  1.0000
  C   C16       1.0  0.4209335102370701  0.058194362029880216  0.8776654847810195  1.0000
  C   C17       1.0  0.9758880920894769  0.0036695641016422  0.31915644252377023  1.0000
  C   C18       1.0  0.4758830837461332  0.0036707171246561994  0.18084145548869665  1.0000
  C   C19       1.0  0.024112364793957234  0.9963295043819612  0.6808436755390945  1.0000
  C   C20       1.0  0.5241182586470714  0.9963301446057854  0.8191586625755181  1.0000
  C   C21       1.0  0.022571068110188695  0.1285188679871609  0.3243179676063549  1.0000
  C   C22       1.0  0.5225706943692643  0.12852009243076884  0.17568068645746854  1.0000
  C   C23       1.0  0.9774284078067053  0.8714810957498641  0.6756813960549694  1.0000
  C   C24       1.0  0.47743153353370366  0.8714825625465255  0.824319431608082  1.0000
  S   S1        1.0  0.2771610984631394  0.3463811893062498  0.4053545109587945  1.0000
  S   S2        1.0  0.7771581078655814  0.3463822384316586  0.09464581622915351  1.0000
  S   S3        1.0  0.7228398011762492  0.65361877579997  0.5946448527017482  1.0000
  S   S4        1.0  0.22283940611502112  0.6536195158146326  0.9053543018380809  1.0000
  S   S5        1.0  0.4757381061714412  0.22882266446522687  0.5157981255219967  1.0000
  S   S6        1.0  0.9757354308088183  0.22882454458788704  0.9842013897523929  1.0000
  S   S7        1.0  0.5242642171893763  0.7711773020109831  0.4842019925407542  1.0000
  S   S8        1.0  0.024263064140470126  0.7711763144033696  0.015797973910388004  1.0000
  N   N1        1.0  0.41143694790648055  0.3483556981070919  0.5038998391822532  1.0000
  N   N2        1.0  0.9114352196553311  0.34835670831454735  0.9960992371638897  1.0000
  N   N3        1.0  0.5885625280104138  0.6516442656299404  0.49609952447907096  1.0000
  N   N4        1.0  0.08856185157252836  0.651644149306712  0.003899372096675801  1.0000
  O   O1        1.0  0.3205612245807146  0.32238012626221746  0.7702524027497476  1.0000
  O   O2        1.0  0.8205612352063694  0.32237967397161066  0.729747475257014  1.0000
  O   O3        1.0  0.6794382513361796  0.6776198374748077  0.22974696091157654  1.0000
  O   O4        1.0  0.1794382407094445  0.6776202897662245  0.27025264280730715  1.0000
  O   O5        1.0  0.1250665845533376  0.4034598524496502  0.42890560610274536  1.0000
  O   O6        1.0  0.6250632182144216  0.40345995479653846  0.0710957602184621  1.0000
  O   O7        1.0  0.874932448607595  0.5965392146647589  0.5710945119609009  1.0000
  O   O8        1.0  0.37493154377795423  0.5965391082110969  0.9289051122505401  1.0000
  O   O9        1.0  0.39487826178931573  0.39119574266172913  0.31493552049256124  1.0000
  O   O10       1.0  0.894877418594355  0.39119609046441883  0.18506401390783378  1.0000
  O   O11       1.0  0.6051212141265052  0.6088042210760989  0.6850645975717597  1.0000
  O   O12       1.0  0.10512151911088088  0.6088056651494538  0.814934595352625  1.0000
  O   O13       1.0  0.46684036965385883  0.19520501856859337  0.6231104136612657  1.0000
  O   O14       1.0  0.9668399615853075  0.19520487964231853  0.8768890426889302  1.0000
  O   O15       1.0  0.5331586635081533  0.8047940485450127  0.3768889499993834  1.0000
  O   O16       1.0  0.03316049529919226  0.804794188840482  0.12311032097093742  1.0000
  O   O17       1.0  0.6633650816425459  0.2332743306799828  0.46687423765177993  1.0000
  O   O18       1.0  0.1633623601054808  0.2332760671078304  0.033126738330878404  1.0000
  O   O19       1.0  0.33663581799576997  0.7667256344270399  0.5331258804117525  1.0000
  O   O20       1.0  0.8366365775976161  0.7667256885076553  0.9668733797355744  1.0000
