data_image0
_chemical_formula_structural       Zn2H18C42I6N2Cl4O8
_chemical_formula_sum              "Zn2 H18 C42 I6 N2 Cl4 O8"
_cell_length_a       11.423133047090285
_cell_length_b       18.334011932578534
_cell_length_c       19.576633757475832
_cell_angle_alpha    94.47482565195511
_cell_angle_beta     83.85164610404773
_cell_angle_gamma    104.45829498159321

_space_group_name_H-M_alt    "P 1"
_space_group_IT_number       1

loop_
  _space_group_symop_operation_xyz
  'x, y, z'

loop_
  _atom_site_type_symbol
  _atom_site_label
  _atom_site_symmetry_multiplicity
  _atom_site_fract_x
  _atom_site_fract_y
  _atom_site_fract_z
  _atom_site_occupancy
  Zn  Zn1       1.0  0.47396224585236985  0.4191010597186491  0.4934069165832612  1.0000
  Zn  Zn2       1.0  0.5260388604568716  0.5808960594087864  0.5065936782501979  1.0000
  H   H1        1.0  0.3438369178692896  0.12723431429552792  0.42502582951911466  1.0000
  H   H2        1.0  0.5396847046581001  0.3771379836691082  0.7065507518687684  1.0000
  H   H3        1.0  0.4565886360651845  0.6204275788142296  0.16610826011546465  1.0000
  H   H4        1.0  0.5434578271684247  0.37959523210602003  0.8338977572507105  1.0000
  H   H5        1.0  0.49504370608568854  0.3917444968150434  0.1504844356532047  1.0000
  H   H6        1.0  0.5049557425932675  0.6082688215324338  0.8495046188943433  1.0000
  H   H7        1.0  0.49252611417550446  0.39378927704992617  0.27848900755640227  1.0000
  H   H8        1.0  0.5074545215683912  0.6061992465677334  0.7214959445574537  1.0000
  H   H9        1.0  0.6536755441156146  0.4697526612199637  0.06540464692966451  1.0000
  H   H10       1.0  0.34634942534261637  0.5302752785662007  0.9345924865199464  1.0000
  H   H11       1.0  0.6561289173134172  0.872765507745811  0.5749794805214705  1.0000
  H   H12       1.0  0.6184252756644711  0.3373504828440303  0.5430532798689428  1.0000
  H   H13       1.0  0.3815988789137279  0.6626332694121403  0.4569409599163734  1.0000
  H   H14       1.0  0.3974714695021648  0.0664486014471848  0.5942977681558546  1.0000
  H   H15       1.0  0.6025015462869447  0.933536997105243  0.4057072370536972  1.0000
  H   H16       1.0  0.08876951597365947  0.4548909367502815  0.5837234529974253  1.0000
  H   H17       1.0  0.9112444068463859  0.5451220787444909  0.4162861534630906  1.0000
  H   H18       1.0  0.46032671922954194  0.6228648633959893  0.29345849088471004  1.0000
  C   C1        1.0  0.5172900417554658  0.49037178707851575  0.6303508474218233  1.0000
  C   C2        1.0  0.4856550360934051  0.5042657032066132  0.07360926802319061  1.0000
  C   C3        1.0  0.3982779616045917  0.2469682405822198  0.4504731954659675  1.0000
  C   C4        1.0  0.6017041358411959  0.7530281656747205  0.5495391757056751  1.0000
  C   C5        1.0  0.4057629659426354  0.1722157348858175  0.4522492913023513  1.0000
  C   C6        1.0  0.5942243574146673  0.8277771078050477  0.5477571470809864  1.0000
  C   C7        1.0  0.4927674719825106  0.1554036672424957  0.4894032103144283  1.0000
  C   C8        1.0  0.5072194371530118  0.8445755871997848  0.5106026576946476  1.0000
  C   C9        1.0  0.5717901601979066  0.21583694403822307  0.5224743884650993  1.0000
  C   C10       1.0  0.42819297518339977  0.7841455458237403  0.4775214917674048  1.0000
  C   C11       1.0  0.558981691480753  0.28885305451699855  0.5182902172354887  1.0000
  C   C12       1.0  0.482691029927409  0.5096267538967963  0.3696544801385926  1.0000
  C   C13       1.0  0.4410261651921418  0.7111378250780476  0.48171298613302593  1.0000
  C   C14       1.0  0.4423298290058497  0.0374355092628704  0.5527283209763639  1.0000
  C   C15       1.0  0.5576611484910644  0.9625506102292153  0.447283353305231  1.0000
  C   C16       1.0  0.7338395361693983  0.5151138687201993  0.4759360826798229  1.0000
  C   C17       1.0  0.2661628090904101  0.48489560648211233  0.5240604000824902  1.0000
  C   C18       1.0  0.4447895422392279  0.9625762818129858  0.5586821327218132  1.0000
  C   C19       1.0  0.5552017902531362  0.03743009154491261  0.44132374638471833  1.0000
  C   C20       1.0  0.5026846116079468  0.9242292450419357  0.5059091039070509  1.0000
  C   C21       1.0  0.49732120218781994  0.0757580153016235  0.494081720972396  1.0000
  C   C22       1.0  0.8665721377174621  0.5198146894306673  0.4640252845155359  1.0000
  C   C23       1.0  0.47716360292984916  0.5084926150481052  0.29350347409451427  1.0000
  C   C24       1.0  0.13343095155661905  0.48018174173633815  0.5359701060346751  1.0000
  C   C25       1.0  0.9351956240440771  0.497784120463038  0.506173323927186  1.0000
  C   C26       1.0  0.06479182001338302  0.5021857031763377  0.49381370106392103  1.0000
  C   C27       1.0  0.46629793348174076  0.5721172556303386  0.2616918695380477  1.0000
  C   C28       1.0  0.5337167499449648  0.4278831406380377  0.7383094977655278  1.0000
  C   C29       1.0  0.46452172095403915  0.5706654872951235  0.1905582021815064  1.0000
  C   C30       1.0  0.535509225897691  0.42934831220240005  0.8094422470327916  1.0000
  C   C31       1.0  0.4766438598064796  0.5060311799022372  0.14968352787281702  1.0000
  C   C32       1.0  0.523385423928687  0.4939859441458836  0.8503125059092155  1.0000
  C   C33       1.0  0.4869086510587835  0.44237077401254515  0.1819362004067884  1.0000
  C   C34       1.0  0.5228343035426449  0.49150613544323113  0.7064921652948544  1.0000
  C   C35       1.0  0.513107004981272  0.5576418498236394  0.8180544040891891  1.0000
  C   C36       1.0  0.48573689757259325  0.44320275050446156  0.2530858348896317  1.0000
  C   C37       1.0  0.5142630097335754  0.5568015316640212  0.7469043544787795  1.0000
  C   C38       1.0  0.5847750024636228  0.4821883061174006  0.0368721133114676  1.0000
  C   C39       1.0  0.4152525214194895  0.5178419028248484  0.963126579011956  1.0000
  C   C40       1.0  0.5993117964473315  0.47793460114608166  0.9652214778812224  1.0000
  C   C41       1.0  0.4007113509036628  0.5220956533096908  0.0347773425895141  1.0000
  C   C42       1.0  0.5143629228552129  0.4957650200889389  0.9263820457128773  1.0000
  I   I1        1.0  0.15029189672986829  0.5430204197465686  0.3969084611714281  1.0000
  I   I2        1.0  0.8496708765372603  0.45689891138658817  0.6030597114494043  1.0000
  I   I3        1.0  0.7106296843740483  0.20010586472275796  0.5774237709749742  1.0000
  I   I4        1.0  0.2893387441526939  0.7998607273776484  0.4225907872396775  1.0000
  I   I5        1.0  0.2659443030846091  0.26964885132510114  0.3945736646834065  1.0000
  I   I6        1.0  0.7340432361277321  0.7303590476314668  0.6054503008592818  1.0000
  N   N1        1.0  0.4727944734150214  0.30396461343854503  0.4833780989553348  1.0000
  N   N2        1.0  0.527214619865525  0.6960321592187952  0.5166376035940772  1.0000
  Cl  Cl1       1.0  0.3739288826324056  0.9169494315555227  0.6314664125452866  1.0000
  Cl  Cl2       1.0  0.6260270591378756  0.08302898192267351  0.36853877707869037  1.0000
  Cl  Cl3       1.0  0.7286092885977171  0.45369009107638913  0.9255898959882316  1.0000
  Cl  Cl4       1.0  0.2714423296244632  0.5463534497560117  0.0744081611473604  1.0000
  O   O1        1.0  0.4985200847143076  0.42658284488637577  0.597102138989655  1.0000
  O   O2        1.0  0.501487594394071  0.5734170073754613  0.4028968481583419  1.0000
  O   O3        1.0  0.5302601714228743  0.5540690403757792  0.6047976184356045  1.0000
  O   O4        1.0  0.4696794138062615  0.44591798805803506  0.3952058532063845  1.0000
  O   O5        1.0  0.663498394411903  0.44962278284965146  0.4770118856765748  1.0000
  O   O6        1.0  0.3364830332374638  0.5503805293457517  0.5229486010107679  1.0000
  O   O7        1.0  0.7037851468897643  0.5777510322719834  0.48174999807735464  1.0000
  O   O8        1.0  0.29623043051264364  0.42225552317552933  0.5182771955094978  1.0000
