data_image0
_chemical_formula_structural       Li4H16C26S4N4O8
_chemical_formula_sum              "Li4 H16 C26 S4 N4 O8"
_cell_length_a       5.167999758393838
_cell_length_b       10.096137106069826
_cell_length_c       14.631553212014344
_cell_angle_alpha    90.00015480858737
_cell_angle_beta     90.00003032765855
_cell_angle_gamma    94.56469139909491

_space_group_name_H-M_alt    "P 1"
_space_group_IT_number       1

loop_
  _space_group_symop_operation_xyz
  'x, y, z'

loop_
  _atom_site_type_symbol
  _atom_site_label
  _atom_site_symmetry_multiplicity
  _atom_site_fract_x
  _atom_site_fract_y
  _atom_site_fract_z
  _atom_site_occupancy
  Li  Li1       1.0  0.30763080683523475  0.0023778966067241015  0.5670430427163778  1.0000
  Li  Li2       1.0  0.6923636943358673  0.4976207465218891  0.0670439923063171  1.0000
  Li  Li3       1.0  0.6923671453896959  0.9976233960217372  0.4329557140126639  1.0000
  Li  Li4       1.0  0.30763214322209365  0.5023795667604392  0.932955447876054  1.0000
  H   H1        1.0  0.1458474664843052  0.0667761091954091  0.7593118071718263  1.0000
  H   H2        1.0  0.8541613347369006  0.4332251903960583  0.2593112998955931  1.0000
  H   H3        1.0  0.8541618991573826  0.9332241048293711  0.2406917337383518  1.0000
  H   H4        1.0  0.1458387321600725  0.5667770815880928  0.7406915575611989  1.0000
  H   H5        1.0  0.9592379534184589  0.34568897359697803  0.7150516339396518  1.0000
  H   H6        1.0  0.040757225847464405  0.1543122483116761  0.2150511375725941  1.0000
  H   H7        1.0  0.04075963463589012  0.6543103319734769  0.2849464393330692  1.0000
  H   H8        1.0  0.959240544291809  0.845688050787096  0.7849469357010647  1.0000
  H   H9        1.0  0.3199080281522981  0.21131245342307642  0.8892646689008641  1.0000
  H   H10       1.0  0.6800971835347696  0.288689394073117  0.38926522624998217  1.0000
  H   H11       1.0  0.6800960859929717  0.788690783723645  0.11073613819389289  1.0000
  H   H12       1.0  0.3199021550203227  0.7113089037936646  0.6107355808397158  1.0000
  H   H13       1.0  0.7517404421396493  0.20244657929144688  0.5904119451070855  1.0000
  H   H14       1.0  0.2482562232619756  0.29755313660662347  0.09041038794649839  1.0000
  H   H15       1.0  0.24826010065776677  0.7975477302798879  0.40958817852455803  1.0000
  H   H16       1.0  0.7517443898868876  0.7024521159570157  0.9095897356953699  1.0000
  C   C1        1.0  3.2071772722000007e-06  6.940517394599998e-06  6.7785999999999994e-12  1.0000
  C   C2        1.0  6.547996214612001e-06  0.4999979215350264  0.5000006985574572  1.0000
  C   C3        1.0  0.32487176587755323  0.13108470992811047  0.7522716197281838  1.0000
  C   C4        1.0  0.675132791075839  0.36891460282195954  0.2522709589737389  1.0000
  C   C5        1.0  0.6751281189308713  0.8689165685208879  0.2477278204554665  1.0000
  C   C6        1.0  0.3248723452261047  0.6310836524996332  0.7477284812075808  1.0000
  C   C7        1.0  0.6543733411407757  0.28922918968787314  0.8118751763087741  1.0000
  C   C8        1.0  0.3456253624004404  0.2107694103698918  0.3118762091896627  1.0000
  C   C9        1.0  0.3456151302559648  0.7107731673743701  0.18812426387481906  1.0000
  C   C10       1.0  0.654381160228759  0.7892258501845576  0.6881225475345545  1.0000
  C   C11       1.0  0.7717861309089713  0.3742166372902672  0.8887064808622753  1.0000
  C   C12       1.0  0.2282171470146181  0.12578522216121968  0.3887100670064001  1.0000
  C   C13       1.0  0.2282097066468154  0.6257836759879609  0.11129090895678219  1.0000
  C   C14       1.0  0.7717885355450136  0.8742160137507894  0.6112921069955062  1.0000
  C   C15       1.0  0.7766306547701871  0.2866545829592723  0.7266518339909354  1.0000
  C   C16       1.0  0.22337016476404153  0.2133456492569152  0.22665216537972546  1.0000
  C   C17       1.0  0.22336168179281662  0.7133477457426879  0.27334828964743  1.0000
  C   C18       1.0  0.7766347894529703  0.7866516125363602  0.7733472748006489  1.0000
  C   C19       1.0  0.42250437952660747  0.21003918218823256  0.8243945991698068  1.0000
  C   C20       1.0  0.5774982157326181  0.2899594395571797  0.3243944562668517  1.0000
  C   C21       1.0  0.5774860244529023  0.7899631606931905  0.17560484101394985  1.0000
  C   C22       1.0  0.42251005739515085  0.7100348132895035  0.675604983911029  1.0000
  C   C23       1.0  0.6623165033267924  0.20672717677754096  0.6578900810164753  1.0000
  C   C24       1.0  0.33768592086020277  0.29327177282322475  0.15788921603037653  1.0000
  C   C25       1.0  0.33768301731177536  0.7932721146148296  0.34210935916529184  1.0000
  C   C26       1.0  0.6623192154410235  0.7067264824969968  0.8421095406965049  1.0000
  S   S1        1.0  0.8040588577141464  0.10451707518499381  0.023059241991333593  1.0000
  S   S2        1.0  0.1959371185796002  0.395479390861503  0.5230596886627835  1.0000
  S   S3        1.0  0.19593263877420244  0.8954912288649622  0.9769395147436484  1.0000
  S   S4        1.0  0.804051940458308  0.6045050543375936  0.4769438522307893  1.0000
  N   N1        1.0  0.44078670195485614  0.12921325853451998  0.6700411244646813  1.0000
  N   N2        1.0  0.5592145437609375  0.3707897279382236  0.17003976209229416  1.0000
  N   N3        1.0  0.5592147512686552  0.8707860186811233  0.3299603660805701  1.0000
  N   N4        1.0  0.44078570521878646  0.6292135375701449  0.829961045002122  1.0000
  O   O1        1.0  0.6202155887618375  0.4005965225142917  0.9541253833619052  1.0000
  O   O2        1.0  0.37979362566075286  0.09940555592866933  0.4541262147761457  1.0000
  O   O3        1.0  0.3797865927992135  0.5994067288105214  0.0458740568237985  1.0000
  O   O4        1.0  0.620213625309617  0.900593678741785  0.5458739088607202  1.0000
  O   O5        1.0  0.008980987558878384  0.4127518747289398  0.8830522269771421  1.0000
  O   O6        1.0  0.9910182311151132  0.0872489969384631  0.38304973264376935  1.0000
  O   O7        1.0  0.991012735329207  0.5872474592017907  0.11694516284079978  1.0000
  O   O8        1.0  0.00898533677319341  0.9127512596192131  0.6169490240848319  1.0000
