data_image0
_chemical_formula_structural       Al2H10C20Cl2O10
_chemical_formula_sum              "Al2 H10 C20 Cl2 O10"
_cell_length_a       6.647054147793205
_cell_length_b       11.166454326364518
_cell_length_c       11.078430523757877
_cell_angle_alpha    81.82396503206449
_cell_angle_beta     73.12145365312601
_cell_angle_gamma    71.57122072660371

_space_group_name_H-M_alt    "P 1"
_space_group_IT_number       1

loop_
  _space_group_symop_operation_xyz
  'x, y, z'

loop_
  _atom_site_type_symbol
  _atom_site_label
  _atom_site_symmetry_multiplicity
  _atom_site_fract_x
  _atom_site_fract_y
  _atom_site_fract_z
  _atom_site_occupancy
  Al  Al1       1.0  0.4918265000707295  0.5006913078905838  0.5047359530557216  1.0000
  Al  Al2       1.0  0.9922864620487672  0.49873432081704283  0.5046845012788452  1.0000
  H   H1        1.0  0.2602899576125637  0.3660043251523746  0.6137587450393127  1.0000
  H   H2        1.0  0.7056279733656653  0.6506025164150985  0.43064067984329313  1.0000
  H   H3        1.0  0.8219293331389464  0.5689718487426204  0.8879550280702518  1.0000
  H   H4        1.0  0.15761585621147833  0.4361013959817371  0.1217949703953067  1.0000
  H   H5        1.0  0.6935270230225185  0.5717847873587658  0.12490145820694926  1.0000
  H   H6        1.0  0.28535820737111095  0.4338646317949256  0.8847803489471318  1.0000
  H   H7        1.0  0.27359767157624754  0.23273842714370818  0.3364247084203242  1.0000
  H   H8        1.0  0.47485232654079124  0.7646540641484236  0.3341644147747758  1.0000
  H   H9        1.0  0.7320627521011361  0.8857561637878604  0.5892780615396873  1.0000
  H   H10       1.0  0.6203243925794198  0.12236358207768207  0.5757465844488934  1.0000
  C   C1        1.0  0.8637770997644479  0.27426980551051366  0.48377401376235707  1.0000
  C   C2        1.0  0.6384914806831076  0.496820751655136  0.7330184578772148  1.0000
  C   C3        1.0  0.12805057452037977  0.7275773363331195  0.5040029412940541  1.0000
  C   C4        1.0  0.3445082374888884  0.5035828378383941  0.2767017462370802  1.0000
  C   C5        1.0  0.561490478623149  0.500442221877215  0.873417580584146  1.0000
  C   C6        1.0  0.41919168369052057  0.5033915622782957  0.13621270594549628  1.0000
  C   C7        1.0  0.6773122183447456  0.5396921448207408  0.9402382255939726  1.0000
  C   C8        1.0  0.3024785520825403  0.4650364851176008  0.06940688429423154  1.0000
  C   C9        1.0  0.6063904339348838  0.5411711689098482  0.0712622800310925  1.0000
  C   C10       1.0  0.3732408491960724  0.46372568888699556  0.9384789316599793  1.0000
  C   C11       1.0  0.9402327367336981  0.13431637290690898  0.4738830068801647  1.0000
  C   C12       1.0  0.160050621375845  0.0677500190005986  0.4103407920607012  1.0000
  C   C13       1.0  0.7884241117368801  0.06891589821255908  0.5318466726438018  1.0000
  C   C14       1.0  0.316278287320493  0.13022997455307467  0.3391050296520818  1.0000
  C   C15       1.0  0.522406892286412  0.06347445505802798  0.2719908586528348  1.0000
  C   C16       1.0  0.06478496346718968  0.8680940540905769  0.48411184622706577  1.0000
  C   C17       1.0  0.8506176182256265  0.9362307539720831  0.5384207083092108  1.0000
  C   C18       1.0  0.2213330231128696  0.9320902863903623  0.4131793706678053  1.0000
  C   C19       1.0  0.43156008714010585  0.8664249686777837  0.340134329313841  1.0000
  C   C20       1.0  0.580303025538271  0.9293665153045649  0.2715231178244935  1.0000
  Cl  Cl1       1.0  0.7061223922465842  0.1437604271001334  0.1872311273742682  1.0000
  Cl  Cl2       1.0  0.8336501956874186  0.8439726365242777  0.18489685928197727  1.0000
  O   O1        1.0  0.6698901435628101  0.3306005479784062  0.47408897993408067  1.0000
  O   O2        1.0  0.8278329054406722  0.5109683812111784  0.6798042183827633  1.0000
  O   O3        1.0  0.9917737083307472  0.6725217390112874  0.4958825649192136  1.0000
  O   O4        1.0  0.47040128192388403  0.5254095032011322  0.33313864628465945  1.0000
  O   O5        1.0  0.3128058011703701  0.6731465202476129  0.5282087729324019  1.0000
  O   O6        1.0  0.1598141818101838  0.48341765668159525  0.3302882588421241  1.0000
  O   O7        1.0  0.9931605945017878  0.32654990967501624  0.5061970183972165  1.0000
  O   O8        1.0  0.5091571630194096  0.47823249197980294  0.6768588318024698  1.0000
  O   O9        1.0  0.2471446562657108  0.44149620600970235  0.5581102085545879  1.0000
  O   O10       1.0  0.7362788280858865  0.5604527680066341  0.4518893084855762  1.0000
