data_image0
_chemical_formula_structural       Cd3H24C28N26
_chemical_formula_sum              "Cd3 H24 C28 N26"
_cell_length_a       9.487494216242593
_cell_length_b       10.63718292140318
_cell_length_c       10.882016291991308
_cell_angle_alpha    62.157398773967806
_cell_angle_beta     79.49654431690989
_cell_angle_gamma    71.30888451368718

_space_group_name_H-M_alt    "P 1"
_space_group_IT_number       1

loop_
  _space_group_symop_operation_xyz
  'x, y, z'

loop_
  _atom_site_type_symbol
  _atom_site_label
  _atom_site_symmetry_multiplicity
  _atom_site_fract_x
  _atom_site_fract_y
  _atom_site_fract_z
  _atom_site_occupancy
  Cd  Cd1       1.0  7.677941412e-07  1.1188716513e-06  2.7290055019999994e-07  1.0000
  Cd  Cd2       1.0  0.6970789062247388  0.8149451497035685  0.1040485940171721  1.0000
  Cd  Cd3       1.0  0.3029170973926796  0.1850575931947063  0.8959542709595066  1.0000
  H   H1        1.0  0.43572410370492065  0.6499815303263503  0.8123438319355926  1.0000
  H   H2        1.0  0.5642824735975084  0.35001780675363386  0.18765622022429793  1.0000
  H   H3        1.0  0.6708054768130084  0.07839937646313899  0.5217059097975891  1.0000
  H   H4        1.0  0.3291937381076052  0.9216033728688943  0.47829736817484286  1.0000
  H   H5        1.0  0.8522961169178914  0.968391543784051  0.5654331200633893  1.0000
  H   H6        1.0  0.1477071169183759  0.03161223718040419  0.4345662861826439  1.0000
  H   H7        1.0  0.8014316573770373  0.8922503363078531  0.8026513876514939  1.0000
  H   H8        1.0  0.1985661950871318  0.1077535026271832  0.19735067252493366  1.0000
  H   H9        1.0  0.5519792929821818  0.7938261441882873  0.5814644894405204  1.0000
  H   H10       1.0  0.44803031452793357  0.2061698907137455  0.418537559234579  1.0000
  H   H11       1.0  0.5013898132779032  0.646845322035105  0.02642823342905127  1.0000
  H   H12       1.0  0.49860882290774095  0.3531595983023834  0.9735722765988438  1.0000
  H   H13       1.0  0.7351204116271575  0.6311328184414933  0.4371012589534046  1.0000
  H   H14       1.0  0.2648975994990792  0.3688598750466099  0.5629010438310613  1.0000
  H   H15       1.0  0.9193745083569876  0.16721482702728713  0.5479292317300732  1.0000
  H   H16       1.0  0.080620203326383  0.8327809655250888  0.45206055902002623  1.0000
  H   H17       1.0  0.8197508305688075  0.4922507596602088  0.1253963368515656  1.0000
  H   H18       1.0  0.18023502526391869  0.5077618564029862  0.8745988817066672  1.0000
  H   H19       1.0  0.7910318511143402  0.4655841978128236  0.6745691634970468  1.0000
  H   H20       1.0  0.20897683139710924  0.5344073534020666  0.32543146122333155  1.0000
  H   H21       1.0  0.945362606638831  0.31066029421094754  0.6998835359010439  1.0000
  H   H22       1.0  0.054641155849289164  0.6893256854805756  0.30011680201739205  1.0000
  H   H23       1.0  0.9099644551388267  0.22746450410534888  0.2961294183464388  1.0000
  H   H24       1.0  0.09002267761878359  0.7725434889279512  0.7038576632327601  1.0000
  C   C1        1.0  0.5164080682807396  0.7066971797236192  0.8054715060762375  1.0000
  C   C2        1.0  0.48359803059503287  0.29329995298198946  0.19452965715537116  1.0000
  C   C3        1.0  0.7372284770225049  0.2610568176554721  0.7548690149139219  1.0000
  C   C4        1.0  0.2627774885397258  0.7389368940308357  0.24512826268989577  1.0000
  C   C5        1.0  0.7655809738764673  0.950165406202899  0.41147509117472947  1.0000
  C   C6        1.0  0.23441853837529433  0.04983623889180679  0.5885286592454333  1.0000
  C   C7        1.0  0.7447170768814644  0.9668675278572179  0.5427711126385757  1.0000
  C   C8        1.0  0.2552848868430146  0.03313298606499869  0.4572318663522522  1.0000
  C   C9        1.0  0.6819898283817806  0.8597601394318131  0.6726538069124784  1.0000
  C   C10       1.0  0.3180142655932769  0.1402404037590443  0.32735066277491137  1.0000
  C   C11       1.0  0.7183641671147569  0.8428080491348806  0.7992314278799456  1.0000
  C   C12       1.0  0.2816362212031294  0.157190320717028  0.2007755629324989  1.0000
  C   C13       1.0  0.5804732560625182  0.7866308267828187  0.6775105787070002  1.0000
  C   C14       1.0  0.4195338999748799  0.21336633929170284  0.322492241397434  1.0000
  C   C15       1.0  0.5533379882190347  0.7033247006501783  0.9251629100340465  1.0000
  C   C16       1.0  0.4466628021081788  0.29668019275216295  0.07483635611678358  1.0000
  C   C17       1.0  0.7774792543874083  0.5381894401819168  0.4104777945734808  1.0000
  C   C18       1.0  0.22252501953258985  0.46180654028312074  0.5895214388847589  1.0000
  C   C19       1.0  0.8299045110974246  0.39453235487595606  0.5124146060050238  1.0000
  C   C20       1.0  0.17010006811738518  0.6054625026171507  0.48758418837640954  1.0000
  C   C21       1.0  0.8783903042399859  0.2809447797683332  0.47055127733848656  1.0000
  C   C22       1.0  0.12160651380298065  0.7190510982564716  0.5294427386817943  1.0000
  C   C23       1.0  0.8231156313423966  0.4613255913744467  0.2359372066135208  1.0000
  C   C24       1.0  0.17687757094481774  0.5386836499058847  0.7640566091812527  1.0000
  C   C25       1.0  0.831089962145981  0.3623289834658934  0.6630717425300926  1.0000
  C   C26       1.0  0.16891618451175824  0.6376680368321246  0.33692395155426874  1.0000
  C   C27       1.0  0.8749858570878359  0.314121057843245  0.3311286983479035  1.0000
  C   C28       1.0  0.12500185440473643  0.6858847641845925  0.6688611511758396  1.0000
  N   N1        1.0  0.7748179404384958  0.5708366036609647  0.275464912738549  1.0000
  N   N2        1.0  0.2251793253270478  0.42916942501413746  0.7245352910178722  1.0000
  N   N3        1.0  0.7425678732284737  0.90773336380326  0.24531850643345607  1.0000
  N   N4        1.0  0.2574300875076716  0.0922660810173497  0.7546865212346954  1.0000
  N   N5        1.0  0.8511345024499665  0.9731102236452499  0.20980393700683916  1.0000
  N   N6        1.0  0.14886484463361435  0.026888075368553598  0.790199573883697  1.0000
  N   N7        1.0  0.8687674790690634  0.0014837858426801995  0.3122550548479096  1.0000
  N   N8        1.0  0.13123206503735224  0.9985177843136341  0.6877450494740883  1.0000
  N   N9        1.0  0.6858789472481704  0.8916031787767124  0.3720890555786269  1.0000
  N   N10       1.0  0.3141211596658806  0.10839625784333859  0.6279156397370044  1.0000
  N   N11       1.0  0.5940641959046573  0.2845863939456805  0.7333068012004557  1.0000
  N   N12       1.0  0.4059390049263883  0.715409590619636  0.2666925984340479  1.0000
  N   N13       1.0  0.7836086065124236  0.13295688776491227  0.8684995319828841  1.0000
  N   N14       1.0  0.21638966748219704  0.8670414153491706  0.13150414508390906  1.0000
  N   N15       1.0  0.6665637402661629  0.07664991680261579  0.9181970387615406  1.0000
  N   N16       1.0  0.33343041450449823  0.9233517300588826  0.08180663101538953  1.0000
  N   N17       1.0  0.554261623354371  0.1676441221949219  0.83623764151919  1.0000
  N   N18       1.0  0.44573607190528  0.8323563519246163  0.16376326760305912  1.0000
  N   N19       1.0  0.9491913727899329  0.7926906910322984  0.019012934615126632  1.0000
  N   N20       1.0  0.05081134165079255  0.20730310789323877  0.980988487615647  1.0000
  N   N21       1.0  0.04882280798746308  0.6812946196823617  0.039821424527318114  1.0000
  N   N22       1.0  0.9511617618061478  0.3187147668077941  0.9601791898247923  1.0000
  N   N23       1.0  0.1457488558875184  0.574407632718639  0.058938131560850614  1.0000
  N   N24       1.0  0.8542530907590588  0.4255850473352539  0.941063017769366  1.0000
  N   N25       1.0  0.6542639918409207  0.7693809634881108  0.9218795257469304  1.0000
  N   N26       1.0  0.345735520410841  0.23062068160659513  0.07812422467323193  1.0000
