data_image0
_chemical_formula_structural       Zn2H36C56S2N2O14
_chemical_formula_sum              "Zn2 H36 C56 S2 N2 O14"
_cell_length_a       10.982436519791344
_cell_length_b       18.302830185445753
_cell_length_c       19.452024474801963
_cell_angle_alpha    89.61590655543156
_cell_angle_beta     88.46578457845851
_cell_angle_gamma    90.80829291730254

_space_group_name_H-M_alt    "P 1"
_space_group_IT_number       1

loop_
  _space_group_symop_operation_xyz
  'x, y, z'

loop_
  _atom_site_type_symbol
  _atom_site_label
  _atom_site_symmetry_multiplicity
  _atom_site_fract_x
  _atom_site_fract_y
  _atom_site_fract_z
  _atom_site_occupancy
  Zn  Zn1       1.0  0.5108272112555668  0.42215447887472385  0.4998535778354096  1.0000
  Zn  Zn2       1.0  0.5156225285893116  0.5800761954810059  0.497929848787166  1.0000
  H   H1        1.0  0.2675343982506604  0.8082741616820855  0.6362797048393674  1.0000
  H   H2        1.0  0.3615267881476782  0.8303400093365313  0.4261977587902948  1.0000
  H   H3        1.0  0.3839521060318489  0.17054096803187954  0.41475136062463486  1.0000
  H   H4        1.0  0.6343123076259404  0.8316424770446462  0.5827336488034547  1.0000
  H   H5        1.0  0.3959128383310144  0.3072920958860976  0.41606156842185277  1.0000
  H   H6        1.0  0.6360137466091232  0.6956811003580868  0.574795802722825  1.0000
  H   H7        1.0  0.3041194302115215  0.06694587116419372  0.48259291076730904  1.0000
  H   H8        1.0  0.6877599208192606  0.9360125167934118  0.5264806788705911  1.0000
  H   H9        1.0  0.30460653668328064  0.9320495583463005  0.48344700330180496  1.0000
  H   H10       1.0  0.686334995193441  0.07085699915365501  0.5271763030555121  1.0000
  H   H11       1.0  0.3256452496591891  0.6846766073413735  0.6786436566119818  1.0000
  H   H12       1.0  0.7673310172824516  0.18217320761586114  0.385642137826963  1.0000
  H   H13       1.0  0.7639524042104426  0.2940590180332094  0.3121280181003954  1.0000
  H   H14       1.0  0.23460114777282123  0.5738885517770671  0.6289582373605214  1.0000
  H   H15       1.0  0.8448720609641429  0.4120120250116629  0.355597255838056  1.0000
  H   H16       1.0  0.030745999251713806  0.7067740727909425  0.4903295208850835  1.0000
  H   H17       1.0  0.9398179895594725  0.3065548013294546  0.5446289241586726  1.0000
  H   H18       1.0  0.11904931095600804  0.8186568590134727  0.5420391564208629  1.0000
  H   H19       1.0  0.8573862163718788  0.18868614707864145  0.5019396426996537  1.0000
  H   H20       1.0  0.8893193807339516  0.6093511684414853  0.5335744690076893  1.0000
  H   H21       1.0  0.12981723700120543  0.3919099057688983  0.474515907141317  1.0000
  H   H22       1.0  0.6564536778672974  0.5912135703471865  0.705452000194292  1.0000
  H   H23       1.0  0.5782000712336882  0.3791482705448744  0.9358181149217302  1.0000
  H   H24       1.0  0.6395376292921001  0.406772809016566  0.2922952320535828  1.0000
  H   H25       1.0  0.690292732787178  0.5874323872508356  0.8312953490522547  1.0000
  H   H26       1.0  0.677845122466465  0.40881390097263903  0.1654912759152296  1.0000
  H   H27       1.0  0.42943941198523566  0.40975174759356053  0.8514599874969663  1.0000
  H   H28       1.0  0.4138647703232081  0.5795095991329621  0.1470023213632246  1.0000
  H   H29       1.0  0.3052025180988737  0.4269164222286932  0.6156733666692134  1.0000
  H   H30       1.0  0.29756873397169414  0.5663426279575532  0.3891189457073736  1.0000
  H   H31       1.0  0.5723433067127033  0.6142551452526063  0.06182505269616459  1.0000
  H   H32       1.0  0.5716007503001209  0.37888270751827247  0.0629165176292474  1.0000
  H   H33       1.0  0.577559399271685  0.61452878230007  0.9347677314923359  1.0000
  H   H34       1.0  0.6057827279488635  0.3074625292584231  0.5896602748311821  1.0000
  H   H35       1.0  0.37261659889248483  0.6955869035459799  0.4261334406342955  1.0000
  H   H36       1.0  0.6070755941575072  0.1710005677285196  0.5946309206252067  1.0000
  C   C1        1.0  0.5042398194077721  0.4952808499270419  0.368148361669796  1.0000
  C   C2        1.0  0.6127874749871509  0.4463430231559968  0.1888788609981944  1.0000
  C   C3        1.0  0.5645730963150443  0.49722573813079424  0.850556428050858  1.0000
  C   C4        1.0  0.5519032269345986  0.49608594206924306  0.1471561848384297  1.0000
  C   C5        1.0  0.4841392668777616  0.44768695096964006  0.8197322179584461  1.0000
  C   C6        1.0  0.46828751399623775  0.5437159639368045  0.1785023759671205  1.0000
  C   C7        1.0  0.46756038067696454  0.44891920701333293  0.7489494573749198  1.0000
  C   C8        1.0  0.4491839515614943  0.543236014886972  0.2496584356467935  1.0000
  C   C9        1.0  0.5300129023518495  0.5007800680180026  0.7070974091798589  1.0000
  C   C10       1.0  0.5124447833888511  0.49455477399168046  0.2912627376186308  1.0000
  C   C11       1.0  0.5765774005821953  0.43084268443872287  0.9633844599051571  1.0000
  C   C12       1.0  0.5205227522021403  0.5026390079021612  0.6305192906763253  1.0000
  C   C13       1.0  0.5731994934613241  0.5625303943887516  0.0342799331791923  1.0000
  C   C14       1.0  0.5741463690294424  0.43075872815467875  0.0349236260111425  1.0000
  C   C15       1.0  0.5775168331159792  0.5626481407724528  0.9627383771320339  1.0000
  C   C16       1.0  0.27234496319567114  0.5019093254569499  0.5068098463758872  1.0000
  C   C17       1.0  0.7469660566527311  0.5034294920504507  0.49381003630201553  1.0000
  C   C18       1.0  0.5686129278745399  0.4965344215724701  0.0716189538302245  1.0000
  C   C19       1.0  0.5755004866742298  0.4967899194348321  0.92602023014053  1.0000
  C   C20       1.0  0.5598884417089991  0.2745905727435984  0.5514659152932069  1.0000
  C   C21       1.0  0.4280987607518441  0.7275847588725456  0.46063081243980963  1.0000
  C   C22       1.0  0.5596829883919129  0.19879172313387272  0.5537393988013264  1.0000
  C   C23       1.0  0.8834478805187234  0.5003760583239655  0.49552451099192035  1.0000
  C   C24       1.0  0.42244535319940013  0.8032710729723362  0.4612109451907714  1.0000
  C   C25       1.0  0.49576698819051057  0.15898852474578726  0.5046738885754465  1.0000
  C   C26       1.0  0.4976192895577611  0.8435399136859588  0.5045798588007814  1.0000
  C   C27       1.0  0.43375918205423153  0.19860334170327587  0.45471821638199833  1.0000
  C   C28       1.0  0.5755169122913061  0.8038523002960647  0.546706597370786  1.0000
  C   C29       1.0  0.43969195231836283  0.274338238629973  0.4549824889222763  1.0000
  C   C30       1.0  0.5764979654268885  0.7282506421719148  0.5431592783638024  1.0000
  C   C31       1.0  0.38863202468633773  0.038238682208302115  0.49165291597145  1.0000
  C   C32       1.0  0.6027485873242427  0.964466380094571  0.5183095463879254  1.0000
  C   C33       1.0  0.38903387347451  0.962274954459552  0.49210514073099176  1.0000
  C   C34       1.0  0.13657687317641634  0.5027272448362651  0.5093827220489047  1.0000
  C   C35       1.0  0.6021537975876826  0.0403722914494153  0.5184837328841995  1.0000
  C   C36       1.0  0.49616825984799834  0.9240338224070547  0.505295266118587  1.0000
  C   C37       1.0  0.4951449179279166  0.07847716453063922  0.5050349906707012  1.0000
  C   C38       1.0  0.2605707320554417  0.6901483673339684  0.6376457017776431  1.0000
  C   C39       1.0  0.8017791259557259  0.2967438713389257  0.3633829050597939  1.0000
  C   C40       1.0  0.21007418356613533  0.6273988650404548  0.6090259634636794  1.0000
  C   C41       1.0  0.8476163611109016  0.3628743646081675  0.3875260776529004  1.0000
  C   C42       1.0  0.12688192551028274  0.6324967192092218  0.5556605050595776  1.0000
  C   C43       1.0  0.896596862461671  0.36735688221994434  0.4533154343302783  1.0000
  C   C44       1.0  0.0943390694210891  0.7021717016663802  0.53223628015256  1.0000
  C   C45       1.0  0.9498551146486209  0.43689335073125335  0.4792071489184835  1.0000
  C   C46       1.0  0.9010960203208853  0.3036855059965547  0.49360420058813753  1.0000
  C   C47       1.0  0.14460265181701  0.7649233688649492  0.5611254338760858  1.0000
  C   C48       1.0  0.8543100311229139  0.2374865853547164  0.46952502502771415  1.0000
  C   C49       1.0  0.22801477560533107  0.7591752930525646  0.6138836604852216  1.0000
  C   C50       1.0  0.804011787680274  0.23377064567308287  0.4044898654349467  1.0000
  C   C51       1.0  0.9444880767313892  0.5626736685534015  0.5190082294454967  1.0000
  C   C52       1.0  0.07596865463384012  0.439622976740566  0.48770894007290627  1.0000
  C   C53       1.0  0.07046124663361301  0.5659768190458437  0.5265557000330787  1.0000
  C   C54       1.0  0.6083136067947238  0.5509873383985139  0.7380630820216254  1.0000
  C   C55       1.0  0.5922894873409561  0.4452934915958906  0.25975252504039054  1.0000
  C   C56       1.0  0.6266248268589223  0.5489392049394868  0.8085306510610408  1.0000
  S   S1        1.0  0.35739122042567584  0.3842997260492069  0.7173825882328089  1.0000
  S   S2        1.0  0.33536400953487094  0.6042830463045947  0.2827493630648092  1.0000
  N   N1        1.0  0.5016393296304004  0.3116530773760219  0.5025892893112172  1.0000
  N   N2        1.0  0.5045242670880726  0.6905568584387894  0.5005141883943125  1.0000
  O   O1        1.0  0.4720180743119188  0.436159056478836  0.3988013167035618  1.0000
  O   O2        1.0  0.2761778977882585  0.36669450189951663  0.7744533397485185  1.0000
  O   O3        1.0  0.2814029185191771  0.4323649853332159  0.6658596055697785  1.0000
  O   O4        1.0  0.39234927054496893  0.6676759279070625  0.3127017787925794  1.0000
  O   O5        1.0  0.24875333490482632  0.6135147496052938  0.2294320278565323  1.0000
  O   O6        1.0  0.2673305573778038  0.5571097176995181  0.3416737011467674  1.0000
  O   O7        1.0  0.49159282464907533  0.5626341325464994  0.6023666784854314  1.0000
  O   O8        1.0  0.5343392416330702  0.5552009671657033  0.39583327269904345  1.0000
  O   O9        1.0  0.5447918191422971  0.4431872731970401  0.6001874142216579  1.0000
  O   O10       1.0  0.3257047846560326  0.4457609547900675  0.5306018691326599  1.0000
  O   O11       1.0  0.6982133074076132  0.564330225391636  0.5090619153776998  1.0000
  O   O12       1.0  0.32822721701155194  0.5561195939769734  0.4780505666723514  1.0000
  O   O13       1.0  0.6897771008980698  0.4452363877408986  0.4785446079648423  1.0000
  O   O14       1.0  0.4175369567148551  0.3263610666964283  0.6804082427837558  1.0000
