data_image0
_chemical_formula_structural       Cu5Mo6As6H40C28N24O30
_chemical_formula_sum              "Cu5 Mo6 As6 H40 C28 N24 O30"
_cell_length_a       9.28525456473984
_cell_length_b       13.01503448391391
_cell_length_c       14.57572154036365
_cell_angle_alpha    101.15329160480232
_cell_angle_beta     90.91098140872411
_cell_angle_gamma    109.89636766810253

_space_group_name_H-M_alt    "P 1"
_space_group_IT_number       1

loop_
  _space_group_symop_operation_xyz
  'x, y, z'

loop_
  _atom_site_type_symbol
  _atom_site_label
  _atom_site_symmetry_multiplicity
  _atom_site_fract_x
  _atom_site_fract_y
  _atom_site_fract_z
  _atom_site_occupancy
  Cu  Cu1       1.0  0.5980902540068271  0.42541041675933405  0.4570339014727195  1.0000
  Cu  Cu2       1.0  0.401908500888851  0.5745921510526557  0.5429665011225848  1.0000
  Cu  Cu3       1.0  0.8240894555471242  0.8870690315474333  0.9162052868344899  1.0000
  Cu  Cu4       1.0  0.17591441636877644  0.11293522323482105  0.08379682341673339  1.0000
  Cu  Cu5       1.0  0.9999983055470094  0.9999989588963488  0.5000004676068456  1.0000
  Mo  Mo1       1.0  0.8610327166067079  0.7233238952334132  0.5032000136863812  1.0000
  Mo  Mo2       1.0  0.13896257386443267  0.27667365986432196  0.4968015573332919  1.0000
  Mo  Mo3       1.0  0.908494688365792  0.8044873189571503  0.29580541288319745  1.0000
  Mo  Mo4       1.0  0.091503432971372  0.19550940417319404  0.7041946693821186  1.0000
  Mo  Mo5       1.0  0.9722577122931712  0.9209777020304346  0.704569706519571  1.0000
  Mo  Mo6       1.0  0.027739735000160685  0.07901985849073868  0.2954318851091884  1.0000
  As  As1       1.0  0.6673273149904019  0.967584333479607  0.36909988532805466  1.0000
  As  As2       1.0  0.33266705616959763  0.0324090421847671  0.6309002756983302  1.0000
  As  As3       1.0  0.757109223407852  0.16305976803720057  0.5637770923058196  1.0000
  As  As4       1.0  0.24288889524996876  0.8369369530522942  0.43622230351037655  1.0000
  As  As5       1.0  0.6361170881093725  0.8940195122616001  0.5737167701880208  1.0000
  As  As6       1.0  0.3638814375950616  0.10597805097128798  0.42628483174529197  1.0000
  H   H1        1.0  0.9037437682403676  0.5165755268831944  0.5979561239870533  1.0000
  H   H2        1.0  0.09625822456793995  0.4834270511048048  0.40204499597101057  1.0000
  H   H3        1.0  0.7529849011593869  0.04500891968169189  0.09040700960417777  1.0000
  H   H4        1.0  0.2470256757730238  0.9550003600316754  0.9095953360345631  1.0000
  H   H5        1.0  0.3451989313034786  0.32412679891209006  0.28286500316200147  1.0000
  H   H6        1.0  0.6547969739707754  0.6758765865813459  0.7171320830437862  1.0000
  H   H7        1.0  0.11626566865908217  0.22173542062268584  0.9193442750745502  1.0000
  H   H8        1.0  0.8837395486651332  0.7782671573370692  0.08065413000065286  1.0000
  H   H9        1.0  0.44476946528919825  0.32155081301470995  0.6253005972291987  1.0000
  H   H10       1.0  0.5552310474200935  0.678450924199872  0.3746996792054559  1.0000
  H   H11       1.0  0.4713560994334429  0.31381319232415444  0.7922218647330083  1.0000
  H   H12       1.0  0.5286437311939878  0.6861893761587082  0.20777786171772306  1.0000
  H   H13       1.0  0.6323763236694475  0.4177701557313114  0.8632689955580515  1.0000
  H   H14       1.0  0.36762554784487367  0.5822299148650102  0.13673100794621004  1.0000
  H   H15       1.0  0.6548677982547914  0.199851772221372  0.7503053361021869  1.0000
  H   H16       1.0  0.3451270744523639  0.8001449325695729  0.24969128300387658  1.0000
  H   H17       1.0  0.7772439358836181  0.2899835257002579  0.848368811173408  1.0000
  H   H18       1.0  0.22275269731648709  0.7100123505341288  0.15162836822111808  1.0000
  H   H19       1.0  0.5298881322566018  0.23895613728920045  0.9431362827192726  1.0000
  H   H20       1.0  0.4701090212460669  0.7610430823577018  0.05686215989881296  1.0000
  H   H21       1.0  0.4429716377705972  0.13161019372062552  0.8435346285608459  1.0000
  H   H22       1.0  0.5570272762250282  0.8683881973697184  0.15646437434570967  1.0000
  H   H23       1.0  0.6879666108708308  0.0220750648810579  0.7986242458703783  1.0000
  H   H24       1.0  0.31203016237867587  0.9779233330309437  0.20137885512183115  1.0000
  H   H25       1.0  0.8046572907397831  0.5451952700455962  0.3095567587163614  1.0000
  H   H26       1.0  0.19534202762311972  0.4548039611472915  0.6904437638581837  1.0000
  H   H27       1.0  0.7949892634929654  0.5906596119853944  0.13736526970249227  1.0000
  H   H28       1.0  0.20501624226321977  0.4093413027669328  0.8626349114851448  1.0000
  H   H29       1.0  0.6217013787243887  0.5126303825001983  0.0637363139279614  1.0000
  H   H30       1.0  0.37830412703179656  0.48737053225212884  0.9362638672596757  1.0000
  H   H31       1.0  0.8133253936425007  0.4393611016875596  0.9981626509773204  1.0000
  H   H32       1.0  0.18667312134454747  0.5606364533819387  0.0018362051594919882  1.0000
  H   H33       1.0  0.698574093354168  0.3379023167148603  0.058386949458494486  1.0000
  H   H34       1.0  0.30142885925059193  0.6620977586340331  0.9416137507994333  1.0000
  H   H35       1.0  0.011659027667498226  0.5193790632725451  0.13371975952343002  1.0000
  H   H36       1.0  0.9883429517440803  0.4806235045112074  0.8662779281890136  1.0000
  H   H37       1.0  0.9008824169573018  0.42399483238472874  0.1981666496302806  1.0000
  H   H38       1.0  0.09912132562657658  0.5760069088833148  0.8018322848197597  1.0000
  H   H39       1.0  0.028196986215036166  0.28256898533499  0.20408680617359917  1.0000
  H   H40       1.0  0.9718071607361196  0.7174335960355903  0.795913647944438  1.0000
  C   C1        1.0  0.8018130835098916  0.46982978648146917  0.6276648560277562  1.0000
  C   C2        1.0  0.1981893056276434  0.5301736254865191  0.37233572425093087  1.0000
  C   C3        1.0  0.7162861951941154  0.05663420846818921  0.022982872081165295  1.0000
  C   C4        1.0  0.28372210630146805  0.9433725604709196  0.9770190229437998  1.0000
  C   C5        1.0  0.45347342346858  0.3799157581475185  0.2662733499053188  1.0000
  C   C6        1.0  0.5465227648789507  0.6200859600567911  0.7337241395146561  1.0000
  C   C7        1.0  0.07945165761505985  0.25560238176625205  0.9851460977050831  1.0000
  C   C8        1.0  0.9205512571837388  0.7444043776959576  0.014857118695403007  1.0000
  C   C9        1.0  0.5674704828584323  0.3697540608494804  0.6382581666481996  1.0000
  C   C10       1.0  0.4325300325302023  0.6302476784059508  0.36174279623557465  1.0000
  C   C11       1.0  0.597721363993955  0.34690869422350085  0.8026929349754751  1.0000
  C   C12       1.0  0.40227982275915497  0.6530922056002523  0.19730583209572922  1.0000
  C   C13       1.0  0.657104751965022  0.2548278585882215  0.8181797422186887  1.0000
  C   C14       1.0  0.34289120719125765  0.7451688550369865  0.1818189465392877  1.0000
  C   C15       1.0  0.5542538532689677  0.18597641458661945  0.8816746128079982  1.0000
  C   C16       1.0  0.44574181745534236  0.8140219622460164  0.11832229983755126  1.0000
  C   C17       1.0  0.6841135713854313  0.0426565932570213  0.8741060062115193  1.0000
  C   C18       1.0  0.3158874940736921  0.9573417991750616  0.12589164440587547  1.0000
  C   C19       1.0  0.688379839630855  0.4912543584165263  0.28225449607187153  1.0000
  C   C20       1.0  0.31161907704411357  0.5087440347146668  0.7177451932838108  1.0000
  C   C21       1.0  0.7080352931336407  0.5072588989975273  0.11295799388500427  1.0000
  C   C22       1.0  0.291964025229255  0.49274033219536034  0.8870425286895481  1.0000
  C   C23       1.0  0.7814273458715135  0.42348942741249124  0.0675661339706224  1.0000
  C   C24       1.0  0.21857440702816425  0.5765081378330094  0.9324334395289566  1.0000
  C   C25       1.0  0.9251830239760392  0.4355196131115591  0.12675930355401727  1.0000
  C   C26       1.0  0.07481992327002715  0.5644804581556356  0.8732400238056639  1.0000
  C   C27       1.0  0.03756077646266216  0.2851066211525648  0.13048586986433713  1.0000
  C   C28       1.0  0.9624455299900205  0.7148959676823097  0.8695152913119129  1.0000
  N   N1        1.0  0.6598532392536356  0.4200186859980236  0.5780555231108123  1.0000
  N   N2        1.0  0.34014846780204516  0.5799855572382526  0.42194450718395143  1.0000
  N   N3        1.0  0.6511426429000268  0.38970044158212147  0.7197215372190369  1.0000
  N   N4        1.0  0.3488589428616676  0.6103012942624844  0.28027737662191027  1.0000
  N   N5        1.0  0.6270371155783466  0.11806645485803097  0.9197839246602509  1.0000
  N   N6        1.0  0.37296124298809713  0.8819352789739624  0.08021701761443716  1.0000
  N   N7        1.0  0.7414773345441219  0.0015675179893860987  0.9379525924240181  1.0000
  N   N8        1.0  0.258529093202547  0.9984375782371514  0.06204968520604131  1.0000
  N   N9        1.0  0.5792375209905031  0.4331752469587897  0.33054555478953057  1.0000
  N   N10       1.0  0.4207600288414071  0.566824806668116  0.6694523481491713  1.0000
  N   N11       1.0  0.6288809121270446  0.47334714520041393  0.19355121727396343  1.0000
  N   N12       1.0  0.3711194792882607  0.5266520846224977  0.8064479427068817  1.0000
  N   N13       1.0  0.09391900938363308  0.22221153257304851  0.06739835973589689  1.0000
  N   N14       1.0  0.9060859302259843  0.7777927167575315  0.9326010150233726  1.0000
  N   N15       1.0  0.9921747836828557  0.352243715209461  0.0871298186562512  1.0000
  N   N16       1.0  0.00782975423884107  0.6477596960594312  0.9128687228841554  1.0000
  N   N17       1.0  0.8006143843390986  0.4534202080838837  0.7146401476942968  1.0000
  N   N18       1.0  0.19938464827117025  0.5465806883572811  0.28535928521694837  1.0000
  N   N19       1.0  0.6470043272513949  0.1284908842370385  0.01457954122820129  1.0000
  N   N20       1.0  0.35299829911542685  0.8715175384325987  0.9854218990598508  1.0000
  N   N21       1.0  0.4796962083794725  0.40200679162188635  0.181805364868957  1.0000
  N   N22       1.0  0.5203050969882881  0.5979966135526952  0.8181938322069369  1.0000
  N   N23       1.0  0.018032178987652962  0.33494355719016505  0.9946021598629213  1.0000
  N   N24       1.0  0.9819744051796206  0.6650573602738845  0.005398031629262297  1.0000
  O   O1        1.0  0.6905981405562543  0.10402429071254456  0.43973245277960155  1.0000
  O   O2        1.0  0.3093947558634155  0.8959682482601111  0.5602682376216137  1.0000
  O   O3        1.0  0.9486058398301153  0.1572462901499705  0.562903867480905  1.0000
  O   O4        1.0  0.051391205775296066  0.8427504323095079  0.4370968909289913  1.0000
  O   O5        1.0  0.6655168149444038  0.0416771774904419  0.6166530066788806  1.0000
  O   O6        1.0  0.3344821070892577  0.9583212197224497  0.38334805557504825  1.0000
  O   O7        1.0  0.5827210434158161  0.8769863103895188  0.4495408392825125  1.0000
  O   O8        1.0  0.41727520685177677  0.12300874206911058  0.5504603120370246  1.0000
  O   O9        1.0  0.8648383303138727  0.970022181408332  0.3816662020125888  1.0000
  O   O10       1.0  0.13515683886328134  0.02997286629773299  0.6183342525532749  1.0000
  O   O11       1.0  0.8353807681089762  0.9012534916770392  0.5641586219520389  1.0000
  O   O12       1.0  0.1646172346135444  0.09874072610248422  0.43584103030860166  1.0000
  O   O13       1.0  0.1267300246568509  0.9447630470501167  0.7837413156170283  1.0000
  O   O14       1.0  0.8732667378752764  0.0552353426984808  0.21625903957868076  1.0000
  O   O15       1.0  0.8088383201264404  0.8547559882480227  0.7583035499982883  1.0000
  O   O16       1.0  0.1911584504437229  0.1452424076231225  0.24169886454479433  1.0000
  O   O17       1.0  0.9897615915666049  0.7942903795299895  0.6188626987470653  1.0000
  O   O18       1.0  0.010232507237496682  0.20570467158690062  0.38113980486163246  1.0000
  O   O19       1.0  0.6816133012845995  0.6648564788655378  0.5436309939711774  1.0000
  O   O20       1.0  0.3183856100316902  0.33514191018396383  0.45636732248625816  1.0000
  O   O21       1.0  0.9236104548622635  0.6127782561669974  0.4671994764182158  1.0000
  O   O22       1.0  0.07638914657390927  0.3872193077367712  0.5328014493705167  1.0000
  O   O23       1.0  0.7772949353403149  0.7372560740722918  0.38570475693099837  1.0000
  O   O24       1.0  0.2227029082822511  0.26274232042888457  0.6142962950183842  1.0000
  O   O25       1.0  0.9871691391960341  0.7051628061417359  0.2502466083192444  1.0000
  O   O26       1.0  0.012832737676973145  0.2948372685362841  0.7497547680832639  1.0000
  O   O27       1.0  0.7587892255939082  0.7842959092505737  0.21324954449042366  1.0000
  O   O28       1.0  0.24120877712860528  0.2156983085289497  0.7867501077702099  1.0000
  O   O29       1.0  0.05716721698603779  0.9356058885255295  0.2698158725776238  1.0000
  O   O30       1.0  0.9428284617763154  0.06439249442966138  0.730183099415299  1.0000
