data_image0
_chemical_formula_structural       Zn2H18C28N2O14
_chemical_formula_sum              "Zn2 H18 C28 N2 O14"
_cell_length_a       6.717825120041715
_cell_length_b       9.682053961453919
_cell_length_c       12.296584375023357
_cell_angle_alpha    103.7687505005299
_cell_angle_beta     93.81636643990205
_cell_angle_gamma    103.79166554523471

_space_group_name_H-M_alt    "P 1"
_space_group_IT_number       1

loop_
  _space_group_symop_operation_xyz
  'x, y, z'

loop_
  _atom_site_type_symbol
  _atom_site_label
  _atom_site_symmetry_multiplicity
  _atom_site_fract_x
  _atom_site_fract_y
  _atom_site_fract_z
  _atom_site_occupancy
  Zn  Zn1       1.0  0.13092919026361471  0.4750357766329357  0.8064991555413743  1.0000
  Zn  Zn2       1.0  0.869062040705522  0.524960327102967  0.19350234382457643  1.0000
  H   H1        1.0  0.2673122147930157  0.33349255278736917  0.09308092637476761  1.0000
  H   H2        1.0  0.7326863765692195  0.6665068465491828  0.9069117307403831  1.0000
  H   H3        1.0  0.3043404913954573  0.9253949564177614  0.1714560101052812  1.0000
  H   H4        1.0  0.6956635863287486  0.07461541666220481  0.8285511257157125  1.0000
  H   H5        1.0  0.1990884120869084  0.9426526850474916  0.8264087743377078  1.0000
  H   H6        1.0  0.8009202205876491  0.0573421925160318  0.17359564237048633  1.0000
  H   H7        1.0  0.565601860953052  0.1390255335977031  0.30274059319007324  1.0000
  H   H8        1.0  0.4343955653049746  0.8609827009759525  0.6972569255657107  1.0000
  H   H9        1.0  0.5827101452342944  0.2534167482835059  0.512506697343504  1.0000
  H   H10       1.0  0.4172825991597761  0.7465793504951461  0.48749323609170864  1.0000
  H   H11       1.0  0.045164984979713566  0.4006593599823914  0.4347072557614027  1.0000
  H   H12       1.0  0.9548336922257831  0.5993444377098809  0.5652927353000977  1.0000
  H   H13       1.0  0.04515002972314621  0.2812145455606085  0.23094441781051248  1.0000
  H   H14       1.0  0.9548439761763134  0.7187926017768189  0.7690543846534652  1.0000
  H   H15       1.0  0.7031108797341047  0.42427817949770485  0.756122543297451  1.0000
  H   H16       1.0  0.2968831208863918  0.5757212251196435  0.24387806080500246  1.0000
  H   H17       1.0  0.7734224802087512  0.39445106008675884  0.8741172795730849  1.0000
  H   H18       1.0  0.2265787294041033  0.6055516113583082  0.12588422986382855  1.0000
  C   C1        1.0  0.1875086992259938  0.22336151604656604  0.862930906591572  1.0000
  C   C2        1.0  0.812489455498408  0.7766290362259268  0.13706414090508195  1.0000
  C   C3        1.0  0.2313590636158195  0.14518310478158006  0.9508904390553639  1.0000
  C   C4        1.0  0.7686400901365004  0.8548140641255555  0.04910751570650263  1.0000
  C   C5        1.0  0.2646941467477647  0.21720955981609794  0.06592794561029791  1.0000
  C   C6        1.0  0.7353114037460813  0.7827886768217809  0.934068842776995  1.0000
  C   C7        1.0  0.29091693867038526  0.13660978071942512  0.1434703136848938  1.0000
  C   C8        1.0  0.709092819199391  0.8633917374561689  0.8565288873007972  1.0000
  C   C9        1.0  0.2898862688153728  0.9886600883277625  0.11035553855823119  1.0000
  C   C10       1.0  0.7101194179886433  0.011342556256813902  0.8896453345803296  1.0000
  C   C11       1.0  0.2580684149798457  0.9178705490824581  0.9949975258528528  1.0000
  C   C12       1.0  0.7419457696141832  0.0821309326416753  0.005004288029567809  1.0000
  C   C13       1.0  0.22771694014192412  0.996380894155315  0.9165020938288608  1.0000
  C   C14       1.0  0.7722923737522436  0.0036195172785654004  0.08349850819862331  1.0000
  C   C15       1.0  0.2506364826073693  0.757173338588437  0.9592097902019888  1.0000
  C   C16       1.0  0.749375782436303  0.24282704854446985  0.04079255375665271  1.0000
  C   C17       1.0  0.45474806148011737  0.19683570878515158  0.33806801423679644  1.0000
  C   C18       1.0  0.5452503837603259  0.8031714044985562  0.6619325888251383  1.0000
  C   C19       1.0  0.461537240243004  0.26010519053708947  0.4520625042275342  1.0000
  C   C20       1.0  0.538454434701734  0.7398920199405411  0.5479375940966237  1.0000
  C   C21       1.0  0.31266377200169165  0.33366967345590837  0.489615347962058  1.0000
  C   C22       1.0  0.6873288035109724  0.6663297529028965  0.5103811359797277  1.0000
  C   C23       1.0  0.16255478268710277  0.3433969860015296  0.4096504608334471  1.0000
  C   C24       1.0  0.8374373614666908  0.6566013360133028  0.5903466118513592  1.0000
  C   C25       1.0  0.16164986014349128  0.279623695749585  0.296581468374754  1.0000
  C   C26       1.0  0.8383484740202293  0.7203790143829139  0.7034134253383686  1.0000
  C   C27       1.0  0.315088181795204  0.401856986343951  0.6138148085171053  1.0000
  C   C28       1.0  0.6848901120429433  0.5981403143061143  0.38618394950702856  1.0000
  N   N1        1.0  0.3051827034329975  0.20675409096410388  0.2624396034795282  1.0000
  N   N2        1.0  0.6948213136814161  0.7932518885556232  0.7375585737975713  1.0000
  O   O1        1.0  0.12814596605302597  0.1513485650184663  0.7628156365189087  1.0000
  O   O2        1.0  0.8718530135389244  0.84864418874875  0.23718067038800683  1.0000
  O   O3        1.0  0.2121434567645366  0.3637947507210484  0.9037785623920913  1.0000
  O   O4        1.0  0.7878604439941908  0.6361990829273907  0.09621570717467165  1.0000
  O   O5        1.0  0.47592213847568837  0.4248764782766655  0.680053474559756  1.0000
  O   O6        1.0  0.5240739127263724  0.5751206861585274  0.31995248585622  1.0000
  O   O7        1.0  0.14535810972065383  0.43214568678669707  0.640347188740904  1.0000
  O   O8        1.0  0.8546363169797574  0.5678470794545447  0.35965462825700467  1.0000
  O   O9        1.0  0.2837227310199211  0.6926412932142368  0.03214874971057211  1.0000
  O   O10       1.0  0.7163023754998646  0.30736562054264743  0.9678610323415953  1.0000
  O   O11       1.0  0.20934001289607806  0.6952282937046232  0.8512280888935495  1.0000
  O   O12       1.0  0.7906583765984863  0.30477106726802816  0.14877756500195724  1.0000
  O   O13       1.0  0.8214080843014812  0.4451875277730578  0.8149886272670417  1.0000
  O   O14       1.0  0.1785867790367632  0.5548140855322359  0.18501079934935663  1.0000
