data_image0
_chemical_formula_structural       Cu4H20C20N4Cl8
_chemical_formula_sum              "Cu4 H20 C20 N4 Cl8"
_cell_length_a       3.781643686700717
_cell_length_b       11.89972429801274
_cell_length_c       14.920081137502272
_cell_angle_alpha    90.0020270306482
_cell_angle_beta     89.99905550414735
_cell_angle_gamma    100.29273691049423

_space_group_name_H-M_alt    "P 1"
_space_group_IT_number       1

loop_
  _space_group_symop_operation_xyz
  'x, y, z'

loop_
  _atom_site_type_symbol
  _atom_site_label
  _atom_site_symmetry_multiplicity
  _atom_site_fract_x
  _atom_site_fract_y
  _atom_site_fract_z
  _atom_site_occupancy
  Cu  Cu1       1.0  0.7979831497590696  0.910925233904642  0.583054715379852  1.0000
  Cu  Cu2       1.0  0.20201057165407124  0.5890842584669115  0.0830502524669754  1.0000
  Cu  Cu3       1.0  0.2020124026049217  0.0890753815824752  0.4169482548640531  1.0000
  Cu  Cu4       1.0  0.7979746715419934  0.4109222421526225  0.9169513774077203  1.0000
  H   H1        1.0  0.6386359054304266  0.07942909150327888  0.7138731245605713  1.0000
  H   H2        1.0  0.36135509383971964  0.4205853907363775  0.2138544539690272  1.0000
  H   H3        1.0  0.36136006996510867  0.9205723778992975  0.286130515931994  1.0000
  H   H4        1.0  0.6386421508984913  0.5794186401128983  0.786137122279044  1.0000
  H   H5        1.0  0.9519674916106526  0.7645162526654018  0.7301614293163539  1.0000
  H   H6        1.0  0.048039623163973  0.7354996330180158  0.2301617777722313  1.0000
  H   H7        1.0  0.04804694666261611  0.2354904506925735  0.2698408707323523  1.0000
  H   H8        1.0  0.9519573140508373  0.2644984393377143  0.7698478948092387  1.0000
  H   H9        1.0  0.5961146195924485  0.0950529673218554  0.8801520270735281  1.0000
  H   H10       1.0  0.40387086615005074  0.4049532806068896  0.38013406461477933  1.0000
  H   H11       1.0  0.4038899325090028  0.9049604751267991  0.1198516135675689  1.0000
  H   H12       1.0  0.5961577291943457  0.5950339486749812  0.6198581815637212  1.0000
  H   H13       1.0  0.9114554506647894  0.7636147943414997  0.8984930331973332  1.0000
  H   H14       1.0  0.0884978813708274  0.7363917588475604  0.3984959034152951  1.0000
  H   H15       1.0  0.08856079559715371  0.2363902196721099  0.10151060729882738  1.0000
  H   H16       1.0  0.911495671485362  0.26359948231294794  0.6015144393156433  1.0000
  H   H17       1.0  0.727852675392441  0.9299073501684842  0.9752560918212368  1.0000
  H   H18       1.0  0.2720897974007387  0.5700913524379772  0.4752487659181028  1.0000
  H   H19       1.0  0.27214541525528807  0.0700983886972111  0.0247455380135122  1.0000
  H   H20       1.0  0.7279199118926204  0.42988978914427634  0.5247521933072932  1.0000
  C   C1        1.0  0.6995967647634843  0.0123114923287488  0.7577471402006779  1.0000
  C   C2        1.0  0.3004130746583941  0.4877032979077924  0.2577326420587696  1.0000
  C   C3        1.0  0.30042032758516524  0.9876952294872369  0.2422565003175308  1.0000
  C   C4        1.0  0.6995647453355361  0.5122988960900017  0.7422569234948213  1.0000
  C   C5        1.0  0.8688321979894699  0.8342991478070303  0.7670571695897834  1.0000
  C   C6        1.0  0.13115834642146507  0.6657088423449907  0.267056520871364  1.0000
  C   C7        1.0  0.13118031640898667  0.16571434993004172  0.2329464710339622  1.0000
  C   C8        1.0  0.8688090886888704  0.3342830681794098  0.7329424278885242  1.0000
  C   C9        1.0  0.675358100794725  0.019545151879768203  0.8505551032272578  1.0000
  C   C10       1.0  0.3246013482818669  0.4804639025519323  0.3505389511968531  1.0000
  C   C11       1.0  0.32462545027518547  0.9804579330779364  0.1494438456527831  1.0000
  C   C12       1.0  0.6754138606577487  0.5195283396458523  0.6494573165083395  1.0000
  C   C13       1.0  0.8491073489518474  0.8353214846728676  0.8600453290803359  1.0000
  C   C14       1.0  0.15083926033062064  0.6646884807919662  0.3600385298269586  1.0000
  C   C15       1.0  0.15088108726090613  0.1646807832568626  0.1399542900147495  1.0000
  C   C16       1.0  0.8491596008535112  0.33530279707051136  0.6399644402783408  1.0000
  C   C17       1.0  0.7489385097800041  0.9291186992873933  0.9024494581534555  1.0000
  C   C18       1.0  0.2510339164141442  0.5708787950860597  0.4024409098513715  1.0000
  C   C19       1.0  0.25106923525544295  0.07089051057135261  0.0975568633715298  1.0000
  C   C20       1.0  0.748953598256108  0.4291055961215447  0.597554687569037  1.0000
  N   N1        1.0  0.7938628523749004  0.9211791306415833  0.7168966341541464  1.0000
  N   N2        1.0  0.2061127651530938  0.5788410737489258  0.2168844922016149  1.0000
  N   N3        1.0  0.20612304569586123  0.0788180137383279  0.2830962824983843  1.0000
  N   N4        1.0  0.7938795944540901  0.42116377411404937  0.7831057435937652  1.0000
  Cl  Cl1       1.0  0.3019898038743847  0.7703262477534023  0.5831001176278932  1.0000
  Cl  Cl2       1.0  0.6980359967744578  0.7296732577857982  0.083097342800329  1.0000
  Cl  Cl3       1.0  0.6980226350210259  0.2296710811209977  0.4169021822937893  1.0000
  Cl  Cl4       1.0  0.30195997868013086  0.27032821154542563  0.9169029465040239  1.0000
  Cl  Cl5       1.0  0.21220733636122452  0.0798025096181263  0.5720645501954493  1.0000
  Cl  Cl6       1.0  0.7878101255437928  0.42019587190883106  0.0720647043046085  1.0000
  Cl  Cl7       1.0  0.7877865238884213  0.9201946901928932  0.4279350688161543  1.0000
  Cl  Cl8       1.0  0.21220123572887672  0.5798099589472443  0.9279295528871572  1.0000
