data_image0
_chemical_formula_structural       Cu2H16C26S2N14
_chemical_formula_sum              "Cu2 H16 C26 S2 N14"
_cell_length_a       5.7043305563194195
_cell_length_b       5.6799268460629255
_cell_length_c       20.493724929531872
_cell_angle_alpha    89.99881479386626
_cell_angle_beta     89.99606377999254
_cell_angle_gamma    101.46806169874476

_space_group_name_H-M_alt    "P 1"
_space_group_IT_number       1

loop_
  _space_group_symop_operation_xyz
  'x, y, z'

loop_
  _atom_site_type_symbol
  _atom_site_label
  _atom_site_symmetry_multiplicity
  _atom_site_fract_x
  _atom_site_fract_y
  _atom_site_fract_z
  _atom_site_occupancy
  Cu  Cu1       1.0  0.44210840746836766  0.45942707308075365  0.7500253039149738  1.0000
  Cu  Cu2       1.0  0.5578981432274261  0.5405517863650645  0.2500298519068095  1.0000
  H   H1        1.0  0.8192944423117224  0.39228070126527104  0.8538592525900622  1.0000
  H   H2        1.0  0.18066364322875475  0.6078075096892307  0.3538638674392088  1.0000
  H   H3        1.0  0.1807086666464244  0.6075359261078077  0.14617003767453696  1.0000
  H   H4        1.0  0.8193593038791815  0.3924343452651727  0.6461737280226385  1.0000
  H   H5        1.0  0.849214333664257  0.07213111707825699  0.9349214700344103  1.0000
  H   H6        1.0  0.15081779224017572  0.9279035882793352  0.4349185880539108  1.0000
  H   H7        1.0  0.15069143163704982  0.9274943759580053  0.06508049409077897  1.0000
  H   H8        1.0  0.8493048354898531  0.072459049337489  0.565077530108091  1.0000
  H   H9        1.0  0.11044199461156272  0.09095677960568337  0.8133451014531159  1.0000
  H   H10       1.0  0.88951756926334  0.9089545695202403  0.3133566272399903  1.0000
  H   H11       1.0  0.8894927732175544  0.9089657288484004  0.18666467625966723  1.0000
  H   H12       1.0  0.1105766594327449  0.0910731578048996  0.6866663210954794  1.0000
  H   H13       1.0  0.11358867904934303  0.7535858901274252  0.890506911376931  1.0000
  H   H14       1.0  0.8863594491649347  0.24633402946346183  0.3905064445014473  1.0000
  H   H15       1.0  0.8862223434195684  0.24618565089560457  0.10947895802774346  1.0000
  H   H16       1.0  0.11375567844098808  0.7538231687100915  0.6094686867196157  1.0000
  C   C1        1.0  0.6660590561502744  0.24841495012626771  0.8638100677629976  1.0000
  C   C2        1.0  0.333879060234608  0.7516250939206802  0.3638128019307841  1.0000
  C   C3        1.0  0.33384609088378875  0.7513133481676917  0.13619141105115054  1.0000
  C   C4        1.0  0.6661755041277077  0.2486251978504299  0.6361945392303239  1.0000
  C   C5        1.0  0.4835674771708299  0.8814995999134324  0.9181242644627613  1.0000
  C   C6        1.0  0.5163698609387949  0.11853437357933667  0.41811624423031885  1.0000
  C   C7        1.0  0.5163504744461846  0.11822305425763353  0.08186208707846278  1.0000
  C   C8        1.0  0.48371960647902057  0.8817639665640655  0.5818657230402307  1.0000
  C   C9        1.0  0.6827167204159608  0.06865713809318659  0.908557503460052  1.0000
  C   C10       1.0  0.3172539790571705  0.9313721813416791  0.40855031772504435  1.0000
  C   C11       1.0  0.3172390817221427  0.9310377510060304  0.09144787597115567  1.0000
  C   C12       1.0  0.6828267582132453  0.0689263198817329  0.5914375053739389  1.0000
  C   C13       1.0  0.49279883699742305  0.6791419690694908  0.9617398766416013  1.0000
  C   C14       1.0  0.5072161356253843  0.32093894426381553  0.4617375778750981  1.0000
  C   C15       1.0  0.5070618631067773  0.3206160188940714  0.03824843006461979  1.0000
  C   C16       1.0  0.49292727224066374  0.6793655989416365  0.5382512186057438  1.0000
  C   C17       1.0  0.27163916593487863  0.07984617900978459  0.8408234109941898  1.0000
  C   C18       1.0  0.728339241041624  0.9201463081379513  0.3408263585800027  1.0000
  C   C19       1.0  0.7282973682258813  0.9200113783599521  0.15917465408791995  1.0000
  C   C20       1.0  0.27173611792572666  0.0800134231612688  0.6591868348375838  1.0000
  C   C21       1.0  0.2730884655659551  0.8923487754561847  0.8839533238008596  1.0000
  C   C22       1.0  0.7268777327044232  0.10760070898180633  0.3839428460319849  1.0000
  C   C23       1.0  0.7267885254840891  0.10743595654995632  0.11604181424875995  1.0000
  C   C24       1.0  0.27324456462873314  0.8925978256681617  0.6160537559213848  1.0000
  C   C25       1.0  0.9701680830261308  0.6488297178278799  0.7500109554930458  1.0000
  C   C26       1.0  0.029799660507457325  0.3511318431503341  0.2500154122477339  1.0000
  S   S1        1.0  0.7467357392530545  0.7895657614655605  0.750003599830144  1.0000
  S   S2        1.0  0.25327487934792703  0.21039140303076917  0.2499900730305241  1.0000
  N   N1        1.0  0.465550593712578  0.2539617300548472  0.8291408523663858  1.0000
  N   N2        1.0  0.5343858466375834  0.746081317226597  0.32912712875792477  1.0000
  N   N3        1.0  0.5343696651136723  0.745836615458792  0.17086843485230213  1.0000
  N   N4        1.0  0.4656518434656006  0.25414765055027283  0.670876308948159  1.0000
  N   N5        1.0  0.13584930885149762  0.5518039110194622  0.7500119646103582  1.0000
  N   N6        1.0  0.864143463181186  0.44816799962811155  0.2500226975455603  1.0000
  N   N7        1.0  0.6986712470950777  0.678891241913938  0.9948841404089986  1.0000
  N   N8        1.0  0.3013384823933478  0.3211752568785826  0.49489604887757804  1.0000
  N   N9        1.0  0.3012001281750613  0.3208431098488731  0.005083183206465898  1.0000
  N   N10       1.0  0.6988132466529179  0.6791760279202207  0.5050678627706018  1.0000
  N   N11       1.0  0.29421383510366894  0.5026511260248583  0.966082766938683  1.0000
  N   N12       1.0  0.705778545022035  0.49736942426699216  0.4660641700861061  1.0000
  N   N13       1.0  0.7056433743160184  0.49709070233333813  0.033889437015417884  1.0000
  N   N14       1.0  0.2943786374898422  0.5029258519735009  0.5339036435371722  1.0000
