data_image0
_chemical_formula_structural       Na8Zn2H20C24O28
_chemical_formula_sum              "Na8 Zn2 H20 C24 O28"
_cell_length_a       7.962640994288416
_cell_length_b       8.684773857057658
_cell_length_c       12.544941402001042
_cell_angle_alpha    89.9999624573674
_cell_angle_beta     90.00004069828513
_cell_angle_gamma    113.97461805963384

_space_group_name_H-M_alt    "P 1"
_space_group_IT_number       1

loop_
  _space_group_symop_operation_xyz
  'x, y, z'

loop_
  _atom_site_type_symbol
  _atom_site_label
  _atom_site_symmetry_multiplicity
  _atom_site_fract_x
  _atom_site_fract_y
  _atom_site_fract_z
  _atom_site_occupancy
  Na  Na1       1.0  0.05544287968270108  0.15983923050886517  0.8779363209695675  1.0000
  Na  Na2       1.0  0.9445569601696703  0.34016035676889794  0.37793653631528196  1.0000
  Na  Na3       1.0  0.9445578123835716  0.8401606919382586  0.1220635655187223  1.0000
  Na  Na4       1.0  0.05544191907238632  0.6598383027804219  0.6220633501728798  1.0000
  Na  Na5       1.0  0.8994560838327461  0.46278890321854504  0.8838687140416397  1.0000
  Na  Na6       1.0  0.10054250391929291  0.03721067756676891  0.3838686865062613  1.0000
  Na  Na7       1.0  0.10054279540931788  0.5372097563307747  0.1161311724465222  1.0000
  Na  Na8       1.0  0.8994581881469726  0.9627892448803551  0.6161311999820214  1.0000
  Zn  Zn1       1.0  0.4999999271979759  0.49999980174624886  0.9999998873649858  1.0000
  Zn  Zn2       1.0  0.5000000150427937  0.9999997083351176  0.5000000568357308  1.0000
  H   H1        1.0  0.31132713577374466  0.0787182143469565  0.18714082281101702  1.0000
  H   H2        1.0  0.688672544036919  0.4212814935952879  0.6871407741720859  1.0000
  H   H3        1.0  0.6886717434686459  0.9212804452021147  0.8128598608112014  1.0000
  H   H4        1.0  0.3113268909529551  0.5787184261111235  0.3128591123159197  1.0000
  H   H5        1.0  0.4636092197067612  0.21252610734474336  0.2809507507803559  1.0000
  H   H6        1.0  0.5363905387928155  0.2874735412694847  0.7809506942815148  1.0000
  H   H7        1.0  0.5363902152831059  0.7874738123616681  0.7190491357076426  1.0000
  H   H8        1.0  0.46360889619705853  0.7125263784369267  0.2190491922064837  1.0000
  H   H9        1.0  0.6928543279156472  0.10806262140378212  0.2035100499557956  1.0000
  H   H10       1.0  0.3071453656256579  0.39193707618615303  0.7035098426350075  1.0000
  H   H11       1.0  0.30714384999816247  0.8919372955616681  0.7964906336659752  1.0000
  H   H12       1.0  0.6928553264406075  0.608062846260971  0.2964900438532752  1.0000
  H   H13       1.0  0.5224023361644397  0.988546193692642  0.1110781322402161  1.0000
  H   H14       1.0  0.47759794182471876  0.5114540681305471  0.6110781746482061  1.0000
  H   H15       1.0  0.4775970988254342  0.011453726013769502  0.8889217542477823  1.0000
  H   H16       1.0  0.522401493165148  0.48854585157586433  0.3889217118397923  1.0000
  H   H17       1.0  0.38369556318988884  0.15956186638921824  8.53435903281e-05  1.0000
  H   H18       1.0  0.6163039597163474  0.34043795985212455  0.5000852990560176  1.0000
  H   H19       1.0  0.6163038717999852  0.8404380533171932  0.9999145428976703  1.0000
  H   H20       1.0  0.38369673234991813  0.6595619625949994  0.499914587432265  1.0000
  C   C1        1.0  0.29580700415910843  0.3155763586270126  0.20130504051194723  1.0000
  C   C2        1.0  0.7041939446091163  0.18442334309806094  0.7013051064910769  1.0000
  C   C3        1.0  0.7041918750826139  0.6844223009225631  0.7986940488421653  1.0000
  C   C4        1.0  0.29580674745715635  0.8155765793490631  0.2986947799972057  1.0000
  C   C5        1.0  0.7202212305015221  0.4215015201476788  0.15172815675351362  1.0000
  C   C6        1.0  0.2797807881772485  0.07850073324492259  0.6517296737782701  1.0000
  C   C7        1.0  0.2797787602361693  0.5784996597158242  0.8482717297343286  1.0000
  C   C8        1.0  0.7202204596368347  0.9215004493592929  0.3482702127098563  1.0000
  C   C9        1.0  0.4089688353789426  0.21002004391962  0.20029352688774793  1.0000
  C   C10       1.0  0.5910321125407733  0.28997965844519064  0.7002934938856099  1.0000
  C   C11       1.0  0.5910318566873227  0.789979878527504  0.7997063596005348  1.0000
  C   C12       1.0  0.4089685795254995  0.7100202640019334  0.2997063926026797  1.0000
  C   C13       1.0  0.567163934203968  0.2503113094074579  0.11992968658366722  1.0000
  C   C14       1.0  0.43283624497696843  0.24968970119809342  0.6199296005643689  1.0000
  C   C15       1.0  0.4328355007862398  0.7496886102987049  0.8800709970383878  1.0000
  C   C16       1.0  0.5671637457607163  0.7503114786654167  0.38007028592347325  1.0000
  C   C17       1.0  0.6373745584298689  0.11124516100736061  0.1237974284358927  1.0000
  C   C18       1.0  0.36262381117112596  0.3887545842543433  0.6237972475743874  1.0000
  C   C19       1.0  0.3626243208125217  0.8887534985417106  0.8762032551863257  1.0000
  C   C20       1.0  0.6373743667423497  0.6112453327113556  0.3762026389133339  1.0000
  C   C21       1.0  0.7906134281367369  0.13264647438183627  0.045398526749714604  1.0000
  C   C22       1.0  0.20938613277934337  0.36735332320174763  0.5453998807914857  1.0000
  C   C23       1.0  0.20938670818172514  0.8673521879081961  0.9546013597387316  1.0000
  C   C24       1.0  0.7906120451344661  0.6326465937637026  0.454600802830285  1.0000
  O   O1        1.0  0.506672693676883  0.26148604780434676  0.012495928248029  1.0000
  O   O2        1.0  0.49332865246370966  0.23851503348600292  0.5124958745794217  1.0000
  O   O3        1.0  0.493326741312984  0.7385138719020645  0.9875039582399694  1.0000
  O   O4        1.0  0.5066725953503736  0.7614861491182128  0.4875040119087047  1.0000
  O   O5        1.0  0.7242308017307834  0.553741093323879  0.10368326389752978  1.0000
  O   O6        1.0  0.2757719842084754  0.946259178657293  0.6036838148831194  1.0000
  O   O7        1.0  0.27576989033548227  0.44625882912324505  0.8963166225907528  1.0000
  O   O8        1.0  0.7242287078577975  0.05374074378983099  0.3963160716051704  1.0000
  O   O9        1.0  0.8274392691828252  0.4241146631651419  0.2259804203485132  1.0000
  O   O10       1.0  0.17255988745912276  0.07588376005677588  0.7259802959524961  1.0000
  O   O11       1.0  0.17256016580704878  0.5758852565412697  0.7740194661394852  1.0000
  O   O12       1.0  0.8274395475307512  0.9241161596496356  0.2740195905355094  1.0000
  O   O13       1.0  0.17962957309072178  0.2851297533722176  0.2757932129376925  1.0000
  O   O14       1.0  0.8203696253349049  0.21486863834662984  0.7757933174624583  1.0000
  O   O15       1.0  0.8203693061510006  0.714868906177351  0.7242058764164199  1.0000
  O   O16       1.0  0.17963106673136756  0.7851312841004942  0.2242065690258315  1.0000
  O   O17       1.0  0.3175980354054674  0.426958730610032  0.129423456778845  1.0000
  O   O18       1.0  0.6824046658911626  0.07304227947325609  0.6294219692736931  1.0000
  O   O19       1.0  0.6824026566611321  0.5730411918368432  0.8705772268434941  1.0000
  O   O20       1.0  0.3175953248468559  0.9269589003899983  0.37057871434820555  1.0000
  O   O21       1.0  0.8013276957392462  0.9974986367249485  0.0101522533427953  1.0000
  O   O22       1.0  0.1986730533398173  0.5025029490837198  0.510152174062263  1.0000
  O   O23       1.0  0.1986729963270264  0.0025012857221753003  0.9898476331454873  1.0000
  O   O24       1.0  0.8013269373978673  0.49749823077979033  0.4898477124255791  1.0000
  O   O25       1.0  0.9040167634720858  0.2783900520635072  0.0189081603131243  1.0000
  O   O26       1.0  0.09598403229928457  0.2216097650145343  0.5189079351791293  1.0000
  O   O27       1.0  0.09598392859452075  0.7216098703833609  0.981092523309215  1.0000
  O   O28       1.0  0.9040154026905893  0.778390154691884  0.4810919513088692  1.0000
