data_image0
_chemical_formula_structural       Zn2H8C36N6Cl8O8
_chemical_formula_sum              "Zn2 H8 C36 N6 Cl8 O8"
_cell_length_a       14.823047061023718
_cell_length_b       16.165883409240056
_cell_length_c       19.402635768809343
_cell_angle_alpha    90.00391236465441
_cell_angle_beta     90.02337531230617
_cell_angle_gamma    89.56453617824967

_space_group_name_H-M_alt    "P 1"
_space_group_IT_number       1

loop_
  _space_group_symop_operation_xyz
  'x, y, z'

loop_
  _atom_site_type_symbol
  _atom_site_label
  _atom_site_symmetry_multiplicity
  _atom_site_fract_x
  _atom_site_fract_y
  _atom_site_fract_z
  _atom_site_occupancy
  Zn  Zn1       1.0  0.40546141413119596  0.5037584802731061  0.5000356737098883  1.0000
  Zn  Zn2       1.0  0.5945392925031284  0.4962404383557271  0.49996389019151627  1.0000
  H   H1        1.0  0.4131813293034909  0.39345496377961814  0.849367258603806  1.0000
  H   H2        1.0  0.5868098621817239  0.6065588293864365  0.15063694207552916  1.0000
  H   H3        1.0  0.4131099839434924  0.39344237152278794  0.1505817581716897  1.0000
  H   H4        1.0  0.5868852742972875  0.6065670788299257  0.8494152277107291  1.0000
  H   H5        1.0  0.35953798545487814  0.9213098544367073  0.5236375962895679  1.0000
  H   H6        1.0  0.6404606907655294  0.07869030709034772  0.4763599056950909  1.0000
  H   H7        1.0  0.3563401435683319  0.0755538978489767  0.5235281305884598  1.0000
  H   H8        1.0  0.643657858013988  0.9244462656500548  0.47646937129051986  1.0000
  C   C1        1.0  0.4999573213089193  0.6606295523953353  0.5000248708887227  1.0000
  C   C2        1.0  0.5000386482475535  0.3393724731545475  0.4999757230007873  1.0000
  C   C3        1.0  0.49659324952224887  0.1747991458873486  0.4999035181181739  1.0000
  C   C4        1.0  0.5034033854687862  0.8252047333844886  0.5000960450531836  1.0000
  C   C5        1.0  0.5036454427052419  0.7498105681115207  0.5001062496015081  1.0000
  C   C6        1.0  0.49635325503555083  0.25018526348140574  0.4998938294367434  1.0000
  C   C7        1.0  0.047348538340322904  0.5002190683398454  0.5637503791883702  1.0000
  C   C8        1.0  0.9526507918167368  0.4997854214801053  0.4362476382119453  1.0000
  C   C9        1.0  0.0473218312046271  0.4993004119721433  0.43626874013414624  1.0000
  C   C10       1.0  0.9526795257070407  0.5007034532753638  0.5637287622012865  1.0000
  C   C11       1.0  0.09355737838859571  0.4996162808728073  0.5000152543990382  1.0000
  C   C12       1.0  0.9064419581316301  0.5003869719097337  0.4999843092070435  1.0000
  C   C13       1.0  0.18916764305140532  0.4997821974209912  0.5000297081718729  1.0000
  C   C14       1.0  0.8108350754532979  0.5002191896423656  0.4999693406046788  1.0000
  C   C15       1.0  0.4999644052348416  0.500011551825445  0.6342436538373946  1.0000
  C   C16       1.0  0.5000356279898172  0.49998736927147314  0.3657605485036655  1.0000
  C   C17       1.0  0.45154819099262516  0.4406556518420714  0.7496472740054259  1.0000
  C   C18       1.0  0.5484504746853105  0.5593469846417919  0.2503553818705342  1.0000
  C   C19       1.0  0.4514735416581743  0.4406923942023583  0.2503300372333186  1.0000
  C   C20       1.0  0.5485291772560076  0.559308993026363  0.7496705577250182  1.0000
  C   C21       1.0  0.4510296991971857  0.44006300430267953  0.8213797277650629  1.0000
  C   C22       1.0  0.5489635394710959  0.5599458339158048  0.17862241175156873  1.0000
  C   C23       1.0  0.45095624716056193  0.4400712973127058  0.17859538231500952  1.0000
  C   C24       1.0  0.5490444175249252  0.5599362816253901  0.8214031506306301  1.0000
  C   C25       1.0  0.5000358100180123  0.5000087980396941  0.8575324057389294  1.0000
  C   C26       1.0  0.49995673249179623  0.5000043720849022  0.14246715661843012  1.0000
  C   C27       1.0  0.5000458920893323  0.49998009485567974  0.7119501218646604  1.0000
  C   C28       1.0  0.49995615177729047  0.5000212941796534  0.288048926806205  1.0000
  C   C29       1.0  0.49997576155230655  0.5000029579856148  0.06669291669972921  1.0000
  C   C30       1.0  0.5000133812484293  0.5000157895216476  0.9333076758091181  1.0000
  C   C31       1.0  0.41893494731797903  0.04202891596246871  0.5132579952065441  1.0000
  C   C32       1.0  0.5810650692480621  0.9579730974248123  0.48673950695350504  1.0000
  C   C33       1.0  0.4206855724250858  0.9562258664433826  0.5133510124785232  1.0000
  C   C34       1.0  0.5793117698128613  0.0437712061860296  0.4866480355365256  1.0000
  C   C35       1.0  0.4981586981531337  0.0872562822274858  0.49991621786811175  1.0000
  C   C36       1.0  0.5018386319044411  0.9127432646972552  0.5000817993111042  1.0000
  N   N1        1.0  0.551315245879387  0.5568355698235337  0.9661323576945623  1.0000
  N   N2        1.0  0.4486644222196788  0.4431893913053316  0.0338682332147968  1.0000
  N   N3        1.0  0.5512919094967687  0.5568267649405455  0.0339239336574835  1.0000
  N   N4        1.0  0.4486877583293136  0.4431981960780718  0.9660756264640256  1.0000
  N   N5        1.0  0.7326285297487587  0.49956691596880626  0.49998957568331553  1.0000
  N   N6        1.0  0.2673681290570542  0.5004320144918921  0.5000099875839937  1.0000
  Cl  Cl1       1.0  0.3922357683364766  0.3642339975354644  0.7070338572884368  1.0000
  Cl  Cl2       1.0  0.6077581605365837  0.6357717459796888  0.2929708593634786  1.0000
  Cl  Cl3       1.0  0.3922094401075427  0.36425441451818596  0.2929143334992972  1.0000
  Cl  Cl4       1.0  0.6077987074282235  0.6357401518232919  0.7070816238910851  1.0000
  Cl  Cl5       1.0  0.8930706969034576  0.5017468378488772  0.6385942887661927  1.0000
  Cl  Cl6       1.0  0.1069286363669377  0.49825703342480676  0.3614042440400453  1.0000
  Cl  Cl7       1.0  0.8930073805955984  0.4997574546197683  0.3613525949375074  1.0000
  Cl  Cl8       1.0  0.10699261838234264  0.5002482704861252  0.6386459379384277  1.0000
  O   O1        1.0  0.421404908251681  0.6293783802262071  0.5001868399368803  1.0000
  O   O2        1.0  0.5785924284420361  0.3706199297713654  0.49981375423595864  1.0000
  O   O3        1.0  0.4247730554871937  0.37835413772899074  0.5002002914380839  1.0000
  O   O4        1.0  0.5752256246654925  0.6216454055825338  0.49980081831605366  1.0000
  O   O5        1.0  0.4236865866395975  0.508857696557037  0.6055344114170823  1.0000
  O   O6        1.0  0.5763141144505043  0.4911424594399492  0.3944666986421197  1.0000
  O   O7        1.0  0.42390813334014155  0.5088064879763932  0.3945924828210607  1.0000
  O   O8        1.0  0.5760966355974587  0.49118932564824297  0.6054055355926239  1.0000
