data_image0
_chemical_formula_structural       Zn16H24C72O52
_chemical_formula_sum              "Zn16 H24 C72 O52"
_cell_length_a       17.19154921926761
_cell_length_b       17.208360694281367
_cell_length_c       22.630164706678247
_cell_angle_alpha    89.95045520526332
_cell_angle_beta     89.9488753860039
_cell_angle_gamma    82.27460668533607

_space_group_name_H-M_alt    "P 1"
_space_group_IT_number       1

loop_
  _space_group_symop_operation_xyz
  'x, y, z'

loop_
  _atom_site_type_symbol
  _atom_site_label
  _atom_site_symmetry_multiplicity
  _atom_site_fract_x
  _atom_site_fract_y
  _atom_site_fract_z
  _atom_site_occupancy
  Zn  Zn1       1.0  0.9058802211457576  0.5053419622088171  0.799869750362731  1.0000
  Zn  Zn2       1.0  0.004173984953745009  0.4050139123450335  0.2997673414891793  1.0000
  Zn  Zn3       1.0  0.0044156275533496  0.4048969315975198  0.7003918555286146  1.0000
  Zn  Zn4       1.0  0.9957533131468778  0.5949508419626425  0.2997193472226556  1.0000
  Zn  Zn5       1.0  0.4958251741482229  0.09498551148842438  0.20023236701804584  1.0000
  Zn  Zn6       1.0  0.5053472721840823  0.9059908955217961  0.7999395743751659  1.0000
  Zn  Zn7       1.0  0.5042450684850195  0.9050485954181935  0.2002808392405696  1.0000
  Zn  Zn8       1.0  0.49558413965000625  0.0951030814762035  0.799608115976447  1.0000
  Zn  Zn9       1.0  0.09426517523139212  0.4944947259130641  0.20023793564018885  1.0000
  Zn  Zn10      1.0  0.0952033276639526  0.4955916526082049  0.7995400736719771  1.0000
  Zn  Zn11      1.0  0.9057761637314032  0.5055775502926994  0.20028719704080084  1.0000
  Zn  Zn12      1.0  0.40573441039867925  0.005505869394873698  0.29976221391472535  1.0000
  Zn  Zn13      1.0  0.594119854782754  0.9946586483267834  0.700130256325451  1.0000
  Zn  Zn14      1.0  0.5942233817100658  0.9944218845683966  0.2997125469149893  1.0000
  Zn  Zn15      1.0  0.4047959351996511  0.004407775246456  0.7004603402963381  1.0000
  Zn  Zn16      1.0  0.9946517952622074  0.5940085447544874  0.7000604334631361  1.0000
  H   H1        1.0  0.24342213808134963  0.6909583306005656  0.34817383412364217  1.0000
  H   H2        1.0  0.8809188949465037  0.18456715013963526  0.7763038295583725  1.0000
  H   H3        1.0  0.8809519227477695  0.18455722560860008  0.22369712894816726  1.0000
  H   H4        1.0  0.14599298803419467  0.7910192582282318  0.6775563823616862  1.0000
  H   H5        1.0  0.6190813584028875  0.3154325089567394  0.7236979614794093  1.0000
  H   H6        1.0  0.38091664875175013  0.6845686839106546  0.27630410580243847  1.0000
  H   H7        1.0  0.3540068340981009  0.7089799465349458  0.8224440150310385  1.0000
  H   H8        1.0  0.6190477228948197  0.3154418446051536  0.2763026315390178  1.0000
  H   H9        1.0  0.7088750013972529  0.35386620121176543  0.8224688419720323  1.0000
  H   H10       1.0  0.29112579876670713  0.6461314677424638  0.17753366755212593  1.0000
  H   H11       1.0  0.19098209101603197  0.7434764264539595  0.848208700811021  1.0000
  H   H12       1.0  0.7565754423478807  0.3090416906135189  0.6518286758868895  1.0000
  H   H13       1.0  0.7090455830739018  0.35401539664434256  0.17754405029479867  1.0000
  H   H14       1.0  0.2088725226553834  0.8538694945537343  0.32246779175521567  1.0000
  H   H15       1.0  0.7911253297637799  0.14613287162919872  0.6775320655548001  1.0000
  H   H16       1.0  0.7909541401830397  0.14598308713517127  0.3224557104578238  1.0000
  H   H17       1.0  0.30901714926080365  0.7565227796138032  0.6517916968913295  1.0000
  H   H18       1.0  0.7564301695289046  0.3088450695191085  0.34817352304145993  1.0000
  H   H19       1.0  0.31549108285750554  0.6191927157840096  0.7237283343680685  1.0000
  H   H20       1.0  0.7434248886158629  0.1909573820486159  0.8481731154163298  1.0000
  H   H21       1.0  0.2565768429092046  0.8090420440462296  0.15182718325132064  1.0000
  H   H22       1.0  0.18450815741933715  0.8808064902837457  0.7762720633342821  1.0000
  H   H23       1.0  0.7435701355834966  0.19115341295582772  0.15182623740153636  1.0000
  H   H24       1.0  0.11908225462445192  0.8154322771703802  0.22369691130708694  1.0000
  C   C1        1.0  0.1399601123374268  0.6409086066528927  0.7495854747297128  1.0000
  C   C2        1.0  0.7768700338880021  0.7232358889534467  0.25007775922858844  1.0000
  C   C3        1.0  0.776801480067853  0.723169807060792  0.7500304592090072  1.0000
  C   C4        1.0  0.2231242034226498  0.27676234891115564  0.2500719913612883  1.0000
  C   C5        1.0  0.7231287745679467  0.7767647201701209  0.24992154261775562  1.0000
  C   C6        1.0  0.27680921370525624  0.2231627606176687  0.7499714488809558  1.0000
  C   C7        1.0  0.27687220202528817  0.2232359089343702  0.24992595167216786  1.0000
  C   C8        1.0  0.7231985958606585  0.7768308034748088  0.7499695474791747  1.0000
  C   C9        1.0  6.035000692610992e-05  0.4998210879888631  0.5267602650436486  1.0000
  C   C10       1.0  2.6471556878985824e-05  0.4999235031904093  0.4731092706479884  1.0000
  C   C11       1.0  0.49997385125601573  7.591803388610016e-05  0.026890437239984497  1.0000
  C   C12       1.0  0.859138488369254  0.3599917567721248  0.24954961731911132  1.0000
  C   C13       1.0  0.4999393395820774  0.00017951151910010048  0.9732397061959686  1.0000
  C   C14       1.0  0.8408016423453832  0.659160883694838  0.7500245150555996  1.0000
  C   C15       1.0  0.15902122459616663  0.3407175792317147  0.2500170378836515  1.0000
  C   C16       1.0  0.15914384253048297  0.34089025176696447  0.7500243051150689  1.0000
  C   C17       1.0  0.8409719135026633  0.6592847884925275  0.2500164945635389  1.0000
  C   C18       1.0  0.34097669337781156  0.15928243382396798  0.24998178720100128  1.0000
  C   C19       1.0  0.6591985112961326  0.8408391404959373  0.7499750500098228  1.0000
  C   C20       1.0  0.6590269725676382  0.8407152341967928  0.24998280754824254  1.0000
  C   C21       1.0  0.3408554982434069  0.15910858992168633  0.7499747834541067  1.0000
  C   C22       1.0  0.9999049883726271  0.4998532328587899  0.5908151552444849  1.0000
  C   C23       1.0  0.8591078083328653  0.36001568033866244  0.7504571701754299  1.0000
  C   C24       1.0  0.9999909072874336  0.49996495120161905  0.4090492452163159  1.0000
  C   C25       1.0  0.5000092425962636  3.4704141789600106e-05  0.09095051469580537  1.0000
  C   C26       1.0  0.5000946059015304  0.00014701433404700043  0.9091848682847254  1.0000
  C   C27       1.0  0.000140771943797829  0.5000910102350955  0.9090767971034096  1.0000
  C   C28       1.0  3.7187056939615005e-05  0.500010995875911  0.09078985165171359  1.0000
  C   C29       1.0  0.4999636172130055  0.9999887885123256  0.40921072317161833  1.0000
  C   C30       1.0  0.4998601363837238  0.9999087784425671  0.5909231575164355  1.0000
  C   C31       1.0  0.0001840877968320309  0.4999460153568903  0.9731130626755299  1.0000
  C   C32       1.0  8.689976200322435e-05  0.4999804896519675  0.0267571633958212  1.0000
  C   C33       1.0  0.4999133453378946  1.95179171527003e-05  0.4732429861149042  1.0000
  C   C34       1.0  0.14088395757510602  0.6399931519385971  0.24952501147376435  1.0000
  C   C35       1.0  0.49981575702088327  5.341128260030042e-05  0.526886909094962  1.0000
  C   C36       1.0  0.7265149729609988  0.3073667608781109  0.7903947340706734  1.0000
  C   C37       1.0  0.27348427581485885  0.692633843214125  0.20960600719278938  1.0000
  C   C38       1.0  0.2178840706592737  0.7470943464912522  0.8046395286548671  1.0000
  C   C39       1.0  0.7266227109494352  0.3074520811342936  0.2096158103851167  1.0000
  C   C40       1.0  0.22651404560723168  0.8073671190820803  0.29039545211455214  1.0000
  C   C41       1.0  0.7734841167761105  0.19263290091684127  0.7096066156981704  1.0000
  C   C42       1.0  0.7733764303533944  0.19254640386039057  0.29038439256532195  1.0000
  C   C43       1.0  0.2821157513743841  0.7529048581825107  0.6953613106260474  1.0000
  C   C44       1.0  0.2470573289522234  0.7178748041548461  0.30462078819681426  1.0000
  C   C45       1.0  0.6408629803554291  0.1400067230042339  0.25045058439283  1.0000
  C   C46       1.0  0.7529387389509736  0.2821234618490962  0.6953808397625207  1.0000
  C   C47       1.0  0.7528490980835657  0.28200945852706377  0.3046250522652229  1.0000
  C   C48       1.0  0.2871567436422282  0.6779543567969025  0.7353692664475061  1.0000
  C   C49       1.0  0.7470609326416023  0.2178761986412709  0.80462050969669  1.0000
  C   C50       1.0  0.25294223379515307  0.7821255690979638  0.19538067075671248  1.0000
  C   C51       1.0  0.2128424966346074  0.8220448492708526  0.7646311312548446  1.0000
  C   C52       1.0  0.7471505474603789  0.2179896115972824  0.19537515011015213  1.0000
  C   C53       1.0  0.1985804569463454  0.6966595974438476  0.2490231467722096  1.0000
  C   C54       1.0  0.8014186372913344  0.3033421801427423  0.750974500743041  1.0000
  C   C55       1.0  0.801455522646279  0.3033084861607236  0.24903204777859853  1.0000
  C   C56       1.0  0.3600397094989347  0.8590905978420407  0.7504162483275817  1.0000
  C   C57       1.0  0.19662542799007102  0.6986068378400246  0.7490800850182564  1.0000
  C   C58       1.0  0.698581111915594  0.19665689391338495  0.7490268489816142  1.0000
  C   C59       1.0  0.3014179420900972  0.803340778418118  0.25097831280056937  1.0000
  C   C60       1.0  0.30337381218812004  0.8013923681383163  0.7509207545722842  1.0000
  C   C61       1.0  0.6985447049504147  0.19669058283785995  0.2509672705107703  1.0000
  C   C62       1.0  0.17788660391536137  0.7871171215253979  0.23535328120025403  1.0000
  C   C63       1.0  0.8221153991064086  0.21288464909123658  0.7646465742078302  1.0000
  C   C64       1.0  0.8221306555846156  0.21288586643966306  0.2353437295379734  1.0000
  C   C65       1.0  0.19254670961844061  0.7734143673931583  0.7096231671525287  1.0000
  C   C66       1.0  0.6778843501991645  0.2871144250543053  0.7353543336286349  1.0000
  C   C67       1.0  0.3591150234154484  0.8600072227081978  0.2504760059011986  1.0000
  C   C68       1.0  0.322111213166977  0.7128832555517376  0.2646486205703411  1.0000
  C   C69       1.0  0.30745260817410264  0.7265842521509499  0.7903776727034495  1.0000
  C   C70       1.0  0.6778689901566182  0.2871132038635055  0.26465558906102155  1.0000
  C   C71       1.0  0.6408924452138153  0.13998397893653447  0.749543737085972  1.0000
  C   C72       1.0  0.22319113545221111  0.27683725124089154  0.7500280804262829  1.0000
  O   O1        1.0  0.0003884253230665794  0.49961033645886493  0.7499728996628431  1.0000
  O   O2        1.0  0.34573139911580614  0.9167253392019673  0.7144828043168657  1.0000
  O   O3        1.0  0.3465110673201011  0.9181706506929144  0.2858917208351528  1.0000
  O   O4        1.0  0.6535237485382481  0.08180290093361009  0.7141324356831757  1.0000
  O   O5        1.0  0.8968402703871096  0.6657645330892307  0.7143272700567562  1.0000
  O   O6        1.0  0.1028007123142274  0.3340997190500089  0.28552746865506856  1.0000
  O   O7        1.0  0.10298829477476093  0.334109006969129  0.7145538606662568  1.0000
  O   O8        1.0  0.897146751604879  0.6658631439140591  0.2854874767669031  1.0000
  O   O9        1.0  0.39719786473497726  0.1658997059092044  0.21447312393816279  1.0000
  O   O10       1.0  0.6031593013002948  0.8342354923167077  0.7856727372064896  1.0000
  O   O11       1.0  0.6028526386078851  0.8341374638155088  0.21451226665800496  1.0000
  O   O12       1.0  0.9999850950432075  0.5000141520237307  0.2503725114986963  1.0000
  O   O13       1.0  0.3970121317997696  0.16589041827636208  0.7854465526828063  1.0000
  O   O14       1.0  0.9956283279863742  0.5668849657334931  0.6153663663109226  1.0000
  O   O15       1.0  0.003944475561254999  0.4330550837793794  0.3844048522538941  1.0000
  O   O16       1.0  0.003983468881116917  0.4330180590122125  0.6156382608991675  1.0000
  O   O17       1.0  0.9960027837792892  0.5669268753747332  0.38438284327447986  1.0000
  O   O18       1.0  0.4960551877818205  0.0669449251837335  0.11559485567826747  1.0000
  O   O19       1.0  0.5043716703277851  0.9331162312363401  0.884633640111822  1.0000
  O   O20       1.0  0.5039966839491825  0.9330731458311802  0.11561734230406268  1.0000
  O   O21       1.0  0.4960156388524197  0.06698254180033558  0.8843617106500756  1.0000
  O   O22       1.0  0.06705016809884512  0.4960227630115668  0.884275414877784  1.0000
  O   O23       1.0  0.5000138685428014  0.9999852841419422  0.24962723276671273  1.0000
  O   O24       1.0  0.9330068664860253  0.5043986927860827  0.11549617734198848  1.0000
  O   O25       1.0  0.9330383616077216  0.5043516709192133  0.8845476146404323  1.0000
  O   O26       1.0  0.06701200621414934  0.4956581931650703  0.11548049157763529  1.0000
  O   O27       1.0  0.5669931830979067  0.9956013271152597  0.3845040079269281  1.0000
  O   O28       1.0  0.432950491318735  0.003974902931219  0.6157249992675914  1.0000
  O   O29       1.0  0.43298823888574123  0.004341814404050102  0.38451965793309023  1.0000
  O   O30       1.0  0.5669617919351423  0.9956483531821474  0.6154523923131875  1.0000
  O   O31       1.0  0.8341566461037432  0.6031566641774689  0.7857044733095648  1.0000
  O   O32       1.0  0.16587277935251885  0.3967037467413589  0.21434228157273333  1.0000
  O   O33       1.0  0.16596279164527067  0.3970103885715801  0.7854771290040715  1.0000
  O   O34       1.0  0.49961141949464144  0.0003890901806258002  0.7500270721076489  1.0000
  O   O35       1.0  0.8341592806634563  0.6033370363039268  0.21437489089718295  1.0000
  O   O36       1.0  0.3341257977953375  0.10329567830726918  0.28565786913230073  1.0000
  O   O37       1.0  0.6658430031980062  0.896842774794237  0.7142955342191113  1.0000
  O   O38       1.0  0.66584018716366  0.8966629849914012  0.2856248527931625  1.0000
  O   O39       1.0  0.334037053271082  0.10298903815731819  0.7145224008782377  1.0000
  O   O40       1.0  0.08175255862956732  0.6534861616781668  0.7141532779012534  1.0000
  O   O41       1.0  0.9167417865573102  0.34569829451232437  0.2855049040205698  1.0000
  O   O42       1.0  0.916771650623339  0.34575660111819656  0.7145043993233029  1.0000
  O   O43       1.0  0.08320812745255782  0.6542768807869448  0.28547865959828295  1.0000
  O   O44       1.0  0.5832582857120344  0.15430194726532423  0.21449485562611403  1.0000
  O   O45       1.0  0.1542689268630184  0.5832744503332208  0.7855193600535627  1.0000
  O   O46       1.0  0.41824675906433134  0.8465124577765265  0.7858480038429146  1.0000
  O   O47       1.0  0.4167901938708881  0.8457240814198456  0.21452324159724864  1.0000
  O   O48       1.0  0.5832279434535295  0.15424364589581774  0.7854965079822802  1.0000
  O   O49       1.0  0.8465408353975051  0.41822816217620573  0.21414388625102987  1.0000
  O   O50       1.0  0.846475845637272  0.41819734616981913  0.7858680297342245  1.0000
  O   O51       1.0  0.1534872542006411  0.5818303116927055  0.21410929658399874  1.0000
  O   O52       1.0  0.6534581506766133  0.0817714956869509  0.2858563161685339  1.0000
