data_image0
_chemical_formula_structural       Zn8H36C44N4O28
_chemical_formula_sum              "Zn8 H36 C44 N4 O28"
_cell_length_a       7.466602580008439
_cell_length_b       11.815045659855112
_cell_length_c       13.715036765845795
_cell_angle_alpha    94.05819964861438
_cell_angle_beta     90.00016534556165
_cell_angle_gamma    89.99994174773245

_space_group_name_H-M_alt    "P 1"
_space_group_IT_number       1

loop_
  _space_group_symop_operation_xyz
  'x, y, z'

loop_
  _atom_site_type_symbol
  _atom_site_label
  _atom_site_symmetry_multiplicity
  _atom_site_fract_x
  _atom_site_fract_y
  _atom_site_fract_z
  _atom_site_occupancy
  Zn  Zn1       1.0  0.44078718190206706  0.8252007469002222  0.8961053979249627  1.0000
  Zn  Zn2       1.0  0.9407907792906726  0.17479919860048915  0.6038952346077266  1.0000
  Zn  Zn3       1.0  0.5592102904428629  0.17479875266339912  0.10389465853004513  1.0000
  Zn  Zn4       1.0  0.059213389544162  0.8252002997380359  0.3961062800309635  1.0000
  Zn  Zn5       1.0  0.2219039589379861  0.9121460689888748  0.2109816786351359  1.0000
  Zn  Zn6       1.0  0.7219073352885487  0.08785205245206382  0.28901800082834944  1.0000
  Zn  Zn7       1.0  0.7780935134025453  0.08785428030382292  0.7890169718967854  1.0000
  Zn  Zn8       1.0  0.2780914763579857  0.912146597382133  0.7109834615507751  1.0000
  H   H1        1.0  0.16150069495508754  0.9519233129963852  0.8737286663532589  1.0000
  H   H2        1.0  0.6615005969523438  0.04807762465615889  0.6262715869781844  1.0000
  H   H3        1.0  0.8384981166909071  0.0480761853435112  0.12627284828129604  1.0000
  H   H4        1.0  0.3384982146853943  0.9519227246361978  0.3737270635547745  1.0000
  H   H5        1.0  0.779614037439451  0.7760195481322184  0.14466085022751682  1.0000
  H   H6        1.0  0.27961789030419487  0.22398108853204235  0.35533980424489203  1.0000
  H   H7        1.0  0.22038343490383747  0.22398249694850852  0.8553393629937747  1.0000
  H   H8        1.0  0.7203809213384885  0.7760175625255243  0.6446601999557233  1.0000
  H   H9        1.0  0.6457740565017573  0.6578760128085648  0.11130397680396702  1.0000
  H   H10       1.0  0.14577655586639793  0.34212384418814423  0.3886964186501843  1.0000
  H   H11       1.0  0.3542260944389711  0.342124334648382  0.88869686099779  1.0000
  H   H12       1.0  0.8542235950745861  0.6578731098576683  0.6113034810406149  1.0000
  H   H13       1.0  0.006534969494140299  0.8034965392493589  0.955920272113879  1.0000
  H   H14       1.0  0.5065368765636364  0.19650617450577101  0.5440805754214822  1.0000
  H   H15       1.0  0.9934625028455814  0.19650805196016563  0.044079368784430514  1.0000
  H   H16       1.0  0.49346059578376605  0.8034924759404588  0.4559201578673537  1.0000
  H   H17       1.0  0.883885999559034  0.8877502160381638  0.041937345316078706  1.0000
  H   H18       1.0  0.3838878966815997  0.1122503663848065  0.45806419932789316  1.0000
  H   H19       1.0  0.116110133486508  0.11225267754861079  0.9580629201595985  1.0000
  H   H20       1.0  0.6161095756688154  0.8877465864383253  0.5419371585393408  1.0000
  H   H21       1.0  0.9015709216814188  0.7155452715212718  0.8150079046667856  1.0000
  H   H22       1.0  0.40156975913666326  0.2844572396678302  0.6849928240455371  1.0000
  H   H23       1.0  0.0984332471468292  0.2844584705691418  0.18499241307052472  1.0000
  H   H24       1.0  0.5984317311012789  0.7155431077887685  0.3150080137572574  1.0000
  H   H25       1.0  0.9652503757589911  0.5377180700977462  0.7189848110570836  1.0000
  H   H26       1.0  0.4652507731974467  0.46228356044474594  0.7810152346865282  1.0000
  H   H27       1.0  0.03475111447153269  0.462284824711027  0.2810139962442194  1.0000
  H   H28       1.0  0.5347493777443759  0.5377150900007948  0.21898549860437563  1.0000
  H   H29       1.0  0.6859046966600814  0.5214285144170391  0.046421955910801706  1.0000
  H   H30       1.0  0.18590330098690802  0.4785713225520071  0.4535777724466358  1.0000
  H   H31       1.0  0.3141021507642209  0.4785726821555799  0.9535782050623  1.0000
  H   H32       1.0  0.8141035464371101  0.5214273291151841  0.5464215026709313  1.0000
  H   H33       1.0  0.762709224171324  0.3479398316768326  0.95081821541514  1.0000
  H   H34       1.0  0.26270943008925224  0.6520593581331015  0.5491806315784802  1.0000
  H   H35       1.0  0.2372895874639482  0.6520613667329158  0.049179758283983716  1.0000
  H   H36       1.0  0.7372933994456046  0.34793844441772853  0.4508193203698171  1.0000
  C   C1        1.0  0.5086981919520711  0.8123890382483976  0.10755020931622991  1.0000
  C   C2        1.0  0.0087022995103467  0.18761089169676382  0.3924470580214319  1.0000
  C   C3        1.0  0.4912979410868559  0.1876121607737247  0.8924470352915748  1.0000
  C   C4        1.0  0.991296512132884  0.8123869108551035  0.607552893923753  1.0000
  C   C5        1.0  0.6796300280307432  0.7432571787320938  0.09093341148815882  1.0000
  C   C6        1.0  0.17963143335879286  0.25674350935749146  0.4090670885227397  1.0000
  C   C7        1.0  0.32037012290558664  0.2567440184539294  0.9090660203905119  1.0000
  C   C8        1.0  0.8203687175841167  0.7432534440766361  0.5909335402573106  1.0000
  C   C9        1.0  0.8112876164679078  0.9109823541228933  0.8969598537484773  1.0000
  C   C10       1.0  0.31130642542522924  0.0890151136855621  0.6030389637946529  1.0000
  C   C11       1.0  0.1887044986832436  0.0890188436768824  0.10303884903473201  1.0000
  C   C12       1.0  0.6887044398969949  0.9109792942286962  0.3969615082273991  1.0000
  C   C13       1.0  0.8699504401878998  0.8333558560055607  0.9742111366805233  1.0000
  C   C14       1.0  0.3699526442910823  0.166644973822919  0.5257901677641144  1.0000
  C   C15       1.0  0.1300470321567673  0.1666470369691808  0.025789857885442302  1.0000
  C   C16       1.0  0.6300461673540739  0.8333528281172562  0.4742105132703288  1.0000
  C   C17       1.0  0.7871966727320084  0.6351571081617495  0.9394151439083558  1.0000
  C   C18       1.0  0.28719606259146246  0.3648446133475218  0.5605853558586916  1.0000
  C   C19       1.0  0.21280749609979918  0.36484408779986677  0.0605857461519363  1.0000
  C   C20       1.0  0.7128067669412133  0.6351565832261272  0.4394148051113049  1.0000
  C   C21       1.0  0.8680122977661354  0.6359625889182823  0.8460935483062855  1.0000
  C   C22       1.0  0.3680121819907568  0.3640373946253065  0.6539062427085014  1.0000
  C   C23       1.0  0.13199321035986597  0.36404030466608356  0.15390671717663204  1.0000
  C   C24       1.0  0.6319906475427215  0.6359595600315089  0.346092927895107  1.0000
  C   C25       1.0  0.903227713373319  0.5356518626991971  0.7908011972178317  1.0000
  C   C26       1.0  0.40322504944199267  0.4643506482498481  0.7091988049635563  1.0000
  C   C27       1.0  0.09677511615935688  0.4643493338744449  0.20919896375216507  1.0000
  C   C28       1.0  0.5967764407885242  0.5356522465589324  0.2908000023377468  1.0000
  C   C29       1.0  0.7465424856164447  0.5289550238226326  0.9750283752964537  1.0000
  C   C30       1.0  0.24653883752015562  0.47104417430332296  0.5249704467191166  1.0000
  C   C31       1.0  0.2534630225062529  0.4710470224794108  0.0249703797525243  1.0000
  C   C32       1.0  0.7534639920144101  0.5289510833420863  0.4750286193736457  1.0000
  C   C33       1.0  0.7891936813162203  0.429121276493838  0.9206330659700158  1.0000
  C   C34       1.0  0.28919283828467707  0.5708795960943575  0.5793666555372357  1.0000
  C   C35       1.0  0.21080914821452978  0.5708799206914962  0.0793663659107295  1.0000
  C   C36       1.0  0.7108126698404932  0.4291216010902943  0.4206327763455705  1.0000
  C   C37       1.0  0.8651945319713334  0.4303215222264071  0.8270871459859706  1.0000
  C   C38       1.0  0.36519552442316433  0.5696784633778409  0.6729119115874057  1.0000
  C   C39       1.0  0.1348056189595113  0.5696822217000985  0.17291098448046685  1.0000
  C   C40       1.0  0.6348073051122397  0.4303184906672826  0.3270879881054612  1.0000
  C   C41       1.0  0.8980902832509798  0.3224450154348872  0.7688957561171534  1.0000
  C   C42       1.0  0.39809006996836865  0.6775558011444505  0.7311041336187503  1.0000
  C   C43       1.0  0.10190451048771369  0.6775578812106744  0.23110086391120896  1.0000
  C   C44       1.0  0.6019074023839721  0.3224411510669967  0.268897953337742  1.0000
  N   N1        1.0  0.7524459841864085  0.7388479253109353  0.9923053846730668  1.0000
  N   N2        1.0  0.2524466010429194  0.2611512691658859  0.5076941755550309  1.0000
  N   N3        1.0  0.2475541667523942  0.26115242275769657  0.007694724039431806  1.0000
  N   N4        1.0  0.7475535498999974  0.7388456842682414  0.49230645322502653  1.0000
  O   O1        1.0  0.4095444551504954  0.8408493808927631  0.03780395264040241  1.0000
  O   O2        1.0  0.9095472922705027  0.1591494907099786  0.4621982562209936  1.0000
  O   O3        1.0  0.5904543564935665  0.1591501180588182  0.9621968329048942  1.0000
  O   O4        1.0  0.09045285867517089  0.8408491585121852  0.5378039352484194  1.0000
  O   O5        1.0  0.46535205306295074  0.835710913409116  0.19616306105342574  1.0000
  O   O6        1.0  0.9653540452010105  0.1642887792194472  0.3038378280982173  1.0000
  O   O7        1.0  0.5346467585747945  0.1642894358832336  0.803835589479533  1.0000
  O   O8        1.0  0.034643427147770495  0.8357107191207974  0.6961636865353  1.0000
  O   O9        1.0  0.6627018573219912  0.901206829907956  0.852781437897491  1.0000
  O   O10       1.0  0.1626967765990344  0.0987958010810388  0.6472225672428423  1.0000
  O   O11       1.0  0.33729829362150104  0.09879521333702002  0.1472209625936287  1.0000
  O   O12       1.0  0.8372993564594112  0.9012019984130789  0.35278103014655227  1.0000
  O   O13       1.0  0.9186991397652449  0.9912602393549645  0.8787132600969231  1.0000
  O   O14       1.0  0.4186994243747222  0.008743111529931  0.621287547332358  1.0000
  O   O15       1.0  0.0812983325761252  0.0087418063374471  0.12128622403511  1.0000
  O   O16       1.0  0.581299387266867  0.9912572365390491  0.37871256137911063  1.0000
  O   O17       1.0  0.9017556908138502  0.32355052239034887  0.6750158374871306  1.0000
  O   O18       1.0  0.40175463603185346  0.6764494444099682  0.8249832765659237  1.0000
  O   O19       1.0  0.09824312081207859  0.6764532239832591  0.3249793766212577  1.0000
  O   O20       1.0  0.598244175617161  0.32354835630683715  0.17501886264702904  1.0000
  O   O21       1.0  0.9199384322365488  0.23271904670610163  0.8148076954294653  1.0000
  O   O22       1.0  0.4199391710379601  0.7672817586358462  0.6851922280591439  1.0000
  O   O23       1.0  0.08005100431000049  0.767283002658509  0.18518741416082926  1.0000
  O   O24       1.0  0.5800569620155401  0.2327177390930473  0.3148100156625944  1.0000
  O   O25       1.0  0.28641823111362197  0.9465958908207881  0.8517113355856127  1.0000
  O   O26       1.0  0.7864222587434639  0.05340667959336538  0.6482892152378741  1.0000
  O   O27       1.0  0.7135792412340649  0.05340530453086251  0.14829028355875815  1.0000
  O   O28       1.0  0.2135805707878333  0.9465936690862617  0.3517101643874412  1.0000
