data_image0
_chemical_formula_structural       Li4H40C44N16
_chemical_formula_sum              "Li4 H40 C44 N16"
_cell_length_a       7.732862375726262
_cell_length_b       8.688085955
_cell_length_c       16.1226
_cell_angle_alpha    90.0
_cell_angle_beta     98.33476271796602
_cell_angle_gamma    90.0

_space_group_name_H-M_alt    "P 1"
_space_group_IT_number       1

loop_
  _space_group_symop_operation_xyz
  'x, y, z'

loop_
  _atom_site_type_symbol
  _atom_site_label
  _atom_site_symmetry_multiplicity
  _atom_site_fract_x
  _atom_site_fract_y
  _atom_site_fract_z
  _atom_site_occupancy
  Li  Li1       1.0  0.7162926800981779  0.15638081932397097  0.6255122150031484  1.0000
  Li  Li2       1.0  0.7837070471337242  0.6563804766132719  0.8744898438611985  1.0000
  Li  Li3       1.0  0.2837049597454849  0.8436207972576426  0.3744875588814764  1.0000
  Li  Li4       1.0  0.21629189969650034  0.34361768696382466  0.1255106411394493  1.0000
  H   H1        1.0  0.16533902845026915  0.2993881521744228  0.4184370580316924  1.0000
  H   H2        1.0  0.3346656729111074  0.7993878094637239  0.081565408685357  1.0000
  H   H3        1.0  0.8346586113933936  0.7006134644071906  0.581563956347651  1.0000
  H   H4        1.0  0.6653345809056856  0.20061265611638396  0.9184357874313065  1.0000
  H   H5        1.0  0.2832658122595574  0.47650196158769387  0.4300020383604561  1.0000
  H   H6        1.0  0.21673627512868873  0.9765050718815118  0.07000024661926571  1.0000
  H   H7        1.0  0.7167265996378445  0.5234996549939197  0.569996751802158  1.0000
  H   H8        1.0  0.7832626717015427  0.0234942426970974  0.9299996181340333  1.0000
  H   H9        1.0  0.3370574583255106  0.3350634437870283  0.3581157803147975  1.0000
  H   H10       1.0  0.1629485500224277  0.8350654030793336  0.14188925826033483  1.0000
  H   H11       1.0  0.6629441024778444  0.6649370217930795  0.6418873674126004  1.0000
  H   H12       1.0  0.8370543177674958  0.1649350625007742  0.8581121195936634  1.0000
  H   H13       1.0  0.1803131735283259  0.0486390215507484  0.9198850225949898  1.0000
  H   H14       1.0  0.3196849929002212  0.5486398298415551  0.5801138885419661  1.0000
  H   H15       1.0  0.819692308234728  0.9513671990368806  0.0801165369963428  1.0000
  H   H16       1.0  0.680315260916565  0.4513606357385527  0.4198848265852889  1.0000
  H   H17       1.0  0.15240639638712844  0.2402381848902877  0.8045542747134959  1.0000
  H   H18       1.0  0.3475930770279874  0.7402378421795888  0.6954459677868245  1.0000
  H   H19       1.0  0.8475977783893567  0.759763431691326  0.19544595351445793  1.0000
  H   H20       1.0  0.652407176788806  0.2597614723990134  0.304553987835135  1.0000
  H   H21       1.0  0.8380515485167804  0.8473788171677941  0.7268298093500648  1.0000
  H   H22       1.0  0.6619468717285597  0.3473791598784857  0.7731702979035546  1.0000
  H   H23       1.0  0.1619487053000128  0.1526193464093097  0.27316952602453887  1.0000
  H   H24       1.0  0.3380520751016647  0.6526190036986108  0.22682832635503306  1.0000
  H   H25       1.0  0.702422938667759  0.0647185125598853  0.43905612259920457  1.0000
  H   H26       1.0  0.7975754815775813  0.5647181698491864  0.060945845396482005  1.0000
  H   H27       1.0  0.2975773151490344  0.9352854060247396  0.5609456937648218  1.0000
  H   H28       1.0  0.20242215826607424  0.4352788427264116  0.9390557892302099  1.0000
  H   H29       1.0  0.3574046251733093  0.2396477211188  0.6995183908979287  1.0000
  H   H30       1.0  0.14259484824179935  0.7396485294096069  0.8004806111076876  1.0000
  H   H31       1.0  0.6425969356300456  0.7603515934598024  0.300479794850638  1.0000
  H   H32       1.0  0.857404098588425  0.2603507851689955  0.19951801315089313  1.0000
  H   H33       1.0  0.0791589483108766  0.0319575567550885  0.6507301279428362  1.0000
  H   H34       1.0  0.4208379111311089  0.5319560630428839  0.8492705530675124  1.0000
  H   H35       1.0  0.9208399985193549  0.9680452108280307  0.3492715975525229  1.0000
  H   H36       1.0  0.5791597287125541  0.4680397985312084  0.150729841064468  1.0000
  H   H37       1.0  0.4125476953477331  0.8469552486143641  0.9325584381922527  1.0000
  H   H38       1.0  0.08745047108081389  0.34695674232656876  0.5674404729446964  1.0000
  H   H39       1.0  0.5874538654556216  0.1530406129597282  0.0674428487930783  1.0000
  H   H40       1.0  0.9125497827359792  0.6530437232535391  0.432557621935203  1.0000
  C   C1        1.0  0.2945699390623985  0.3522651612624372  0.41958071199578484  1.0000
  C   C2        1.0  0.2054308413392789  0.8522648185517383  0.0804227226099741  1.0000
  C   C3        1.0  0.7054263937946956  0.6477376063206748  0.5804220722569511  1.0000
  C   C4        1.0  0.7945694124775071  0.1477344960268638  0.9195790937540451  1.0000
  C   C5        1.0  0.2705357631140329  0.0433904546930819  0.8739434943750768  1.0000
  C   C6        1.0  0.22946240331451404  0.5433901119823831  0.6260554167618723  1.0000
  C   C7        1.0  0.7294644907027601  0.9566077088840218  0.12605584099952694  1.0000
  C   C8        1.0  0.770537850502272  0.4566092025962263  0.3739432983653829  1.0000
  C   C9        1.0  0.255030981490485  0.15317643113718304  0.8087015508076335  1.0000
  C   C10       1.0  0.24496718493806205  0.6531783904294954  0.6912986008240268  1.0000
  C   C11       1.0  0.7449731932860075  0.8468240344429249  0.19129867742032056  1.0000
  C   C12       1.0  0.7550317618921625  0.3468209241491067  0.3087000234345609  1.0000
  C   C13       1.0  0.720566526166543  0.893927619987501  0.7474963042939323  1.0000
  C   C14       1.0  0.7794318940787972  0.3939302647012113  0.7525038029596873  1.0000
  C   C15       1.0  0.2794324206636815  0.1060693925880969  0.2525023199646554  1.0000
  C   C16       1.0  0.22056835973799585  0.6060690498773981  0.24749429192020506  1.0000
  C   C17       1.0  0.8358531971140337  0.036057424111888316  0.4664106340408979  1.0000
  C   C18       1.0  0.6641452231313065  0.5360524773951809  0.0335900934600701  1.0000
  C   C19       1.0  0.1641470567027596  0.9639487964757336  0.5335911823231214  1.0000
  C   C20       1.0  0.3358524167123561  0.46394338417891845  0.966410920919266  1.0000
  C   C21       1.0  0.36901327984585197  0.1529750058740049  0.7490335111436295  1.0000
  C   C22       1.0  0.13098619356925667  0.6529735121618074  0.7509667313566908  1.0000
  C   C23       1.0  0.6309869739709413  0.8470254597061031  0.250965824230974  1.0000
  C   C24       1.0  0.8690153672340983  0.34702695341830053  0.24903269488657997  1.0000
  C   C25       1.0  0.4188525985384927  0.2844746256887163  0.4844655343695906  1.0000
  C   C26       1.0  0.08114818186318468  0.7844719809750063  0.015538520483524103  1.0000
  C   C27       1.0  0.5811437343186012  0.7155292928959085  0.5155384903778568  1.0000
  C   C28       1.0  0.91885337894017  0.21552272959758065  0.9844627665018068  1.0000
  C   C29       1.0  0.043036453620523184  0.016823037980636  0.5832093340354803  1.0000
  C   C30       1.0  0.45696694075428457  0.5168215442684385  0.9167930418129091  1.0000
  C   C31       1.0  0.9569677211559693  0.9831785786009776  0.41679275493454077  1.0000
  C   C32       1.0  0.5430333130625014  0.48317777031017073  0.0832087745511174  1.0000
  C   C33       1.0  0.5140286672064958  0.9270810673051173  0.8213581953222899  1.0000
  C   C34       1.0  0.9859684460522755  0.4270825610173219  0.6786405805679578  1.0000
  C   C35       1.0  0.4859689726371669  0.0729170962719863  0.1786415785623419  1.0000
  C   C36       1.0  0.0140318077645105  0.5729190555642916  0.3213581345592972  1.0000
  C   C37       1.0  0.39928700965671726  0.929797430854265  0.881217817749466  1.0000
  C   C38       1.0  0.1007085427986993  0.42980007556796823  0.6187815318975112  1.0000
  C   C39       1.0  0.6007132441600758  0.0702007327228387  0.1187821378724934  1.0000
  C   C40       1.0  0.8992890970449563  0.5702003900121397  0.3812170014924092  1.0000
  C   C41       1.0  0.4992544910729179  0.0391904502054388  0.7555728503730066  1.0000
  C   C42       1.0  0.0007449823421907998  0.5391924094977512  0.744426771879958  1.0000
  C   C43       1.0  0.5007457627438683  0.9608077133716649  0.24442648500159692  1.0000
  C   C44       1.0  0.9992513505149032  0.460810358085368  0.2555698098992281  1.0000
  N   N1        1.0  0.6334062061032171  0.014759292284189502  0.70874135593521  1.0000
  N   N2        1.0  0.866593521128692  0.5147612515765019  0.7912588421870694  1.0000
  N   N3        1.0  0.3665940477135763  0.9852377202914084  0.2912573591920378  1.0000
  N   N4        1.0  0.13340542570153954  0.485239214003613  0.2087391618241625  1.0000
  N   N5        1.0  0.5204250594568265  0.23230778452858666  0.5372390024854495  1.0000
  N   N6        1.0  0.9795759747616442  0.7323074418178949  0.9627650079896314  1.0000
  N   N7        1.0  0.479573887373398  0.767699587060541  0.46276334325726515  1.0000
  N   N8        1.0  0.020424279055148993  0.2676884197562046  0.037236808374395  1.0000
  N   N9        1.0  0.8786661560318973  0.0529092371301232  0.5496745174856841  1.0000
  N   N10       1.0  0.6213322642134429  0.5529088944194244  0.9503262100152912  1.0000
  N   N11       1.0  0.12133279079833408  0.9470935304529888  0.4503265877623193  1.0000
  N   N12       1.0  0.3786653756302201  0.4470881181561666  0.04967480436404511  1.0000
  N   N13       1.0  0.6572613248921397  0.8348743368296925  0.8147068884454143  1.0000
  N   N14       1.0  0.8427357883666315  0.3348781325449011  0.6852925076921821  1.0000
  N   N15       1.0  0.3427376219380846  0.1651238267474042  0.18529173581317343  1.0000
  N   N16       1.0  0.1572631584635928  0.6651234840367124  0.3147048760716872  1.0000
