data_image0
_chemical_formula_structural       Al6H50C96S6Cl12O46
_chemical_formula_sum              "Al6 H50 C96 S6 Cl12 O46"
_cell_length_a       13.621333285618654
_cell_length_b       14.032737570394062
_cell_length_c       27.051820716722393
_cell_angle_alpha    90.68100070234144
_cell_angle_beta     88.91651244440446
_cell_angle_gamma    61.77646909658667

_space_group_name_H-M_alt    "P 1"
_space_group_IT_number       1

loop_
  _space_group_symop_operation_xyz
  'x, y, z'

loop_
  _atom_site_type_symbol
  _atom_site_label
  _atom_site_symmetry_multiplicity
  _atom_site_fract_x
  _atom_site_fract_y
  _atom_site_fract_z
  _atom_site_occupancy
  Al  Al1       1.0  0.159879594142204  0.4359622205824039  0.5059488633337139  1.0000
  Al  Al2       1.0  0.37929744192764747  0.20470851890723904  0.5037820896185536  1.0000
  Al  Al3       1.0  0.4097637721675582  0.4026402152020836  0.5023220608782069  1.0000
  Al  Al4       1.0  0.17273051068796252  0.9245570224349752  0.013598135257439001  1.0000
  Al  Al5       1.0  0.929036488001536  0.1280087884180858  0.0167656095804318  1.0000
  Al  Al6       1.0  0.9463914284458285  0.9070896956062026  0.014812953778267999  1.0000
  H   H1        1.0  0.7868397994311848  0.2109033169973245  0.7750493805035248  1.0000
  H   H2        1.0  0.5167608847715356  0.36226447652776267  0.3700085782857983  1.0000
  H   H3        1.0  0.13210977115358705  0.5006459935059979  0.366435763244759  1.0000
  H   H4        1.0  0.35998828625880447  0.11661796737664788  0.3717626989780385  1.0000
  H   H5        1.0  0.5521096715561952  0.39576768567645365  0.1954485359781017  1.0000
  H   H6        1.0  0.031171834211257056  0.549275880307782  0.19607005255780757  1.0000
  H   H7        1.0  0.409585830382035  0.018609649879572  0.1990618751934363  1.0000
  H   H8        1.0  0.4983859729489025  0.4299279040297392  0.2848405330474506  1.0000
  H   H9        1.0  0.06700822997112243  0.4869033969547304  0.2827149029195867  1.0000
  H   H10       1.0  0.4389507204847192  0.0465289620750937  0.28750265589197  1.0000
  H   H11       1.0  0.8770577005175256  0.9309599140801195  0.1564479388930451  1.0000
  H   H12       1.0  0.9993714698643216  0.7350183441377282  0.7870889740026001  1.0000
  H   H13       1.0  0.17974020147281067  0.8799634440398664  0.15899075035901694  1.0000
  H   H14       1.0  0.9259799853076414  0.18521411682287683  0.16230176928611684  1.0000
  H   H15       1.0  0.9281852332893052  0.881592821573264  0.2460886398744506  1.0000
  H   H16       1.0  0.1951165254376406  0.9241384192242419  0.24952237091614654  1.0000
  H   H17       1.0  0.8617661582709103  0.2012348691636063  0.2524233345511391  1.0000
  H   H18       1.0  0.6777913196844096  0.287414456357439  0.7084732719410951  1.0000
  H   H19       1.0  0.01962423457550948  0.7296084472552948  0.704478322374726  1.0000
  H   H20       1.0  0.32195455681741686  0.118415982198357  0.7235383719145078  1.0000
  H   H21       1.0  0.7917074616640534  0.9870413767609421  0.6906612954712513  1.0000
  H   H22       1.0  0.21786124564432904  0.8273481901514259  0.7077171377282027  1.0000
  H   H23       1.0  0.30596067177698666  0.09778973782684372  0.805736651300883  1.0000
  H   H24       1.0  0.06274611120245051  0.10458764524803144  0.7117897906786367  1.0000
  H   H25       1.0  0.82836985769395  0.09184819555372309  0.6988059810878725  1.0000
  H   H26       1.0  0.07632249783748078  0.8556113538732646  0.7077083431306121  1.0000
  H   H27       1.0  0.20932121480586827  0.0314485170041792  0.717833446517524  1.0000
  H   H28       1.0  0.8830936868551189  0.023640357520172  0.7760814309728019  1.0000
  H   H29       1.0  0.07486470735819499  0.8704757693928045  0.7933007683094147  1.0000
  H   H30       1.0  0.1833748317365007  0.02817685705142741  0.8019267864443549  1.0000
  H   H31       1.0  0.48750268817911996  0.1767194479568204  0.7343950091314113  1.0000
  H   H32       1.0  0.3205578444811367  0.5210517868035893  0.712801837066131  1.0000
  H   H33       1.0  0.06211909837116989  0.37892413782760326  0.7263309897767058  1.0000
  H   H34       1.0  0.6073745004708043  0.037514032917940206  0.8121273123793172  1.0000
  H   H35       1.0  0.5321385524314479  0.1797308942462976  0.8143202431378285  1.0000
  H   H36       1.0  0.2981850081429867  0.5281856428455143  0.7977863761973226  1.0000
  H   H37       1.0  0.04417480488687885  0.37492087098491583  0.8103312269734033  1.0000
  H   H38       1.0  0.7945764212861023  0.8389209077148293  0.3700906402305577  1.0000
  H   H39       1.0  0.4907153077649581  0.6554878031353298  0.33109700768124384  1.0000
  H   H40       1.0  0.8725568833949422  0.4768217910967536  0.3378808647817948  1.0000
  H   H41       1.0  0.5953851220858937  0.8823728002233368  0.768470290805162  1.0000
  H   H42       1.0  0.5411878414166793  0.4973535928913719  0.7553117640836718  1.0000
  H   H43       1.0  0.9813750168923433  0.3549113459556422  0.6354671091805814  1.0000
  H   H44       1.0  0.35018841962338615  0.62178948809197  0.8025039775221572  1.0000
  H   H45       1.0  0.9542611293640133  0.3177875830434189  0.8051087556652166  1.0000
  H   H46       1.0  0.6597505948734577  0.2660546038599705  0.1264027856694554  1.0000
  H   H47       1.0  0.04662727630527292  0.6624406121877159  0.1287485724725954  1.0000
  H   H48       1.0  0.27791508127565123  0.04484391161584259  0.1303716841310489  1.0000
  H   H49       1.0  0.9826706245602922  0.5652797226507857  0.5359482803454583  1.0000
  H   H50       1.0  0.35671272602252907  0.8239432214702518  0.9836865925462136  1.0000
  C   C1        1.0  0.25800392947566314  0.5584256193762727  0.5653913845451228  1.0000
  C   C2        1.0  0.7426538821950358  0.09864089166600819  0.853727789217281  1.0000
  C   C3        1.0  0.15422299928009423  0.7103327437432013  0.8532049101014535  1.0000
  C   C4        1.0  0.11825670215554854  0.18943592362766273  0.8648560259847429  1.0000
  C   C5        1.0  0.6173941063140802  0.1670765733074546  0.6576465023482356  1.0000
  C   C6        1.0  0.21121799447559655  0.6682844496994064  0.6495996839784653  1.0000
  C   C7        1.0  0.15809662695239973  0.2091624607445156  0.662324713544642  1.0000
  C   C8        1.0  0.5822048097381652  0.19323992152646952  0.6163736857615092  1.0000
  C   C9        1.0  0.23183321641968746  0.6305364319137399  0.6077575629791596  1.0000
  C   C10       1.0  0.1768111389216926  0.22022653512812698  0.6192924833674668  1.0000
  C   C11       1.0  0.07950131506596846  0.1044256282260889  0.0889257461667157  1.0000
  C   C12       1.0  0.20968319383847242  0.2516258995003966  0.5738502942568644  1.0000
  C   C13       1.0  0.8045985420416242  0.0720425443828105  0.0834248295391617  1.0000
  C   C14       1.0  0.10238362982341453  0.8070718283326312  0.0866809514447553  1.0000
  C   C15       1.0  0.08929950368618483  0.12161615017291891  0.9512419873742743  1.0000
  C   C16       1.0  0.81589094512902  0.06996841524026111  0.9452691743108731  1.0000
  C   C17       1.0  0.10867340134256424  0.7886191668051765  0.9447801050831046  1.0000
  C   C18       1.0  0.566557504505262  0.2800735054432266  0.35529524216498504  1.0000
  C   C19       1.0  0.1636454206762465  0.5528953338411567  0.3513741390350163  1.0000
  C   C20       1.0  0.2766899791684594  0.1496124885762313  0.3570000748806521  1.0000
  C   C21       1.0  0.5984037407617322  0.2626966732156788  0.3051246500854745  1.0000
  C   C22       1.0  0.14023953328670297  0.5890630645185482  0.3029230485394123  1.0000
  C   C23       1.0  0.523324131310588  0.2273132472435506  0.5707655287824096  1.0000
  C   C24       1.0  0.262794709144039  0.1278594858486173  0.307797514057512  1.0000
  C   C25       1.0  0.6627479482952693  0.22343440067213294  0.203267694462923  1.0000
  C   C26       1.0  0.0973704283821776  0.6624416437698029  0.2042433196815949  1.0000
  C   C27       1.0  0.2289943817208666  0.0928196332943827  0.20735745888273271  1.0000
  C   C28       1.0  0.25459348408552507  0.5257353583933196  0.4305761680526317  1.0000
  C   C29       1.0  0.2145800165297658  0.2455817908447955  0.4368518201015803  1.0000
  C   C30       1.0  0.5340786963152411  0.2261151824361463  0.4365077223609148  1.0000
  C   C31       1.0  0.5861350738675027  0.3300086549229846  0.22162023379937074  1.0000
  C   C32       1.0  0.0685639282283149  0.5825377784051254  0.2217766884196166  1.0000
  C   C33       1.0  0.33907740594016633  0.057967530141034694  0.2252062916145121  1.0000
  C   C34       1.0  0.6006806867426063  0.11039586759782341  0.7949057538885499  1.0000
  C   C35       1.0  0.556315424078079  0.3489503918551122  0.2706848058231799  1.0000
  C   C36       1.0  0.08827290306181368  0.5481018958887987  0.26932798403212393  1.0000
  C   C37       1.0  0.35535758549138297  0.0736730488626733  0.2736607566294467  1.0000
  C   C38       1.0  0.6937519550494357  0.20106220950982842  0.1529138724953967  1.0000
  C   C39       1.0  0.08216843029025968  0.6964069163118438  0.1550117909461761  1.0000
  C   C40       1.0  0.2089953048892426  0.0816819714562129  0.1574204863534092  1.0000
  C   C41       1.0  0.7671575250778203  0.0956210278132588  0.1362562286520159  1.0000
  C   C42       1.0  0.11526452352203609  0.7715086425545297  0.1389546613678405  1.0000
  C   C43       1.0  0.0999691221604664  0.11856486242485433  0.1416165761410184  1.0000
  C   C44       1.0  0.6606788859610901  0.08552587496554762  0.3686262879274764  1.0000
  C   C45       1.0  0.2881441149492119  0.6057376285317915  0.7845009505956356  1.0000
  C   C46       1.0  0.26782597012459064  0.6518857400491243  0.3632737491781342  1.0000
  C   C47       1.0  0.07570927010567628  0.2588379555599829  0.36976813417481225  1.0000
  C   C48       1.0  0.7186060490834193  0.06904924973216002  0.3225685425150644  1.0000
  C   C49       1.0  0.22050874915212398  0.7115014326251412  0.3201983608948566  1.0000
  C   C50       1.0  0.05935813402312818  0.213985861447199  0.3255231349563203  1.0000
  C   C51       1.0  0.6762861633147705  0.15621032293066145  0.2883352958213905  1.0000
  C   C52       1.0  0.16740627394763408  0.6705240170402008  0.2870665196017512  1.0000
  C   C53       1.0  0.15279990695443502  0.1597228547746212  0.2917161798207459  1.0000
  C   C54       1.0  0.819477778563922  0.9738150690329379  0.3059008620847479  1.0000
  C   C55       1.0  0.2162346128611858  0.8130676215327239  0.3064679580057472  1.0000
  C   C56       1.0  0.03591378835876922  0.3080757692604479  0.7931465993447588  1.0000
  C   C57       1.0  0.9570217394126743  0.21500531630001518  0.3109185664128375  1.0000
  C   C58       1.0  0.8516484619146065  0.9540497471664936  0.2571278140243507  1.0000
  C   C59       1.0  0.1966723046108072  0.8481383959267886  0.2589298622865854  1.0000
  C   C60       1.0  0.9398369717822347  0.1988282081524986  0.2626577145264264  1.0000
  C   C61       1.0  0.7914565609380162  0.0319314987371371  0.22061965271351622  1.0000
  C   C62       1.0  0.16880063576127208  0.7915357033117871  0.22212132421631742  1.0000
  C   C63       1.0  0.026501628096632097  0.1697125389526732  0.2257574318972217  1.0000
  C   C64       1.0  0.6407283230105634  0.251411971089027  0.7334427934260574  1.0000
  C   C65       1.0  0.09543001741575807  0.6634558369306233  0.719221127371199  1.0000
  C   C66       1.0  0.25275047360304376  0.19236008301403726  0.7394233426137617  1.0000
  C   C67       1.0  0.5736865088548055  0.11403218631325272  0.7395821035406414  1.0000
  C   C68       1.0  0.7101266014746483  0.1372499955061244  0.2375199413835887  1.0000
  C   C69       1.0  0.1438220035808584  0.7085419462517777  0.23797092863571118  1.0000
  C   C70       1.0  0.1363016274758024  0.1401334060271964  0.2417017068702592  1.0000
  C   C71       1.0  0.8164422292881  0.011548498887322  0.16987637986864712  1.0000
  C   C72       1.0  0.15727027411940497  0.8196014273867932  0.1722546897593205  1.0000
  C   C73       1.0  0.009454096000141002  0.1610584664235617  0.1754252200251756  1.0000
  C   C74       1.0  0.5913915837033485  0.1931645319278914  0.38637809163102327  1.0000
  C   C75       1.0  0.23106466386200716  0.5789546674009927  0.3808378718520515  1.0000
  C   C76       1.0  0.18548460349025928  0.21877908512883687  0.387174461714352  1.0000
  C   C77       1.0  0.7752860031992055  0.05843555593489211  0.7132638116099841  1.0000
  C   C78       1.0  0.30281325713801266  0.60075341683077  0.7277608690670193  1.0000
  C   C79       1.0  0.15902704182389757  0.8011762855150903  0.7219085658065509  1.0000
  C   C80       1.0  0.13338672449219052  0.10426429348741809  0.7304400353009299  1.0000
  C   C81       1.0  0.802729342552368  0.02844883076411261  0.7677331676069699  1.0000
  C   C82       1.0  0.15412942374923946  0.8050769043638439  0.7788058366307952  1.0000
  C   C83       1.0  0.11970452422290381  0.103542478116978  0.786791591934346  1.0000
  C   C84       1.0  0.7697708800594114  0.08580400039046049  0.896680380464602  1.0000
  C   C85       1.0  0.13666857673261754  0.7361723134346718  0.8967490028352216  1.0000
  C   C86       1.0  0.10878206407708288  0.16694285497120384  0.9072050653431702  1.0000
  C   C87       1.0  0.6514020596924368  0.1454225864865109  0.7087390387170842  1.0000
  C   C88       1.0  0.19442084064223764  0.6848811354474549  0.7028551739303383  1.0000
  C   C89       1.0  0.04571826096248088  0.31206193517049036  0.7364422362312484  1.0000
  C   C90       1.0  0.14374123790462082  0.20516533429303507  0.715391002792444  1.0000
  C   C91       1.0  0.7021076745917938  0.22353241298543478  0.78290641871763  1.0000
  C   C92       1.0  0.08229144390972452  0.6698311102383273  0.7768242198321715  1.0000
  C   C93       1.0  0.24561890937602734  0.18085524264459713  0.7965045592599438  1.0000
  C   C94       1.0  0.7106339348740958  0.11530202178347082  0.8023223770012822  1.0000
  C   C95       1.0  0.17103916936015662  0.6954458244277929  0.7999228059168004  1.0000
  C   C96       1.0  0.12723454756734037  0.1997973304721867  0.8119550955139374  1.0000
  S   S1        1.0  0.648029191801271  0.9762999845534137  0.3984379168144301  1.0000
  S   S2        1.0  0.3918024630563012  0.6460921265406725  0.38939333328738  1.0000
  S   S3        1.0  0.9645510512469709  0.38306108410103684  0.3968744373230066  1.0000
  S   S4        1.0  0.5670287897256826  0.9969548302483489  0.7115868210291367  1.0000
  S   S5        1.0  0.4267903953295828  0.6115812921975134  0.7050265943871566  1.0000
  S   S6        1.0  0.9128907928110976  0.34948780631971493  0.7072067470609156  1.0000
  Cl  Cl1       1.0  0.49706856113784437  0.3489326171084244  0.7406633606068668  1.0000
  Cl  Cl2       1.0  0.8205547344211863  0.8963776425943737  0.7824519047383093  1.0000
  Cl  Cl3       1.0  0.258689969505177  0.8345901765961514  0.8040067714265717  1.0000
  Cl  Cl4       1.0  0.9915479972003209  0.10495005991371188  0.8057191846795035  1.0000
  Cl  Cl5       1.0  0.10445147642890619  0.5449258416422894  0.6908535048287874  1.0000
  Cl  Cl6       1.0  0.281772997608698  0.2976508837182124  0.7210408996697596  1.0000
  Cl  Cl7       1.0  0.6462709563968547  0.33152906533254617  0.8273808055201641  1.0000
  Cl  Cl8       1.0  0.0889913448514292  0.5524955568783838  0.8048347908881794  1.0000
  Cl  Cl9       1.0  0.2838645233265212  0.2641341295194479  0.8329452386622478  1.0000
  Cl  Cl10      1.0  0.9152429108458691  0.8921384571303647  0.3489240801405131  1.0000
  Cl  Cl11      1.0  0.21652968889939914  0.9004047874402515  0.351890348299655  1.0000
  Cl  Cl12      1.0  0.8637251457741968  0.21866075770040544  0.355953509374487  1.0000
  O   O1        1.0  0.15754482299824699  0.3511291821782905  0.5646055886133183  1.0000
  O   O2        1.0  0.14858255971775944  0.3309243819055538  0.4600727458482226  1.0000
  O   O3        1.0  0.5003324449322122  0.1664162829766269  0.457662224765336  1.0000
  O   O4        1.0  0.3459389370849166  0.5035040393453443  0.4517488882700604  1.0000
  O   O5        1.0  0.17969027013256775  0.5053048541287027  0.447224098839996  1.0000
  O   O6        1.0  0.3111751956820753  0.17589002766294473  0.45171852241306  1.0000
  O   O7        1.0  0.5174261054885749  0.3182691626767565  0.4535022959528447  1.0000
  O   O8        1.0  0.3176501530746307  0.3470883556553304  0.5044801763407705  1.0000
  O   O9        1.0  0.16676687914426935  0.841649486550864  0.0706208964453054  1.0000
  O   O10       1.0  0.9792523696273392  0.16351513369251336  0.0742365638443729  1.0000
  O   O11       1.0  0.8397142010157309  0.9750890945784647  0.0671166598851514  1.0000
  O   O12       1.0  0.4831759050312242  0.16750764776105598  0.5542420698521937  1.0000
  O   O13       1.0  0.15874210022886356  0.03369783191911321  0.0627350976982086  1.0000
  O   O14       1.0  0.8061364592681882  0.1478696601158305  0.0580470927985672  1.0000
  O   O15       1.0  0.02352090106667515  0.8036911401171166  0.0620595097377006  1.0000
  O   O16       1.0  0.014315178029605259  0.9868030469771724  0.014465716656261  1.0000
  O   O17       1.0  0.15663779331624994  0.023893492143422203  0.9590028241357018  1.0000
  O   O18       1.0  0.8393432712897418  0.14279324278501804  0.9612599353482807  1.0000
  O   O19       1.0  0.014147339312174413  0.8056226330344954  0.9641841718479327  1.0000
  O   O20       1.0  0.6986862464450924  0.9551192033107796  0.4458387466601295  1.0000
  O   O21       1.0  0.5343856697373184  0.0006449742603891022  0.39141543742960755  1.0000
  O   O22       1.0  0.714682000510592  0.8729500439770276  0.3624145214949053  1.0000
  O   O23       1.0  0.3593061245631901  0.5145603698168628  0.548281320101843  1.0000
  O   O24       1.0  0.36798752225570297  0.7030369222782438  0.4358273301418053  1.0000
  O   O25       1.0  0.47792968170519146  0.5351412486115593  0.3823647854037446  1.0000
  O   O26       1.0  0.42748599504566465  0.7114766331930865  0.3501447910920277  1.0000
  O   O27       1.0  0.920321696734611  0.3638657701222383  0.4415443983209997  1.0000
  O   O28       1.0  0.002372123110880924  0.46278060544275224  0.3914840336968837  1.0000
  O   O29       1.0  0.8672540627843404  0.4194418376208944  0.3560332782209272  1.0000
  O   O30       1.0  0.47188618219966116  0.04064364964571611  0.6806180025018094  1.0000
  O   O31       1.0  0.6735150499504957  0.9143934800219639  0.6930083365754314  1.0000
  O   O32       1.0  0.5307146086390943  0.9499055350538516  0.75923134846731  1.0000
  O   O33       1.0  0.47952379498679687  0.5320909570422998  0.6659721114772028  1.0000
  O   O34       1.0  0.17490508864872817  0.8183016308442533  0.9628774033166536  1.0000
  O   O35       1.0  0.39853882689303094  0.7229973601773025  0.6985654086555185  1.0000
  O   O36       1.0  0.5054885954301653  0.5765958905651942  0.7524565862699788  1.0000
  O   O37       1.0  0.9037960329503032  0.25369180149875353  0.693864760423871  1.0000
  O   O38       1.0  0.8261612070362574  0.4332510903730337  0.7370888451846581  1.0000
  O   O39       1.0  0.9233718481534794  0.40746666061778564  0.6584995570984518  1.0000
  O   O40       1.0  0.0010209839366837456  0.18349259138262397  0.9776146099385343  1.0000
  O   O41       1.0  0.8338674134888036  0.9838104186720928  0.9677420580201712  1.0000
  O   O42       1.0  0.18153270836630497  0.5391258434034186  0.5507382218580403  1.0000
  O   O43       1.0  0.2912753975279543  0.17695349563943097  0.5486978002748373  1.0000
  O   O44       1.0  0.5116218856431018  0.314749849688468  0.5518686814400056  1.0000
  O   O45       1.0  0.015325149458220827  0.5144941084213172  0.5084812115106203  1.0000
  O   O46       1.0  0.31830286063603813  0.8654850123675574  0.013156222282773904  1.0000
