data_image0
_chemical_formula_structural       H24Pb4C16Br4N4O16
_chemical_formula_sum              "H24 Pb4 C16 Br4 N4 O16"
_cell_length_a       6.8803666373930605
_cell_length_b       8.597232568185664
_cell_length_c       13.018006696762765
_cell_angle_alpha    100.41010563944405
_cell_angle_beta     89.99863956686693
_cell_angle_gamma    90.00287334101087

_space_group_name_H-M_alt    "P 1"
_space_group_IT_number       1

loop_
  _space_group_symop_operation_xyz
  'x, y, z'

loop_
  _atom_site_type_symbol
  _atom_site_label
  _atom_site_symmetry_multiplicity
  _atom_site_fract_x
  _atom_site_fract_y
  _atom_site_fract_z
  _atom_site_occupancy
  H   H1        1.0  0.2968523107679176  0.9633603342472129  0.08586077201820794  1.0000
  H   H2        1.0  0.7968661250449859  0.5366343604711258  0.41411002606041336  1.0000
  H   H3        1.0  0.7031162250969417  0.036618383725610194  0.914114726734276  1.0000
  H   H4        1.0  0.2031402001080381  0.4633760707131741  0.5858825384722834  1.0000
  H   H5        1.0  0.20411593095724367  0.8556809807069713  0.9795647107614656  1.0000
  H   H6        1.0  0.7041947108560368  0.6443349167643716  0.5204076248251113  1.0000
  H   H7        1.0  0.7958511513151196  0.14430223803304185  0.0204251844015104  1.0000
  H   H8        1.0  0.2957927189224564  0.3556492809665457  0.4795946852678981  1.0000
  H   H9        1.0  0.14267760545657646  0.7608789275513174  0.18492702025706356  1.0000
  H   H10       1.0  0.6426197651790347  0.7390827051887142  0.3150392847724106  1.0000
  H   H11       1.0  0.8573665069219347  0.23907137211612914  0.8150471924679862  1.0000
  H   H12       1.0  0.35738365231677705  0.26091090236069187  0.6849672868351888  1.0000
  H   H13       1.0  0.0096985382221675  0.7007030320829484  0.0669252397956726  1.0000
  H   H14       1.0  0.5097263730270357  0.7992920026756136  0.43307926399046437  1.0000
  H   H15       1.0  0.9902787177561124  0.299289328665118  0.9330850155251724  1.0000
  H   H16       1.0  0.4903061133108225  0.20071943310598775  0.5669241822469431  1.0000
  H   H17       1.0  0.36348579046311613  0.6164966940550655  0.04084692999762751  1.0000
  H   H18       1.0  0.8635031605434451  0.8835138775192062  0.4591058093666476  1.0000
  H   H19       1.0  0.6365815778378875  0.3834800686056425  0.9591037383325299  1.0000
  H   H20       1.0  0.13651333751219144  0.11647847123213496  0.5409052123970071  1.0000
  H   H21       1.0  0.49463264490859876  0.764536360885479  0.12679916484025708  1.0000
  H   H22       1.0  0.9946519202544838  0.7354458372007072  0.3731651996264275  1.0000
  H   H23       1.0  0.5053329836282361  0.23544083028419047  0.873196882752566  1.0000
  H   H24       1.0  0.005341323325012602  0.26455121586197794  0.6268479530204515  1.0000
  Pb  Pb1       1.0  0.6583914617629463  0.17394928035518117  0.2769214719499757  1.0000
  Pb  Pb2       1.0  0.15837897942871149  0.3260593550778309  0.22298293529988195  1.0000
  Pb  Pb3       1.0  0.34156545003693156  0.8261568737376093  0.7230870269358575  1.0000
  Pb  Pb4       1.0  0.8415227001870706  0.6738908810885247  0.7769236677190603  1.0000
  C   C1        1.0  0.9412269719556153  0.9345239230789061  0.15042157537722997  1.0000
  C   C2        1.0  0.44117520655854053  0.5654763942826834  0.3496133698340813  1.0000
  C   C3        1.0  0.05880115358591102  0.06548941883210088  0.8496097673055942  1.0000
  C   C4        1.0  0.5587904225698568  0.43452902542473026  0.650395462495787  1.0000
  C   C5        1.0  0.08429105790638403  0.8006589874346088  0.11563770420428908  1.0000
  C   C6        1.0  0.584282881060311  0.6993011228419019  0.38435758483190335  1.0000
  C   C7        1.0  0.915718172517352  0.19930745952292026  0.8843631314482464  1.0000
  C   C8        1.0  0.41571472259300907  0.30068423215138296  0.6156464078189003  1.0000
  C   C9        1.0  0.41864191623736974  0.7381505261942747  0.05150174250750439  1.0000
  C   C10       1.0  0.9186710972112169  0.7618584428943647  0.448460069891837  1.0000
  C   C11       1.0  0.5813542348261224  0.2618493254674945  0.9484856444893238  1.0000
  C   C12       1.0  0.08133668051089421  0.23813979300928165  0.5515532320933758  1.0000
  C   C13       1.0  0.5591188183565665  0.7504760446593648  0.9632248235369758  1.0000
  C   C14       1.0  0.059131698590562116  0.7495141992831618  0.5367461411933618  1.0000
  C   C15       1.0  0.440907855136068  0.2495660866551218  0.036785573447161796  1.0000
  C   C16       1.0  0.9408920664975898  0.25046886757045417  0.463252952952537  1.0000
  Br  Br1       1.0  0.30893347355245754  0.0302563894122585  0.3313949477079987  1.0000
  Br  Br2       1.0  0.8089124922994205  0.46981402744331996  0.1686313234516561  1.0000
  Br  Br3       1.0  0.6910045422446844  0.9697964342619512  0.6686137278017695  1.0000
  Br  Br4       1.0  0.19096447882397172  0.5301601624873555  0.8313313124670785  1.0000
  N   N1        1.0  0.25077778135180046  0.8490621111958487  0.05476198108801359  1.0000
  N   N2        1.0  0.7507885882868737  0.6509237631663892  0.44520599216291856  1.0000
  N   N3        1.0  0.7492154618494882  0.15090455216464696  0.9452258224128727  1.0000
  N   N4        1.0  0.24920756232458532  0.3490734429228795  0.5547979612608954  1.0000
  O   O1        1.0  0.804333789785794  0.9054619892170306  0.2094761999509557  1.0000
  O   O2        1.0  0.3043111748743215  0.5945297208990041  0.2905486678496985  1.0000
  O   O3        1.0  0.19563620041881796  0.09455446881457158  0.7905102123041843  1.0000
  O   O4        1.0  0.6956355592499438  0.4054728999034224  0.7094859301946457  1.0000
  O   O5        1.0  0.9665161888063241  0.0663409903145222  0.12006893049406392  1.0000
  O   O6        1.0  0.46642490190027547  0.4336826324006466  0.3799970266826165  1.0000
  O   O7        1.0  0.03363256993321782  0.9337071679163598  0.8800067568589184  1.0000
  O   O8        1.0  0.5335814226382711  0.5663285096860377  0.6200240514819555  1.0000
  O   O9        1.0  0.5327759443815979  0.8577760712170245  0.9083244599772584  1.0000
  O   O10       1.0  0.0327651728759477  0.6422542606988201  0.5916695778760612  1.0000
  O   O11       1.0  0.46729869209112723  0.14229184794170635  0.091703022362509  1.0000
  O   O12       1.0  0.9672992878451372  0.3577381654557144  0.4083368440886375  1.0000
  O   O13       1.0  0.6951363448555627  0.6492643834275212  0.9496470679997059  1.0000
  O   O14       1.0  0.19522757741371785  0.8506782724270747  0.5502907794696981  1.0000
  O   O15       1.0  0.30484672531056844  0.35073995603138286  0.05035548205541571  1.0000
  O   O16       1.0  0.8048310693856852  0.1492873116026203  0.4496907415631597  1.0000
