data_image0
_chemical_formula_structural       AlH9C24N3Cl3O6
_chemical_formula_sum              "Al1 H9 C24 N3 Cl3 O6"
_cell_length_a       3.961845074159833
_cell_length_b       15.852895278019089
_cell_length_c       15.689749494369066
_cell_angle_alpha    60.488296077388604
_cell_angle_beta     82.4666041016142
_cell_angle_gamma    83.00878902103487

_space_group_name_H-M_alt    "P 1"
_space_group_IT_number       1

loop_
  _space_group_symop_operation_xyz
  'x, y, z'

loop_
  _atom_site_type_symbol
  _atom_site_label
  _atom_site_symmetry_multiplicity
  _atom_site_fract_x
  _atom_site_fract_y
  _atom_site_fract_z
  _atom_site_occupancy
  Al  Al1       1.0  0.9899266718573617  0.4974565976146721  0.5012586207009379  1.0000
  H   H1        1.0  0.3426717078538245  0.7644844813707864  0.5045897803444177  1.0000
  H   H2        1.0  0.3564100411694114  0.8609140135191637  0.5915264888818185  1.0000
  H   H3        1.0  0.41337579158635424  0.5951804026617751  0.8659338341090005  1.0000
  H   H4        1.0  0.4742062188756152  0.04670513282454889  0.5884215301734699  1.0000
  H   H5        1.0  0.5191915406100023  0.2310651061619566  0.7665562930608728  1.0000
  H   H6        1.0  0.501591381379761  0.0499329602081886  0.8599272740242796  1.0000
  H   H7        1.0  0.5814347231022978  0.8620549617470061  0.04427652175665749  1.0000
  H   H8        1.0  0.38604618684061615  0.5107958138914556  0.23537039477033517  1.0000
  H   H9        1.0  0.36927099097306393  0.5985059481517468  0.05227232933462028  1.0000
  C   C1        1.0  0.5211364279444411  0.5758330481265544  0.35071558786235363  1.0000
  C   C2        1.0  0.4166331812021583  0.5722760363212416  0.5791429576282852  1.0000
  C   C3        1.0  0.5199726020691174  0.3482696074708755  0.573439579912737  1.0000
  C   C4        1.0  0.467157414284884  0.9307729731193461  0.7844587255889336  1.0000
  C   C5        1.0  0.4131651544076575  0.7885085487990793  0.7864483466683012  1.0000
  C   C6        1.0  0.4604356140428013  0.7890489835466069  0.9291524369098311  1.0000
  C   C7        1.0  0.35879145081467123  0.7282789183784288  0.5838763242284485  1.0000
  C   C8        1.0  0.3664712886540756  0.7818989081611392  0.6318534929124906  1.0000
  C   C9        1.0  0.3906902036841444  0.7338437078587174  0.7337837650333584  1.0000
  C   C10       1.0  0.40090700633812304  0.632121565622114  0.786691080556949  1.0000
  C   C11       1.0  0.3997004599421032  0.5788635688197985  0.7380502131188607  1.0000
  C   C12       1.0  0.3832883821725943  0.6263988324182816  0.6355554285674287  1.0000
  C   C13       1.0  0.48987104589333824  0.0870169541625501  0.6271579845334116  1.0000
  C   C14       1.0  0.5090504427066949  0.1874139253111409  0.5753836505727037  1.0000
  C   C15       1.0  0.5199183495609889  0.23987833961435  0.6253917486512036  1.0000
  C   C16       1.0  0.5146787247630019  0.1896154242916595  0.7281977351536425  1.0000
  C   C17       1.0  0.503345754175122  0.08927007424779279  0.7801950483693999  1.0000
  C   C18       1.0  0.4882333248145657  0.03731439590902849  0.7298444553273882  1.0000
  C   C19       1.0  0.5457204576392344  0.7845489663770022  0.08598518359946894  1.0000
  C   C20       1.0  0.5672295533956274  0.7347644502935324  0.18738347332080715  1.0000
  C   C21       1.0  0.5111591150724949  0.6350599937691256  0.24208938185743284  1.0000
  C   C22       1.0  0.4348524087258809  0.5875462244793253  0.19199702122666915  1.0000
  C   C23       1.0  0.4235857268904511  0.636026488571929  0.09079175240067625  1.0000
  C   C24       1.0  0.47744665955445953  0.7355887394546201  0.03696992405944139  1.0000
  N   N1        1.0  0.4305377965617794  0.8853586070137497  0.7331940003817508  1.0000
  N   N2        1.0  0.42133144363116065  0.7373166945415192  0.8847442689554728  1.0000
  N   N3        1.0  0.4878359367324875  0.8856089277048582  0.8822801682925385  1.0000
  Cl  Cl1       1.0  0.4061855831880195  0.4537301552117725  0.8071724381479227  1.0000
  Cl  Cl2       1.0  0.5024916844031181  0.24679645035592296  0.4489688472658315  1.0000
  Cl  Cl3       1.0  0.6458251468990642  0.8010217325402351  0.24233273699413613  1.0000
  O   O1        1.0  0.2595960702451379  0.39229343714038833  0.5946120001578308  1.0000
  O   O2        1.0  0.3075096388257847  0.5100206749904432  0.39499903524540514  1.0000
  O   O3        1.0  0.1998220869787346  0.5926936129059328  0.5175648481286784  1.0000
  O   O4        1.0  0.7751228320825448  0.3883251954940832  0.5146356756438522  1.0000
  O   O5        1.0  0.6713725492607381  0.510616401343924  0.5952903339322405  1.0000
  O   O6        1.0  0.7401099993097945  0.5916635960654093  0.39262552244889537  1.0000
